data_str_m1_o10_o16_pcu_sym.46
_audit_creation_date              2020-01-03
_audit_creation_method            'Materials Studio'
_symmetry_space_group_name_H-M    'P1'
_symmetry_Int_Tables_number       1
_symmetry_cell_setting            triclinic
loop_
_symmetry_equiv_pos_as_xyz
  x,y,z
_cell_length_a                    32.7389
_cell_length_b                    32.5582
_cell_length_c                    31.1789
_cell_angle_alpha                 97.2921
_cell_angle_beta                  74.5435
_cell_angle_gamma                 98.6919
loop_
_atom_site_label
_atom_site_type_symbol
_atom_site_fract_x
_atom_site_fract_y
_atom_site_fract_z
_atom_site_U_iso_or_equiv
_atom_site_adp_type
_atom_site_occupancy
C1     C     0.05306   0.15992   0.25944   0.00000  Uiso   1.00
C2     C     0.16641   0.16475   0.06200   0.00000  Uiso   1.00
C3     C     0.21200   0.11056   0.05731   0.00000  Uiso   1.00
C4     C     0.28064   0.17360   0.24003   0.00000  Uiso   1.00
C5     C     0.14070   0.19318   0.41965   0.00000  Uiso   1.00
C6     C     0.32637   0.17753   0.23782   0.00000  Uiso   1.00
C7     C     0.00774   0.15592   0.26393   0.00000  Uiso   1.00
C8     C     0.18101   0.32308   0.24133   0.00000  Uiso   1.00
C9     C     0.14825   0.01153   0.26207   0.00000  Uiso   1.00
C10    C     0.15584   0.05598   0.25968   0.00000  Uiso   1.00
C11    C     0.17651   0.27793   0.24083   0.00000  Uiso   1.00
C12    C     0.13785   0.24925   0.47898   0.00000  Uiso   1.00
C13    C     0.18506   0.14811   0.12956   0.00000  Uiso   1.00
C14    C     0.14756   0.18393   0.37094   0.00000  Uiso   1.00
C15    C     0.20949   0.09802   0.01385   0.00000  Uiso   1.00
C16    C     0.18945   0.14262   0.08183   0.00000  Uiso   1.00
C17    C     0.13212   0.23375   0.43728   0.00000  Uiso   1.00
C18    C     0.32673   0.11475   0.32867   0.00000  Uiso   1.00
C19    C     0.07009   0.01645   0.29245   0.00000  Uiso   1.00
C20    C     0.13311   0.19006   0.09072   0.00000  Uiso   1.00
C21    C     0.13252   0.05526   0.39310   0.00000  Uiso   1.00
C22    C     0.02539   0.24815   0.22668   0.00000  Uiso   1.00
C23    C     0.15172   0.22447   0.00395   0.00000  Uiso   1.00
C24    C     0.15589   0.18194   0.48984   0.00000  Uiso   1.00
C25    C     0.14979   0.16564   0.44706   0.00000  Uiso   1.00
C26    C     0.16961   0.15614   0.01548   0.00000  Uiso   1.00
C27    C     0.18708   0.11957   0.49342   0.00000  Uiso   1.00
C28    C     0.17907   0.10297   0.45270   0.00000  Uiso   1.00
C29    C     0.15481   0.12293   0.43267   0.00000  Uiso   1.00
H30    H     0.22875   0.09307   0.07305   0.00000  Uiso   1.00
H31    H     0.33262   0.14378   0.35021   0.00000  Uiso   1.00
H32    H     0.02257   0.09867   0.31787   0.00000  Uiso   1.00
H33    H     0.09758   0.29992   0.25380   0.00000  Uiso   1.00
H34    H     0.04126   0.32990   0.30969   0.00000  Uiso   1.00
H35    H     0.06256   0.02915   0.26440   0.00000  Uiso   1.00
H36    H     0.07776   0.04250   0.31668   0.00000  Uiso   1.00
H37    H     0.10408   0.19116   0.08055   0.00000  Uiso   1.00
H38    H     0.10511   0.11052   0.40091   0.00000  Uiso   1.00
H39    H     0.11264   0.04267   0.36968   0.00000  Uiso   1.00
H40    H     0.11841   0.04070   0.42499   0.00000  Uiso   1.00
H41    H     0.21198   0.00572   0.22534   0.00000  Uiso   1.00
H42    H     0.16516   0.04675   0.37760   0.00000  Uiso   1.00
H43    H     0.01640   0.20209   0.17688   0.00000  Uiso   1.00
H44    H     0.05084   0.26686   0.20330   0.00000  Uiso   1.00
H45    H     0.03375   0.25075   0.25926   0.00000  Uiso   1.00
H46    H     0.32807   0.26102   0.23154   0.00000  Uiso   1.00
H47    H     0.18890   0.07278   0.43881   0.00000  Uiso   1.00
H48    H     0.22408   0.07075   0.49662   0.00000  Uiso   1.00
H49    H     0.12454   0.25497   0.41722   0.00000  Uiso   1.00
H50    H     0.16086   0.23977   0.03338   0.00000  Uiso   1.00
H51    H     0.13406   0.28152   0.49084   0.00000  Uiso   1.00
H52    H     0.30419   0.09835   0.27134   0.00000  Uiso   1.00
H53    H     0.30056   0.09380   0.34860   0.00000  Uiso   1.00
N54    N     0.31431   0.12436   0.29019   0.00000  Uiso   1.00
N55    N     0.10505   0.32473   0.27553   0.00000  Uiso   1.00
N56    N     0.13350   0.10022   0.40060   0.00000  Uiso   1.00
N57    N     0.02191   0.20509   0.20826   0.00000  Uiso   1.00
O58    O     0.16667   0.16667   0.25000   0.00000  Uiso   1.00
O59    O     0.15451   0.12637   0.15458   0.00000  Uiso   1.00
O60    O     0.12940   0.20391   0.34968   0.00000  Uiso   1.00
O61    O     0.20824   0.17759   0.14606   0.00000  Uiso   1.00
O62    O     0.17451   0.15880   0.34968   0.00000  Uiso   1.00
O63    O     0.13796   0.21053   0.12502   0.00000  Uiso   1.00
O64    O     0.17930   0.08019   0.28213   0.00000  Uiso   1.00
O65    O     0.14632   0.26085   0.27013   0.00000  Uiso   1.00
O66    O     0.07412   0.13291   0.23413   0.00000  Uiso   1.00
O67    O     0.26693   0.19272   0.21360   0.00000  Uiso   1.00
O68    O     0.07071   0.18878   0.28213   0.00000  Uiso   1.00
O69    O     0.25491   0.15226   0.27013   0.00000  Uiso   1.00
O70    O     0.13760   0.06944   0.23413   0.00000  Uiso   1.00
O71    O     0.20345   0.25620   0.21360   0.00000  Uiso   1.00
Zn72   Zn    0.19338   0.13994   0.28734   0.00000  Uiso   1.00
Zn73   Zn    0.13379   0.12458   0.21875   0.00000  Uiso   1.00
Zn74   Zn    0.21056   0.19775   0.20657   0.00000  Uiso   1.00
Zn75   Zn    0.12893   0.20439   0.28733   0.00000  Uiso   1.00
C76    C     0.38639   0.15992   0.25944   0.00000  Uiso   1.00
C77    C     0.49974   0.16475   0.06200   0.00000  Uiso   1.00
C78    C     0.54533   0.11056   0.05731   0.00000  Uiso   1.00
C79    C     0.61397   0.17360   0.24003   0.00000  Uiso   1.00
C80    C     0.47403   0.19318   0.41965   0.00000  Uiso   1.00
C81    C     0.65970   0.17753   0.23782   0.00000  Uiso   1.00
C82    C     0.34107   0.15592   0.26393   0.00000  Uiso   1.00
C83    C     0.51434   0.32308   0.24133   0.00000  Uiso   1.00
C84    C     0.48158   0.01153   0.26207   0.00000  Uiso   1.00
C85    C     0.48917   0.05598   0.25968   0.00000  Uiso   1.00
C86    C     0.50984   0.27793   0.24083   0.00000  Uiso   1.00
C87    C     0.47118   0.24925   0.47898   0.00000  Uiso   1.00
C88    C     0.51839   0.14811   0.12956   0.00000  Uiso   1.00
C89    C     0.48090   0.18393   0.37094   0.00000  Uiso   1.00
C90    C     0.54282   0.09802   0.01385   0.00000  Uiso   1.00
C91    C     0.52279   0.14262   0.08183   0.00000  Uiso   1.00
C92    C     0.46545   0.23375   0.43728   0.00000  Uiso   1.00
C93    C     0.66007   0.11475   0.32867   0.00000  Uiso   1.00
C94    C     0.40343   0.01645   0.29245   0.00000  Uiso   1.00
C95    C     0.46644   0.19006   0.09072   0.00000  Uiso   1.00
C96    C     0.46585   0.05526   0.39310   0.00000  Uiso   1.00
C97    C     0.35872   0.24815   0.22668   0.00000  Uiso   1.00
C98    C     0.48505   0.22447   0.00395   0.00000  Uiso   1.00
C99    C     0.48922   0.18194   0.48984   0.00000  Uiso   1.00
C100   C     0.48312   0.16564   0.44706   0.00000  Uiso   1.00
C101   C     0.50294   0.15614   0.01548   0.00000  Uiso   1.00
C102   C     0.52041   0.11957   0.49342   0.00000  Uiso   1.00
C103   C     0.51240   0.10297   0.45270   0.00000  Uiso   1.00
C104   C     0.48815   0.12293   0.43267   0.00000  Uiso   1.00
H105   H     0.56208   0.09307   0.07305   0.00000  Uiso   1.00
H106   H     0.66595   0.14378   0.35021   0.00000  Uiso   1.00
H107   H     0.35590   0.09867   0.31787   0.00000  Uiso   1.00
H108   H     0.43091   0.29992   0.25380   0.00000  Uiso   1.00
H109   H     0.37459   0.32990   0.30969   0.00000  Uiso   1.00
H110   H     0.39590   0.02915   0.26440   0.00000  Uiso   1.00
H111   H     0.41109   0.04250   0.31668   0.00000  Uiso   1.00
H112   H     0.43742   0.19116   0.08055   0.00000  Uiso   1.00
H113   H     0.43845   0.11052   0.40091   0.00000  Uiso   1.00
H114   H     0.44597   0.04267   0.36968   0.00000  Uiso   1.00
H115   H     0.45175   0.04070   0.42499   0.00000  Uiso   1.00
H116   H     0.54531   0.00572   0.22534   0.00000  Uiso   1.00
H117   H     0.49849   0.04675   0.37760   0.00000  Uiso   1.00
H118   H     0.34973   0.20209   0.17688   0.00000  Uiso   1.00
H119   H     0.38417   0.26686   0.20330   0.00000  Uiso   1.00
H120   H     0.36708   0.25075   0.25926   0.00000  Uiso   1.00
H121   H     0.66140   0.26102   0.23154   0.00000  Uiso   1.00
H122   H     0.52223   0.07278   0.43881   0.00000  Uiso   1.00
H123   H     0.55741   0.07075   0.49662   0.00000  Uiso   1.00
H124   H     0.45787   0.25497   0.41722   0.00000  Uiso   1.00
H125   H     0.49419   0.23977   0.03338   0.00000  Uiso   1.00
H126   H     0.46739   0.28152   0.49084   0.00000  Uiso   1.00
H127   H     0.63752   0.09835   0.27134   0.00000  Uiso   1.00
H128   H     0.63389   0.09380   0.34860   0.00000  Uiso   1.00
N129   N     0.64764   0.12436   0.29019   0.00000  Uiso   1.00
N130   N     0.43838   0.32473   0.27553   0.00000  Uiso   1.00
N131   N     0.46683   0.10022   0.40060   0.00000  Uiso   1.00
N132   N     0.35525   0.20509   0.20826   0.00000  Uiso   1.00
O133   O     0.50000   0.16667   0.25000   0.00000  Uiso   1.00
O134   O     0.48784   0.12637   0.15458   0.00000  Uiso   1.00
O135   O     0.46274   0.20391   0.34968   0.00000  Uiso   1.00
O136   O     0.54157   0.17759   0.14606   0.00000  Uiso   1.00
O137   O     0.50785   0.15880   0.34968   0.00000  Uiso   1.00
O138   O     0.47129   0.21053   0.12502   0.00000  Uiso   1.00
O139   O     0.51264   0.08019   0.28213   0.00000  Uiso   1.00
O140   O     0.47965   0.26085   0.27013   0.00000  Uiso   1.00
O141   O     0.40745   0.13291   0.23413   0.00000  Uiso   1.00
O142   O     0.60026   0.19272   0.21360   0.00000  Uiso   1.00
O143   O     0.40405   0.18878   0.28213   0.00000  Uiso   1.00
O144   O     0.58824   0.15226   0.27013   0.00000  Uiso   1.00
O145   O     0.47093   0.06944   0.23413   0.00000  Uiso   1.00
O146   O     0.53678   0.25620   0.21360   0.00000  Uiso   1.00
Zn147  Zn    0.52672   0.13994   0.28734   0.00000  Uiso   1.00
Zn148  Zn    0.46713   0.12458   0.21875   0.00000  Uiso   1.00
Zn149  Zn    0.54389   0.19775   0.20657   0.00000  Uiso   1.00
Zn150  Zn    0.46226   0.20439   0.28733   0.00000  Uiso   1.00
C151   C     0.71973   0.15992   0.25944   0.00000  Uiso   1.00
C152   C     0.83308   0.16475   0.06200   0.00000  Uiso   1.00
C153   C     0.87867   0.11056   0.05731   0.00000  Uiso   1.00
C154   C     0.94730   0.17360   0.24003   0.00000  Uiso   1.00
C155   C     0.80736   0.19318   0.41965   0.00000  Uiso   1.00
C156   C     0.99303   0.17753   0.23782   0.00000  Uiso   1.00
C157   C     0.67440   0.15592   0.26393   0.00000  Uiso   1.00
C158   C     0.84768   0.32308   0.24133   0.00000  Uiso   1.00
C159   C     0.81491   0.01153   0.26207   0.00000  Uiso   1.00
C160   C     0.82250   0.05598   0.25968   0.00000  Uiso   1.00
C161   C     0.84317   0.27793   0.24083   0.00000  Uiso   1.00
C162   C     0.80451   0.24925   0.47898   0.00000  Uiso   1.00
C163   C     0.85172   0.14811   0.12956   0.00000  Uiso   1.00
C164   C     0.81423   0.18393   0.37094   0.00000  Uiso   1.00
C165   C     0.87615   0.09802   0.01385   0.00000  Uiso   1.00
C166   C     0.85612   0.14262   0.08183   0.00000  Uiso   1.00
C167   C     0.79879   0.23375   0.43728   0.00000  Uiso   1.00
C168   C     0.99340   0.11475   0.32867   0.00000  Uiso   1.00
C169   C     0.73676   0.01645   0.29245   0.00000  Uiso   1.00
C170   C     0.79977   0.19006   0.09072   0.00000  Uiso   1.00
C171   C     0.79918   0.05526   0.39310   0.00000  Uiso   1.00
C172   C     0.69205   0.24815   0.22668   0.00000  Uiso   1.00
C173   C     0.81839   0.22447   0.00395   0.00000  Uiso   1.00
C174   C     0.82256   0.18194   0.48984   0.00000  Uiso   1.00
C175   C     0.81645   0.16564   0.44706   0.00000  Uiso   1.00
C176   C     0.83628   0.15614   0.01548   0.00000  Uiso   1.00
C177   C     0.85375   0.11957   0.49342   0.00000  Uiso   1.00
C178   C     0.84574   0.10297   0.45270   0.00000  Uiso   1.00
C179   C     0.82148   0.12293   0.43267   0.00000  Uiso   1.00
H180   H     0.89542   0.09307   0.07305   0.00000  Uiso   1.00
H181   H     0.99929   0.14378   0.35021   0.00000  Uiso   1.00
H182   H     0.68924   0.09867   0.31787   0.00000  Uiso   1.00
H183   H     0.76425   0.29992   0.25380   0.00000  Uiso   1.00
H184   H     0.70792   0.32990   0.30969   0.00000  Uiso   1.00
H185   H     0.72923   0.02915   0.26440   0.00000  Uiso   1.00
H186   H     0.74443   0.04250   0.31668   0.00000  Uiso   1.00
H187   H     0.77075   0.19116   0.08055   0.00000  Uiso   1.00
H188   H     0.77178   0.11052   0.40091   0.00000  Uiso   1.00
H189   H     0.77931   0.04267   0.36968   0.00000  Uiso   1.00
H190   H     0.78508   0.04070   0.42499   0.00000  Uiso   1.00
H191   H     0.87864   0.00572   0.22534   0.00000  Uiso   1.00
H192   H     0.83183   0.04675   0.37760   0.00000  Uiso   1.00
H193   H     0.68307   0.20209   0.17688   0.00000  Uiso   1.00
H194   H     0.71750   0.26686   0.20330   0.00000  Uiso   1.00
H195   H     0.70041   0.25075   0.25926   0.00000  Uiso   1.00
H196   H     0.99474   0.26102   0.23154   0.00000  Uiso   1.00
H197   H     0.85557   0.07278   0.43881   0.00000  Uiso   1.00
H198   H     0.89075   0.07075   0.49662   0.00000  Uiso   1.00
H199   H     0.79121   0.25497   0.41722   0.00000  Uiso   1.00
H200   H     0.82752   0.23977   0.03338   0.00000  Uiso   1.00
H201   H     0.80072   0.28152   0.49084   0.00000  Uiso   1.00
H202   H     0.97086   0.09835   0.27134   0.00000  Uiso   1.00
H203   H     0.96723   0.09380   0.34860   0.00000  Uiso   1.00
N204   N     0.98098   0.12436   0.29019   0.00000  Uiso   1.00
N205   N     0.77172   0.32473   0.27553   0.00000  Uiso   1.00
N206   N     0.80016   0.10022   0.40060   0.00000  Uiso   1.00
N207   N     0.68858   0.20509   0.20826   0.00000  Uiso   1.00
O208   O     0.83333   0.16667   0.25000   0.00000  Uiso   1.00
O209   O     0.82118   0.12637   0.15458   0.00000  Uiso   1.00
O210   O     0.79607   0.20391   0.34968   0.00000  Uiso   1.00
O211   O     0.87491   0.17759   0.14606   0.00000  Uiso   1.00
O212   O     0.84118   0.15880   0.34968   0.00000  Uiso   1.00
O213   O     0.80463   0.21053   0.12502   0.00000  Uiso   1.00
O214   O     0.84597   0.08019   0.28213   0.00000  Uiso   1.00
O215   O     0.81298   0.26085   0.27013   0.00000  Uiso   1.00
O216   O     0.74078   0.13291   0.23413   0.00000  Uiso   1.00
O217   O     0.93360   0.19272   0.21360   0.00000  Uiso   1.00
O218   O     0.73738   0.18878   0.28213   0.00000  Uiso   1.00
O219   O     0.92158   0.15226   0.27013   0.00000  Uiso   1.00
O220   O     0.80426   0.06944   0.23413   0.00000  Uiso   1.00
O221   O     0.87012   0.25620   0.21360   0.00000  Uiso   1.00
Zn222  Zn    0.86005   0.13994   0.28734   0.00000  Uiso   1.00
Zn223  Zn    0.80046   0.12458   0.21875   0.00000  Uiso   1.00
Zn224  Zn    0.87723   0.19775   0.20657   0.00000  Uiso   1.00
Zn225  Zn    0.79560   0.20439   0.28733   0.00000  Uiso   1.00
C226   C     0.05306   0.49325   0.25944   0.00000  Uiso   1.00
C227   C     0.16641   0.49808   0.06200   0.00000  Uiso   1.00
C228   C     0.21200   0.44390   0.05731   0.00000  Uiso   1.00
C229   C     0.28064   0.50693   0.24003   0.00000  Uiso   1.00
C230   C     0.14070   0.52651   0.41965   0.00000  Uiso   1.00
C231   C     0.32637   0.51087   0.23782   0.00000  Uiso   1.00
C232   C     0.00774   0.48925   0.26393   0.00000  Uiso   1.00
C233   C     0.18101   0.65641   0.24133   0.00000  Uiso   1.00
C234   C     0.14825   0.34486   0.26207   0.00000  Uiso   1.00
C235   C     0.15584   0.38931   0.25968   0.00000  Uiso   1.00
C236   C     0.17651   0.61126   0.24083   0.00000  Uiso   1.00
C237   C     0.13785   0.58258   0.47898   0.00000  Uiso   1.00
C238   C     0.18506   0.48144   0.12956   0.00000  Uiso   1.00
C239   C     0.14756   0.51726   0.37094   0.00000  Uiso   1.00
C240   C     0.20949   0.43135   0.01385   0.00000  Uiso   1.00
C241   C     0.18945   0.47595   0.08183   0.00000  Uiso   1.00
C242   C     0.13212   0.56709   0.43728   0.00000  Uiso   1.00
C243   C     0.32673   0.44808   0.32867   0.00000  Uiso   1.00
C244   C     0.07009   0.34979   0.29245   0.00000  Uiso   1.00
C245   C     0.13311   0.52339   0.09072   0.00000  Uiso   1.00
C246   C     0.13252   0.38859   0.39310   0.00000  Uiso   1.00
C247   C     0.02539   0.58148   0.22668   0.00000  Uiso   1.00
C248   C     0.15172   0.55781   0.00395   0.00000  Uiso   1.00
C249   C     0.15589   0.51528   0.48984   0.00000  Uiso   1.00
C250   C     0.14979   0.49898   0.44706   0.00000  Uiso   1.00
C251   C     0.16961   0.48947   0.01548   0.00000  Uiso   1.00
C252   C     0.18708   0.45290   0.49342   0.00000  Uiso   1.00
C253   C     0.17907   0.43630   0.45270   0.00000  Uiso   1.00
C254   C     0.15481   0.45626   0.43267   0.00000  Uiso   1.00
H255   H     0.22875   0.42640   0.07305   0.00000  Uiso   1.00
H256   H     0.33262   0.47712   0.35021   0.00000  Uiso   1.00
H257   H     0.02257   0.43200   0.31787   0.00000  Uiso   1.00
H258   H     0.09758   0.63325   0.25380   0.00000  Uiso   1.00
H259   H     0.04126   0.66324   0.30969   0.00000  Uiso   1.00
H260   H     0.06256   0.36248   0.26440   0.00000  Uiso   1.00
H261   H     0.07776   0.37583   0.31668   0.00000  Uiso   1.00
H262   H     0.10408   0.52450   0.08055   0.00000  Uiso   1.00
H263   H     0.10511   0.44385   0.40091   0.00000  Uiso   1.00
H264   H     0.11264   0.37600   0.36968   0.00000  Uiso   1.00
H265   H     0.11841   0.37403   0.42499   0.00000  Uiso   1.00
H266   H     0.21198   0.33906   0.22534   0.00000  Uiso   1.00
H267   H     0.16516   0.38008   0.37760   0.00000  Uiso   1.00
H268   H     0.01640   0.53542   0.17688   0.00000  Uiso   1.00
H269   H     0.05084   0.60019   0.20330   0.00000  Uiso   1.00
H270   H     0.03375   0.58409   0.25926   0.00000  Uiso   1.00
H271   H     0.32807   0.59435   0.23154   0.00000  Uiso   1.00
H272   H     0.18890   0.40611   0.43881   0.00000  Uiso   1.00
H273   H     0.22408   0.40409   0.49662   0.00000  Uiso   1.00
H274   H     0.12454   0.58831   0.41722   0.00000  Uiso   1.00
H275   H     0.16086   0.57311   0.03338   0.00000  Uiso   1.00
H276   H     0.13406   0.61485   0.49084   0.00000  Uiso   1.00
H277   H     0.30419   0.43169   0.27134   0.00000  Uiso   1.00
H278   H     0.30056   0.42713   0.34860   0.00000  Uiso   1.00
N279   N     0.31431   0.45769   0.29019   0.00000  Uiso   1.00
N280   N     0.10505   0.65806   0.27553   0.00000  Uiso   1.00
N281   N     0.13350   0.43356   0.40060   0.00000  Uiso   1.00
N282   N     0.02191   0.53843   0.20826   0.00000  Uiso   1.00
O283   O     0.16667   0.50000   0.25000   0.00000  Uiso   1.00
O284   O     0.15451   0.45970   0.15458   0.00000  Uiso   1.00
O285   O     0.12940   0.53724   0.34968   0.00000  Uiso   1.00
O286   O     0.20824   0.51092   0.14606   0.00000  Uiso   1.00
O287   O     0.17451   0.49213   0.34968   0.00000  Uiso   1.00
O288   O     0.13796   0.54386   0.12502   0.00000  Uiso   1.00
O289   O     0.17930   0.41352   0.28213   0.00000  Uiso   1.00
O290   O     0.14632   0.59418   0.27013   0.00000  Uiso   1.00
O291   O     0.07412   0.46625   0.23413   0.00000  Uiso   1.00
O292   O     0.26693   0.52605   0.21360   0.00000  Uiso   1.00
O293   O     0.07071   0.52211   0.28213   0.00000  Uiso   1.00
O294   O     0.25491   0.48559   0.27013   0.00000  Uiso   1.00
O295   O     0.13760   0.40277   0.23413   0.00000  Uiso   1.00
O296   O     0.20345   0.58953   0.21360   0.00000  Uiso   1.00
Zn297  Zn    0.19338   0.47327   0.28734   0.00000  Uiso   1.00
Zn298  Zn    0.13379   0.45791   0.21875   0.00000  Uiso   1.00
Zn299  Zn    0.21056   0.53109   0.20657   0.00000  Uiso   1.00
Zn300  Zn    0.12893   0.53773   0.28733   0.00000  Uiso   1.00
C301   C     0.38639   0.49325   0.25944   0.00000  Uiso   1.00
C302   C     0.49974   0.49808   0.06200   0.00000  Uiso   1.00
C303   C     0.54533   0.44390   0.05731   0.00000  Uiso   1.00
C304   C     0.61397   0.50693   0.24003   0.00000  Uiso   1.00
C305   C     0.47403   0.52651   0.41965   0.00000  Uiso   1.00
C306   C     0.65970   0.51087   0.23782   0.00000  Uiso   1.00
C307   C     0.34107   0.48925   0.26393   0.00000  Uiso   1.00
C308   C     0.51434   0.65641   0.24133   0.00000  Uiso   1.00
C309   C     0.48158   0.34486   0.26207   0.00000  Uiso   1.00
C310   C     0.48917   0.38931   0.25968   0.00000  Uiso   1.00
C311   C     0.50984   0.61126   0.24083   0.00000  Uiso   1.00
C312   C     0.47118   0.58258   0.47898   0.00000  Uiso   1.00
C313   C     0.51839   0.48144   0.12956   0.00000  Uiso   1.00
C314   C     0.48090   0.51726   0.37094   0.00000  Uiso   1.00
C315   C     0.54282   0.43135   0.01385   0.00000  Uiso   1.00
C316   C     0.52279   0.47595   0.08183   0.00000  Uiso   1.00
C317   C     0.46545   0.56709   0.43728   0.00000  Uiso   1.00
C318   C     0.66007   0.44808   0.32867   0.00000  Uiso   1.00
C319   C     0.40343   0.34979   0.29245   0.00000  Uiso   1.00
C320   C     0.46644   0.52339   0.09072   0.00000  Uiso   1.00
C321   C     0.46585   0.38859   0.39310   0.00000  Uiso   1.00
C322   C     0.35872   0.58148   0.22668   0.00000  Uiso   1.00
C323   C     0.48505   0.55781   0.00395   0.00000  Uiso   1.00
C324   C     0.48922   0.51528   0.48984   0.00000  Uiso   1.00
C325   C     0.48312   0.49898   0.44706   0.00000  Uiso   1.00
C326   C     0.50294   0.48947   0.01548   0.00000  Uiso   1.00
C327   C     0.52041   0.45290   0.49342   0.00000  Uiso   1.00
C328   C     0.51240   0.43630   0.45270   0.00000  Uiso   1.00
C329   C     0.48815   0.45626   0.43267   0.00000  Uiso   1.00
H330   H     0.56208   0.42640   0.07305   0.00000  Uiso   1.00
H331   H     0.66595   0.47712   0.35021   0.00000  Uiso   1.00
H332   H     0.35590   0.43200   0.31787   0.00000  Uiso   1.00
H333   H     0.43091   0.63325   0.25380   0.00000  Uiso   1.00
H334   H     0.37459   0.66324   0.30969   0.00000  Uiso   1.00
H335   H     0.39590   0.36248   0.26440   0.00000  Uiso   1.00
H336   H     0.41109   0.37583   0.31668   0.00000  Uiso   1.00
H337   H     0.43742   0.52450   0.08055   0.00000  Uiso   1.00
H338   H     0.43845   0.44385   0.40091   0.00000  Uiso   1.00
H339   H     0.44597   0.37600   0.36968   0.00000  Uiso   1.00
H340   H     0.45175   0.37403   0.42499   0.00000  Uiso   1.00
H341   H     0.54531   0.33906   0.22534   0.00000  Uiso   1.00
H342   H     0.49849   0.38008   0.37760   0.00000  Uiso   1.00
H343   H     0.34973   0.53542   0.17688   0.00000  Uiso   1.00
H344   H     0.38417   0.60019   0.20330   0.00000  Uiso   1.00
H345   H     0.36708   0.58409   0.25926   0.00000  Uiso   1.00
H346   H     0.66140   0.59435   0.23154   0.00000  Uiso   1.00
H347   H     0.52223   0.40611   0.43881   0.00000  Uiso   1.00
H348   H     0.55741   0.40409   0.49662   0.00000  Uiso   1.00
H349   H     0.45787   0.58831   0.41722   0.00000  Uiso   1.00
H350   H     0.49419   0.57311   0.03338   0.00000  Uiso   1.00
H351   H     0.46739   0.61485   0.49084   0.00000  Uiso   1.00
H352   H     0.63752   0.43169   0.27134   0.00000  Uiso   1.00
H353   H     0.63389   0.42713   0.34860   0.00000  Uiso   1.00
N354   N     0.64764   0.45769   0.29019   0.00000  Uiso   1.00
N355   N     0.43838   0.65806   0.27553   0.00000  Uiso   1.00
N356   N     0.46683   0.43356   0.40060   0.00000  Uiso   1.00
N357   N     0.35525   0.53843   0.20826   0.00000  Uiso   1.00
O358   O     0.50000   0.50000   0.25000   0.00000  Uiso   1.00
O359   O     0.48784   0.45970   0.15458   0.00000  Uiso   1.00
O360   O     0.46274   0.53724   0.34968   0.00000  Uiso   1.00
O361   O     0.54157   0.51092   0.14606   0.00000  Uiso   1.00
O362   O     0.50785   0.49213   0.34968   0.00000  Uiso   1.00
O363   O     0.47129   0.54386   0.12502   0.00000  Uiso   1.00
O364   O     0.51264   0.41352   0.28213   0.00000  Uiso   1.00
O365   O     0.47965   0.59418   0.27013   0.00000  Uiso   1.00
O366   O     0.40745   0.46625   0.23413   0.00000  Uiso   1.00
O367   O     0.60026   0.52605   0.21360   0.00000  Uiso   1.00
O368   O     0.40405   0.52211   0.28213   0.00000  Uiso   1.00
O369   O     0.58824   0.48559   0.27013   0.00000  Uiso   1.00
O370   O     0.47093   0.40277   0.23413   0.00000  Uiso   1.00
O371   O     0.53678   0.58953   0.21360   0.00000  Uiso   1.00
Zn372  Zn    0.52672   0.47327   0.28734   0.00000  Uiso   1.00
Zn373  Zn    0.46713   0.45791   0.21875   0.00000  Uiso   1.00
Zn374  Zn    0.54389   0.53109   0.20657   0.00000  Uiso   1.00
Zn375  Zn    0.46226   0.53773   0.28733   0.00000  Uiso   1.00
C376   C     0.71973   0.49325   0.25944   0.00000  Uiso   1.00
C377   C     0.83308   0.49808   0.06200   0.00000  Uiso   1.00
C378   C     0.87867   0.44390   0.05731   0.00000  Uiso   1.00
C379   C     0.94730   0.50693   0.24003   0.00000  Uiso   1.00
C380   C     0.80736   0.52651   0.41965   0.00000  Uiso   1.00
C381   C     0.99303   0.51087   0.23782   0.00000  Uiso   1.00
C382   C     0.67440   0.48925   0.26393   0.00000  Uiso   1.00
C383   C     0.84768   0.65641   0.24133   0.00000  Uiso   1.00
C384   C     0.81491   0.34486   0.26207   0.00000  Uiso   1.00
C385   C     0.82250   0.38931   0.25968   0.00000  Uiso   1.00
C386   C     0.84317   0.61126   0.24083   0.00000  Uiso   1.00
C387   C     0.80451   0.58258   0.47898   0.00000  Uiso   1.00
C388   C     0.85172   0.48144   0.12956   0.00000  Uiso   1.00
C389   C     0.81423   0.51726   0.37094   0.00000  Uiso   1.00
C390   C     0.87615   0.43135   0.01385   0.00000  Uiso   1.00
C391   C     0.85612   0.47595   0.08183   0.00000  Uiso   1.00
C392   C     0.79879   0.56709   0.43728   0.00000  Uiso   1.00
C393   C     0.99340   0.44808   0.32867   0.00000  Uiso   1.00
C394   C     0.73676   0.34979   0.29245   0.00000  Uiso   1.00
C395   C     0.79977   0.52339   0.09072   0.00000  Uiso   1.00
C396   C     0.79918   0.38859   0.39310   0.00000  Uiso   1.00
C397   C     0.69205   0.58148   0.22668   0.00000  Uiso   1.00
C398   C     0.81839   0.55781   0.00395   0.00000  Uiso   1.00
C399   C     0.82256   0.51528   0.48984   0.00000  Uiso   1.00
C400   C     0.81645   0.49898   0.44706   0.00000  Uiso   1.00
C401   C     0.83628   0.48947   0.01548   0.00000  Uiso   1.00
C402   C     0.85375   0.45290   0.49342   0.00000  Uiso   1.00
C403   C     0.84574   0.43630   0.45270   0.00000  Uiso   1.00
C404   C     0.82148   0.45626   0.43267   0.00000  Uiso   1.00
H405   H     0.89542   0.42640   0.07305   0.00000  Uiso   1.00
H406   H     0.99929   0.47712   0.35021   0.00000  Uiso   1.00
H407   H     0.68924   0.43200   0.31787   0.00000  Uiso   1.00
H408   H     0.76425   0.63325   0.25380   0.00000  Uiso   1.00
H409   H     0.70792   0.66324   0.30969   0.00000  Uiso   1.00
H410   H     0.72923   0.36248   0.26440   0.00000  Uiso   1.00
H411   H     0.74443   0.37583   0.31668   0.00000  Uiso   1.00
H412   H     0.77075   0.52450   0.08055   0.00000  Uiso   1.00
H413   H     0.77178   0.44385   0.40091   0.00000  Uiso   1.00
H414   H     0.77931   0.37600   0.36968   0.00000  Uiso   1.00
H415   H     0.78508   0.37403   0.42499   0.00000  Uiso   1.00
H416   H     0.87864   0.33906   0.22534   0.00000  Uiso   1.00
H417   H     0.83183   0.38008   0.37760   0.00000  Uiso   1.00
H418   H     0.68307   0.53542   0.17688   0.00000  Uiso   1.00
H419   H     0.71750   0.60019   0.20330   0.00000  Uiso   1.00
H420   H     0.70041   0.58409   0.25926   0.00000  Uiso   1.00
H421   H     0.99474   0.59435   0.23154   0.00000  Uiso   1.00
H422   H     0.85557   0.40611   0.43881   0.00000  Uiso   1.00
H423   H     0.89075   0.40409   0.49662   0.00000  Uiso   1.00
H424   H     0.79121   0.58831   0.41722   0.00000  Uiso   1.00
H425   H     0.82752   0.57311   0.03338   0.00000  Uiso   1.00
H426   H     0.80072   0.61485   0.49084   0.00000  Uiso   1.00
H427   H     0.97086   0.43169   0.27134   0.00000  Uiso   1.00
H428   H     0.96723   0.42713   0.34860   0.00000  Uiso   1.00
N429   N     0.98098   0.45769   0.29019   0.00000  Uiso   1.00
N430   N     0.77172   0.65806   0.27553   0.00000  Uiso   1.00
N431   N     0.80016   0.43356   0.40060   0.00000  Uiso   1.00
N432   N     0.68858   0.53843   0.20826   0.00000  Uiso   1.00
O433   O     0.83333   0.50000   0.25000   0.00000  Uiso   1.00
O434   O     0.82118   0.45970   0.15458   0.00000  Uiso   1.00
O435   O     0.79607   0.53724   0.34968   0.00000  Uiso   1.00
O436   O     0.87491   0.51092   0.14606   0.00000  Uiso   1.00
O437   O     0.84118   0.49213   0.34968   0.00000  Uiso   1.00
O438   O     0.80463   0.54386   0.12502   0.00000  Uiso   1.00
O439   O     0.84597   0.41352   0.28213   0.00000  Uiso   1.00
O440   O     0.81298   0.59418   0.27013   0.00000  Uiso   1.00
O441   O     0.74078   0.46625   0.23413   0.00000  Uiso   1.00
O442   O     0.93360   0.52605   0.21360   0.00000  Uiso   1.00
O443   O     0.73738   0.52211   0.28213   0.00000  Uiso   1.00
O444   O     0.92158   0.48559   0.27013   0.00000  Uiso   1.00
O445   O     0.80426   0.40277   0.23413   0.00000  Uiso   1.00
O446   O     0.87012   0.58953   0.21360   0.00000  Uiso   1.00
Zn447  Zn    0.86005   0.47327   0.28734   0.00000  Uiso   1.00
Zn448  Zn    0.80046   0.45791   0.21875   0.00000  Uiso   1.00
Zn449  Zn    0.87723   0.53109   0.20657   0.00000  Uiso   1.00
Zn450  Zn    0.79560   0.53773   0.28733   0.00000  Uiso   1.00
C451   C     0.05306   0.82659   0.25944   0.00000  Uiso   1.00
C452   C     0.16641   0.83141   0.06200   0.00000  Uiso   1.00
C453   C     0.21200   0.77723   0.05731   0.00000  Uiso   1.00
C454   C     0.28064   0.84026   0.24003   0.00000  Uiso   1.00
C455   C     0.14070   0.85984   0.41965   0.00000  Uiso   1.00
C456   C     0.32637   0.84420   0.23782   0.00000  Uiso   1.00
C457   C     0.00774   0.82258   0.26393   0.00000  Uiso   1.00
C458   C     0.18101   0.98975   0.24133   0.00000  Uiso   1.00
C459   C     0.14825   0.67819   0.26207   0.00000  Uiso   1.00
C460   C     0.15584   0.72264   0.25968   0.00000  Uiso   1.00
C461   C     0.17651   0.94460   0.24083   0.00000  Uiso   1.00
C462   C     0.13785   0.91591   0.47898   0.00000  Uiso   1.00
C463   C     0.18506   0.81478   0.12956   0.00000  Uiso   1.00
C464   C     0.14756   0.85059   0.37094   0.00000  Uiso   1.00
C465   C     0.20949   0.76468   0.01385   0.00000  Uiso   1.00
C466   C     0.18945   0.80929   0.08183   0.00000  Uiso   1.00
C467   C     0.13212   0.90042   0.43728   0.00000  Uiso   1.00
C468   C     0.32673   0.78141   0.32867   0.00000  Uiso   1.00
C469   C     0.07009   0.68312   0.29245   0.00000  Uiso   1.00
C470   C     0.13311   0.85672   0.09072   0.00000  Uiso   1.00
C471   C     0.13252   0.72192   0.39310   0.00000  Uiso   1.00
C472   C     0.02539   0.91481   0.22668   0.00000  Uiso   1.00
C473   C     0.15172   0.89114   0.00395   0.00000  Uiso   1.00
C474   C     0.15589   0.84861   0.48984   0.00000  Uiso   1.00
C475   C     0.14979   0.83231   0.44706   0.00000  Uiso   1.00
C476   C     0.16961   0.82280   0.01548   0.00000  Uiso   1.00
C477   C     0.18708   0.78623   0.49342   0.00000  Uiso   1.00
C478   C     0.17907   0.76964   0.45270   0.00000  Uiso   1.00
C479   C     0.15481   0.78960   0.43267   0.00000  Uiso   1.00
H480   H     0.22875   0.75973   0.07305   0.00000  Uiso   1.00
H481   H     0.33262   0.81045   0.35021   0.00000  Uiso   1.00
H482   H     0.02257   0.76534   0.31787   0.00000  Uiso   1.00
H483   H     0.09758   0.96659   0.25380   0.00000  Uiso   1.00
H484   H     0.04126   0.99657   0.30969   0.00000  Uiso   1.00
H485   H     0.06256   0.69582   0.26440   0.00000  Uiso   1.00
H486   H     0.07776   0.70917   0.31668   0.00000  Uiso   1.00
H487   H     0.10408   0.85783   0.08055   0.00000  Uiso   1.00
H488   H     0.10511   0.77718   0.40091   0.00000  Uiso   1.00
H489   H     0.11264   0.70934   0.36968   0.00000  Uiso   1.00
H490   H     0.11841   0.70737   0.42499   0.00000  Uiso   1.00
H491   H     0.21198   0.67239   0.22534   0.00000  Uiso   1.00
H492   H     0.16516   0.71341   0.37760   0.00000  Uiso   1.00
H493   H     0.01640   0.86876   0.17688   0.00000  Uiso   1.00
H494   H     0.05084   0.93353   0.20330   0.00000  Uiso   1.00
H495   H     0.03375   0.91742   0.25926   0.00000  Uiso   1.00
H496   H     0.32807   0.92768   0.23154   0.00000  Uiso   1.00
H497   H     0.18890   0.73944   0.43881   0.00000  Uiso   1.00
H498   H     0.22408   0.73742   0.49662   0.00000  Uiso   1.00
H499   H     0.12454   0.92164   0.41722   0.00000  Uiso   1.00
H500   H     0.16086   0.90644   0.03338   0.00000  Uiso   1.00
H501   H     0.13406   0.94819   0.49084   0.00000  Uiso   1.00
H502   H     0.30419   0.76502   0.27134   0.00000  Uiso   1.00
H503   H     0.30056   0.76046   0.34860   0.00000  Uiso   1.00
N504   N     0.31431   0.79102   0.29019   0.00000  Uiso   1.00
N505   N     0.10505   0.99140   0.27553   0.00000  Uiso   1.00
N506   N     0.13350   0.76689   0.40060   0.00000  Uiso   1.00
N507   N     0.02191   0.87176   0.20826   0.00000  Uiso   1.00
O508   O     0.16667   0.83333   0.25000   0.00000  Uiso   1.00
O509   O     0.15451   0.79304   0.15458   0.00000  Uiso   1.00
O510   O     0.12940   0.87058   0.34968   0.00000  Uiso   1.00
O511   O     0.20824   0.84425   0.14606   0.00000  Uiso   1.00
O512   O     0.17451   0.82546   0.34968   0.00000  Uiso   1.00
O513   O     0.13796   0.87720   0.12502   0.00000  Uiso   1.00
O514   O     0.17930   0.74686   0.28213   0.00000  Uiso   1.00
O515   O     0.14632   0.92751   0.27013   0.00000  Uiso   1.00
O516   O     0.07412   0.79958   0.23413   0.00000  Uiso   1.00
O517   O     0.26693   0.85939   0.21360   0.00000  Uiso   1.00
O518   O     0.07071   0.85544   0.28213   0.00000  Uiso   1.00
O519   O     0.25491   0.81892   0.27013   0.00000  Uiso   1.00
O520   O     0.13760   0.73610   0.23413   0.00000  Uiso   1.00
O521   O     0.20345   0.92286   0.21360   0.00000  Uiso   1.00
Zn522  Zn    0.19338   0.80661   0.28734   0.00000  Uiso   1.00
Zn523  Zn    0.13379   0.79124   0.21875   0.00000  Uiso   1.00
Zn524  Zn    0.21056   0.86442   0.20657   0.00000  Uiso   1.00
Zn525  Zn    0.12893   0.87106   0.28733   0.00000  Uiso   1.00
C526   C     0.38639   0.82659   0.25944   0.00000  Uiso   1.00
C527   C     0.49974   0.83141   0.06200   0.00000  Uiso   1.00
C528   C     0.54533   0.77723   0.05731   0.00000  Uiso   1.00
C529   C     0.61397   0.84026   0.24003   0.00000  Uiso   1.00
C530   C     0.47403   0.85984   0.41965   0.00000  Uiso   1.00
C531   C     0.65970   0.84420   0.23782   0.00000  Uiso   1.00
C532   C     0.34107   0.82258   0.26393   0.00000  Uiso   1.00
C533   C     0.51434   0.98975   0.24133   0.00000  Uiso   1.00
C534   C     0.48158   0.67819   0.26207   0.00000  Uiso   1.00
C535   C     0.48917   0.72264   0.25968   0.00000  Uiso   1.00
C536   C     0.50984   0.94460   0.24083   0.00000  Uiso   1.00
C537   C     0.47118   0.91591   0.47898   0.00000  Uiso   1.00
C538   C     0.51839   0.81478   0.12956   0.00000  Uiso   1.00
C539   C     0.48090   0.85059   0.37094   0.00000  Uiso   1.00
C540   C     0.54282   0.76468   0.01385   0.00000  Uiso   1.00
C541   C     0.52279   0.80929   0.08183   0.00000  Uiso   1.00
C542   C     0.46545   0.90042   0.43728   0.00000  Uiso   1.00
C543   C     0.66007   0.78141   0.32867   0.00000  Uiso   1.00
C544   C     0.40343   0.68312   0.29245   0.00000  Uiso   1.00
C545   C     0.46644   0.85672   0.09072   0.00000  Uiso   1.00
C546   C     0.46585   0.72192   0.39310   0.00000  Uiso   1.00
C547   C     0.35872   0.91481   0.22668   0.00000  Uiso   1.00
C548   C     0.48505   0.89114   0.00395   0.00000  Uiso   1.00
C549   C     0.48922   0.84861   0.48984   0.00000  Uiso   1.00
C550   C     0.48312   0.83231   0.44706   0.00000  Uiso   1.00
C551   C     0.50294   0.82280   0.01548   0.00000  Uiso   1.00
C552   C     0.52041   0.78623   0.49342   0.00000  Uiso   1.00
C553   C     0.51240   0.76964   0.45270   0.00000  Uiso   1.00
C554   C     0.48815   0.78960   0.43267   0.00000  Uiso   1.00
H555   H     0.56208   0.75973   0.07305   0.00000  Uiso   1.00
H556   H     0.66595   0.81045   0.35021   0.00000  Uiso   1.00
H557   H     0.35590   0.76534   0.31787   0.00000  Uiso   1.00
H558   H     0.43091   0.96659   0.25380   0.00000  Uiso   1.00
H559   H     0.37459   0.99657   0.30969   0.00000  Uiso   1.00
H560   H     0.39590   0.69582   0.26440   0.00000  Uiso   1.00
H561   H     0.41109   0.70917   0.31668   0.00000  Uiso   1.00
H562   H     0.43742   0.85783   0.08055   0.00000  Uiso   1.00
H563   H     0.43845   0.77718   0.40091   0.00000  Uiso   1.00
H564   H     0.44597   0.70934   0.36968   0.00000  Uiso   1.00
H565   H     0.45175   0.70737   0.42499   0.00000  Uiso   1.00
H566   H     0.54531   0.67239   0.22534   0.00000  Uiso   1.00
H567   H     0.49849   0.71341   0.37760   0.00000  Uiso   1.00
H568   H     0.34973   0.86876   0.17688   0.00000  Uiso   1.00
H569   H     0.38417   0.93353   0.20330   0.00000  Uiso   1.00
H570   H     0.36708   0.91742   0.25926   0.00000  Uiso   1.00
H571   H     0.66140   0.92768   0.23154   0.00000  Uiso   1.00
H572   H     0.52223   0.73944   0.43881   0.00000  Uiso   1.00
H573   H     0.55741   0.73742   0.49662   0.00000  Uiso   1.00
H574   H     0.45787   0.92164   0.41722   0.00000  Uiso   1.00
H575   H     0.49419   0.90644   0.03338   0.00000  Uiso   1.00
H576   H     0.46739   0.94819   0.49084   0.00000  Uiso   1.00
H577   H     0.63752   0.76502   0.27134   0.00000  Uiso   1.00
H578   H     0.63389   0.76046   0.34860   0.00000  Uiso   1.00
N579   N     0.64764   0.79102   0.29019   0.00000  Uiso   1.00
N580   N     0.43838   0.99140   0.27553   0.00000  Uiso   1.00
N581   N     0.46683   0.76689   0.40060   0.00000  Uiso   1.00
N582   N     0.35525   0.87176   0.20826   0.00000  Uiso   1.00
O583   O     0.50000   0.83333   0.25000   0.00000  Uiso   1.00
O584   O     0.48784   0.79304   0.15458   0.00000  Uiso   1.00
O585   O     0.46274   0.87058   0.34968   0.00000  Uiso   1.00
O586   O     0.54157   0.84425   0.14606   0.00000  Uiso   1.00
O587   O     0.50785   0.82546   0.34968   0.00000  Uiso   1.00
O588   O     0.47129   0.87720   0.12502   0.00000  Uiso   1.00
O589   O     0.51264   0.74686   0.28213   0.00000  Uiso   1.00
O590   O     0.47965   0.92751   0.27013   0.00000  Uiso   1.00
O591   O     0.40745   0.79958   0.23413   0.00000  Uiso   1.00
O592   O     0.60026   0.85939   0.21360   0.00000  Uiso   1.00
O593   O     0.40405   0.85544   0.28213   0.00000  Uiso   1.00
O594   O     0.58824   0.81892   0.27013   0.00000  Uiso   1.00
O595   O     0.47093   0.73610   0.23413   0.00000  Uiso   1.00
O596   O     0.53678   0.92286   0.21360   0.00000  Uiso   1.00
Zn597  Zn    0.52672   0.80661   0.28734   0.00000  Uiso   1.00
Zn598  Zn    0.46713   0.79124   0.21875   0.00000  Uiso   1.00
Zn599  Zn    0.54389   0.86442   0.20657   0.00000  Uiso   1.00
Zn600  Zn    0.46226   0.87106   0.28733   0.00000  Uiso   1.00
C601   C     0.71973   0.82659   0.25944   0.00000  Uiso   1.00
C602   C     0.83308   0.83141   0.06200   0.00000  Uiso   1.00
C603   C     0.87867   0.77723   0.05731   0.00000  Uiso   1.00
C604   C     0.94730   0.84026   0.24003   0.00000  Uiso   1.00
C605   C     0.80736   0.85984   0.41965   0.00000  Uiso   1.00
C606   C     0.99303   0.84420   0.23782   0.00000  Uiso   1.00
C607   C     0.67440   0.82258   0.26393   0.00000  Uiso   1.00
C608   C     0.84768   0.98975   0.24133   0.00000  Uiso   1.00
C609   C     0.81491   0.67819   0.26207   0.00000  Uiso   1.00
C610   C     0.82250   0.72264   0.25968   0.00000  Uiso   1.00
C611   C     0.84317   0.94460   0.24083   0.00000  Uiso   1.00
C612   C     0.80451   0.91591   0.47898   0.00000  Uiso   1.00
C613   C     0.85172   0.81478   0.12956   0.00000  Uiso   1.00
C614   C     0.81423   0.85059   0.37094   0.00000  Uiso   1.00
C615   C     0.87615   0.76468   0.01385   0.00000  Uiso   1.00
C616   C     0.85612   0.80929   0.08183   0.00000  Uiso   1.00
C617   C     0.79879   0.90042   0.43728   0.00000  Uiso   1.00
C618   C     0.99340   0.78141   0.32867   0.00000  Uiso   1.00
C619   C     0.73676   0.68312   0.29245   0.00000  Uiso   1.00
C620   C     0.79977   0.85672   0.09072   0.00000  Uiso   1.00
C621   C     0.79918   0.72192   0.39310   0.00000  Uiso   1.00
C622   C     0.69205   0.91481   0.22668   0.00000  Uiso   1.00
C623   C     0.81839   0.89114   0.00395   0.00000  Uiso   1.00
C624   C     0.82256   0.84861   0.48984   0.00000  Uiso   1.00
C625   C     0.81645   0.83231   0.44706   0.00000  Uiso   1.00
C626   C     0.83628   0.82280   0.01548   0.00000  Uiso   1.00
C627   C     0.85375   0.78623   0.49342   0.00000  Uiso   1.00
C628   C     0.84574   0.76964   0.45270   0.00000  Uiso   1.00
C629   C     0.82148   0.78960   0.43267   0.00000  Uiso   1.00
H630   H     0.89542   0.75973   0.07305   0.00000  Uiso   1.00
H631   H     0.99929   0.81045   0.35021   0.00000  Uiso   1.00
H632   H     0.68924   0.76534   0.31787   0.00000  Uiso   1.00
H633   H     0.76425   0.96659   0.25380   0.00000  Uiso   1.00
H634   H     0.70792   0.99657   0.30969   0.00000  Uiso   1.00
H635   H     0.72923   0.69582   0.26440   0.00000  Uiso   1.00
H636   H     0.74443   0.70917   0.31668   0.00000  Uiso   1.00
H637   H     0.77075   0.85783   0.08055   0.00000  Uiso   1.00
H638   H     0.77178   0.77718   0.40091   0.00000  Uiso   1.00
H639   H     0.77931   0.70934   0.36968   0.00000  Uiso   1.00
H640   H     0.78508   0.70737   0.42499   0.00000  Uiso   1.00
H641   H     0.87864   0.67239   0.22534   0.00000  Uiso   1.00
H642   H     0.83183   0.71341   0.37760   0.00000  Uiso   1.00
H643   H     0.68307   0.86876   0.17688   0.00000  Uiso   1.00
H644   H     0.71750   0.93353   0.20330   0.00000  Uiso   1.00
H645   H     0.70041   0.91742   0.25926   0.00000  Uiso   1.00
H646   H     0.99474   0.92768   0.23154   0.00000  Uiso   1.00
H647   H     0.85557   0.73944   0.43881   0.00000  Uiso   1.00
H648   H     0.89075   0.73742   0.49662   0.00000  Uiso   1.00
H649   H     0.79121   0.92164   0.41722   0.00000  Uiso   1.00
H650   H     0.82752   0.90644   0.03338   0.00000  Uiso   1.00
H651   H     0.80072   0.94819   0.49084   0.00000  Uiso   1.00
H652   H     0.97086   0.76502   0.27134   0.00000  Uiso   1.00
H653   H     0.96723   0.76046   0.34860   0.00000  Uiso   1.00
N654   N     0.98098   0.79102   0.29019   0.00000  Uiso   1.00
N655   N     0.77172   0.99140   0.27553   0.00000  Uiso   1.00
N656   N     0.80016   0.76689   0.40060   0.00000  Uiso   1.00
N657   N     0.68858   0.87176   0.20826   0.00000  Uiso   1.00
O658   O     0.83333   0.83333   0.25000   0.00000  Uiso   1.00
O659   O     0.82118   0.79304   0.15458   0.00000  Uiso   1.00
O660   O     0.79607   0.87058   0.34968   0.00000  Uiso   1.00
O661   O     0.87491   0.84425   0.14606   0.00000  Uiso   1.00
O662   O     0.84118   0.82546   0.34968   0.00000  Uiso   1.00
O663   O     0.80463   0.87720   0.12502   0.00000  Uiso   1.00
O664   O     0.84597   0.74686   0.28213   0.00000  Uiso   1.00
O665   O     0.81298   0.92751   0.27013   0.00000  Uiso   1.00
O666   O     0.74078   0.79958   0.23413   0.00000  Uiso   1.00
O667   O     0.93360   0.85939   0.21360   0.00000  Uiso   1.00
O668   O     0.73738   0.85544   0.28213   0.00000  Uiso   1.00
O669   O     0.92158   0.81892   0.27013   0.00000  Uiso   1.00
O670   O     0.80426   0.73610   0.23413   0.00000  Uiso   1.00
O671   O     0.87012   0.92286   0.21360   0.00000  Uiso   1.00
Zn672  Zn    0.86005   0.80661   0.28734   0.00000  Uiso   1.00
Zn673  Zn    0.80046   0.79124   0.21875   0.00000  Uiso   1.00
Zn674  Zn    0.87723   0.86442   0.20657   0.00000  Uiso   1.00
Zn675  Zn    0.79560   0.87106   0.28733   0.00000  Uiso   1.00
C676   C     0.05306   0.15992   0.75944   0.00000  Uiso   1.00
C677   C     0.16641   0.16475   0.56200   0.00000  Uiso   1.00
C678   C     0.21200   0.11056   0.55731   0.00000  Uiso   1.00
C679   C     0.28064   0.17360   0.74003   0.00000  Uiso   1.00
C680   C     0.14070   0.19318   0.91965   0.00000  Uiso   1.00
C681   C     0.32637   0.17753   0.73782   0.00000  Uiso   1.00
C682   C     0.00774   0.15592   0.76393   0.00000  Uiso   1.00
C683   C     0.18101   0.32308   0.74133   0.00000  Uiso   1.00
C684   C     0.14825   0.01153   0.76207   0.00000  Uiso   1.00
C685   C     0.15584   0.05598   0.75968   0.00000  Uiso   1.00
C686   C     0.17651   0.27793   0.74083   0.00000  Uiso   1.00
C687   C     0.13785   0.24925   0.97898   0.00000  Uiso   1.00
C688   C     0.18506   0.14811   0.62956   0.00000  Uiso   1.00
C689   C     0.14756   0.18393   0.87094   0.00000  Uiso   1.00
C690   C     0.20949   0.09802   0.51385   0.00000  Uiso   1.00
C691   C     0.18945   0.14262   0.58183   0.00000  Uiso   1.00
C692   C     0.13212   0.23375   0.93728   0.00000  Uiso   1.00
C693   C     0.32673   0.11475   0.82867   0.00000  Uiso   1.00
C694   C     0.07009   0.01645   0.79245   0.00000  Uiso   1.00
C695   C     0.13311   0.19006   0.59072   0.00000  Uiso   1.00
C696   C     0.13252   0.05526   0.89310   0.00000  Uiso   1.00
C697   C     0.02539   0.24815   0.72668   0.00000  Uiso   1.00
C698   C     0.15172   0.22447   0.50395   0.00000  Uiso   1.00
C699   C     0.15589   0.18194   0.98984   0.00000  Uiso   1.00
C700   C     0.14979   0.16564   0.94706   0.00000  Uiso   1.00
C701   C     0.16961   0.15614   0.51548   0.00000  Uiso   1.00
C702   C     0.18708   0.11957   0.99342   0.00000  Uiso   1.00
C703   C     0.17907   0.10297   0.95270   0.00000  Uiso   1.00
C704   C     0.15481   0.12293   0.93267   0.00000  Uiso   1.00
H705   H     0.22875   0.09307   0.57305   0.00000  Uiso   1.00
H706   H     0.33262   0.14378   0.85021   0.00000  Uiso   1.00
H707   H     0.02257   0.09867   0.81787   0.00000  Uiso   1.00
H708   H     0.09758   0.29992   0.75380   0.00000  Uiso   1.00
H709   H     0.04126   0.32990   0.80969   0.00000  Uiso   1.00
H710   H     0.06256   0.02915   0.76440   0.00000  Uiso   1.00
H711   H     0.07776   0.04250   0.81668   0.00000  Uiso   1.00
H712   H     0.10408   0.19116   0.58055   0.00000  Uiso   1.00
H713   H     0.10511   0.11052   0.90091   0.00000  Uiso   1.00
H714   H     0.11264   0.04267   0.86968   0.00000  Uiso   1.00
H715   H     0.11841   0.04070   0.92499   0.00000  Uiso   1.00
H716   H     0.21198   0.00572   0.72534   0.00000  Uiso   1.00
H717   H     0.16516   0.04675   0.87760   0.00000  Uiso   1.00
H718   H     0.01640   0.20209   0.67688   0.00000  Uiso   1.00
H719   H     0.05084   0.26686   0.70330   0.00000  Uiso   1.00
H720   H     0.03375   0.25075   0.75926   0.00000  Uiso   1.00
H721   H     0.32807   0.26102   0.73154   0.00000  Uiso   1.00
H722   H     0.18890   0.07278   0.93881   0.00000  Uiso   1.00
H723   H     0.22408   0.07075   0.99662   0.00000  Uiso   1.00
H724   H     0.12454   0.25497   0.91722   0.00000  Uiso   1.00
H725   H     0.16086   0.23977   0.53338   0.00000  Uiso   1.00
H726   H     0.13406   0.28152   0.99084   0.00000  Uiso   1.00
H727   H     0.30419   0.09835   0.77134   0.00000  Uiso   1.00
H728   H     0.30056   0.09380   0.84860   0.00000  Uiso   1.00
N729   N     0.31431   0.12436   0.79019   0.00000  Uiso   1.00
N730   N     0.10505   0.32473   0.77553   0.00000  Uiso   1.00
N731   N     0.13350   0.10022   0.90060   0.00000  Uiso   1.00
N732   N     0.02191   0.20509   0.70826   0.00000  Uiso   1.00
O733   O     0.16667   0.16667   0.75000   0.00000  Uiso   1.00
O734   O     0.15451   0.12637   0.65458   0.00000  Uiso   1.00
O735   O     0.12940   0.20391   0.84968   0.00000  Uiso   1.00
O736   O     0.20824   0.17759   0.64606   0.00000  Uiso   1.00
O737   O     0.17451   0.15880   0.84968   0.00000  Uiso   1.00
O738   O     0.13796   0.21053   0.62502   0.00000  Uiso   1.00
O739   O     0.17930   0.08019   0.78213   0.00000  Uiso   1.00
O740   O     0.14632   0.26085   0.77013   0.00000  Uiso   1.00
O741   O     0.07412   0.13291   0.73413   0.00000  Uiso   1.00
O742   O     0.26693   0.19272   0.71360   0.00000  Uiso   1.00
O743   O     0.07071   0.18878   0.78213   0.00000  Uiso   1.00
O744   O     0.25491   0.15226   0.77013   0.00000  Uiso   1.00
O745   O     0.13760   0.06944   0.73413   0.00000  Uiso   1.00
O746   O     0.20345   0.25620   0.71360   0.00000  Uiso   1.00
Zn747  Zn    0.19338   0.13994   0.78734   0.00000  Uiso   1.00
Zn748  Zn    0.13379   0.12458   0.71875   0.00000  Uiso   1.00
Zn749  Zn    0.21056   0.19775   0.70657   0.00000  Uiso   1.00
Zn750  Zn    0.12893   0.20439   0.78733   0.00000  Uiso   1.00
C751   C     0.38639   0.15992   0.75944   0.00000  Uiso   1.00
C752   C     0.49974   0.16475   0.56200   0.00000  Uiso   1.00
C753   C     0.54533   0.11056   0.55731   0.00000  Uiso   1.00
C754   C     0.61397   0.17360   0.74003   0.00000  Uiso   1.00
C755   C     0.47403   0.19318   0.91965   0.00000  Uiso   1.00
C756   C     0.65970   0.17753   0.73782   0.00000  Uiso   1.00
C757   C     0.34107   0.15592   0.76393   0.00000  Uiso   1.00
C758   C     0.51434   0.32308   0.74133   0.00000  Uiso   1.00
C759   C     0.48158   0.01153   0.76207   0.00000  Uiso   1.00
C760   C     0.48917   0.05598   0.75968   0.00000  Uiso   1.00
C761   C     0.50984   0.27793   0.74083   0.00000  Uiso   1.00
C762   C     0.47118   0.24925   0.97898   0.00000  Uiso   1.00
C763   C     0.51839   0.14811   0.62956   0.00000  Uiso   1.00
C764   C     0.48090   0.18393   0.87094   0.00000  Uiso   1.00
C765   C     0.54282   0.09802   0.51385   0.00000  Uiso   1.00
C766   C     0.52279   0.14262   0.58183   0.00000  Uiso   1.00
C767   C     0.46545   0.23375   0.93728   0.00000  Uiso   1.00
C768   C     0.66007   0.11475   0.82867   0.00000  Uiso   1.00
C769   C     0.40343   0.01645   0.79245   0.00000  Uiso   1.00
C770   C     0.46644   0.19006   0.59072   0.00000  Uiso   1.00
C771   C     0.46585   0.05526   0.89310   0.00000  Uiso   1.00
C772   C     0.35872   0.24815   0.72668   0.00000  Uiso   1.00
C773   C     0.48505   0.22447   0.50395   0.00000  Uiso   1.00
C774   C     0.48922   0.18194   0.98984   0.00000  Uiso   1.00
C775   C     0.48312   0.16564   0.94706   0.00000  Uiso   1.00
C776   C     0.50294   0.15614   0.51548   0.00000  Uiso   1.00
C777   C     0.52041   0.11957   0.99342   0.00000  Uiso   1.00
C778   C     0.51240   0.10297   0.95270   0.00000  Uiso   1.00
C779   C     0.48815   0.12293   0.93267   0.00000  Uiso   1.00
H780   H     0.56208   0.09307   0.57305   0.00000  Uiso   1.00
H781   H     0.66595   0.14378   0.85021   0.00000  Uiso   1.00
H782   H     0.35590   0.09867   0.81787   0.00000  Uiso   1.00
H783   H     0.43091   0.29992   0.75380   0.00000  Uiso   1.00
H784   H     0.37459   0.32990   0.80969   0.00000  Uiso   1.00
H785   H     0.39590   0.02915   0.76440   0.00000  Uiso   1.00
H786   H     0.41109   0.04250   0.81668   0.00000  Uiso   1.00
H787   H     0.43742   0.19116   0.58055   0.00000  Uiso   1.00
H788   H     0.43845   0.11052   0.90091   0.00000  Uiso   1.00
H789   H     0.44597   0.04267   0.86968   0.00000  Uiso   1.00
H790   H     0.45175   0.04070   0.92499   0.00000  Uiso   1.00
H791   H     0.54531   0.00572   0.72534   0.00000  Uiso   1.00
H792   H     0.49849   0.04675   0.87760   0.00000  Uiso   1.00
H793   H     0.34973   0.20209   0.67688   0.00000  Uiso   1.00
H794   H     0.38417   0.26686   0.70330   0.00000  Uiso   1.00
H795   H     0.36708   0.25075   0.75926   0.00000  Uiso   1.00
H796   H     0.66140   0.26102   0.73154   0.00000  Uiso   1.00
H797   H     0.52223   0.07278   0.93881   0.00000  Uiso   1.00
H798   H     0.55741   0.07075   0.99662   0.00000  Uiso   1.00
H799   H     0.45787   0.25497   0.91722   0.00000  Uiso   1.00
H800   H     0.49419   0.23977   0.53338   0.00000  Uiso   1.00
H801   H     0.46739   0.28152   0.99084   0.00000  Uiso   1.00
H802   H     0.63752   0.09835   0.77134   0.00000  Uiso   1.00
H803   H     0.63389   0.09380   0.84860   0.00000  Uiso   1.00
N804   N     0.64764   0.12436   0.79019   0.00000  Uiso   1.00
N805   N     0.43838   0.32473   0.77553   0.00000  Uiso   1.00
N806   N     0.46683   0.10022   0.90060   0.00000  Uiso   1.00
N807   N     0.35525   0.20509   0.70826   0.00000  Uiso   1.00
O808   O     0.50000   0.16667   0.75000   0.00000  Uiso   1.00
O809   O     0.48784   0.12637   0.65458   0.00000  Uiso   1.00
O810   O     0.46274   0.20391   0.84968   0.00000  Uiso   1.00
O811   O     0.54157   0.17759   0.64606   0.00000  Uiso   1.00
O812   O     0.50785   0.15880   0.84968   0.00000  Uiso   1.00
O813   O     0.47129   0.21053   0.62502   0.00000  Uiso   1.00
O814   O     0.51264   0.08019   0.78213   0.00000  Uiso   1.00
O815   O     0.47965   0.26085   0.77013   0.00000  Uiso   1.00
O816   O     0.40745   0.13291   0.73413   0.00000  Uiso   1.00
O817   O     0.60026   0.19272   0.71360   0.00000  Uiso   1.00
O818   O     0.40405   0.18878   0.78213   0.00000  Uiso   1.00
O819   O     0.58824   0.15226   0.77013   0.00000  Uiso   1.00
O820   O     0.47093   0.06944   0.73413   0.00000  Uiso   1.00
O821   O     0.53678   0.25620   0.71360   0.00000  Uiso   1.00
Zn822  Zn    0.52672   0.13994   0.78734   0.00000  Uiso   1.00
Zn823  Zn    0.46713   0.12458   0.71875   0.00000  Uiso   1.00
Zn824  Zn    0.54389   0.19775   0.70657   0.00000  Uiso   1.00
Zn825  Zn    0.46226   0.20439   0.78733   0.00000  Uiso   1.00
C826   C     0.71973   0.15992   0.75944   0.00000  Uiso   1.00
C827   C     0.83308   0.16475   0.56200   0.00000  Uiso   1.00
C828   C     0.87867   0.11056   0.55731   0.00000  Uiso   1.00
C829   C     0.94730   0.17360   0.74003   0.00000  Uiso   1.00
C830   C     0.80736   0.19318   0.91965   0.00000  Uiso   1.00
C831   C     0.99303   0.17753   0.73782   0.00000  Uiso   1.00
C832   C     0.67440   0.15592   0.76393   0.00000  Uiso   1.00
C833   C     0.84768   0.32308   0.74133   0.00000  Uiso   1.00
C834   C     0.81491   0.01153   0.76207   0.00000  Uiso   1.00
C835   C     0.82250   0.05598   0.75968   0.00000  Uiso   1.00
C836   C     0.84317   0.27793   0.74083   0.00000  Uiso   1.00
C837   C     0.80451   0.24925   0.97898   0.00000  Uiso   1.00
C838   C     0.85172   0.14811   0.62956   0.00000  Uiso   1.00
C839   C     0.81423   0.18393   0.87094   0.00000  Uiso   1.00
C840   C     0.87615   0.09802   0.51385   0.00000  Uiso   1.00
C841   C     0.85612   0.14262   0.58183   0.00000  Uiso   1.00
C842   C     0.79879   0.23375   0.93728   0.00000  Uiso   1.00
C843   C     0.99340   0.11475   0.82867   0.00000  Uiso   1.00
C844   C     0.73676   0.01645   0.79245   0.00000  Uiso   1.00
C845   C     0.79977   0.19006   0.59072   0.00000  Uiso   1.00
C846   C     0.79918   0.05526   0.89310   0.00000  Uiso   1.00
C847   C     0.69205   0.24815   0.72668   0.00000  Uiso   1.00
C848   C     0.81839   0.22447   0.50395   0.00000  Uiso   1.00
C849   C     0.82256   0.18194   0.98984   0.00000  Uiso   1.00
C850   C     0.81645   0.16564   0.94706   0.00000  Uiso   1.00
C851   C     0.83628   0.15614   0.51548   0.00000  Uiso   1.00
C852   C     0.85375   0.11957   0.99342   0.00000  Uiso   1.00
C853   C     0.84574   0.10297   0.95270   0.00000  Uiso   1.00
C854   C     0.82148   0.12293   0.93267   0.00000  Uiso   1.00
H855   H     0.89542   0.09307   0.57305   0.00000  Uiso   1.00
H856   H     0.99929   0.14378   0.85021   0.00000  Uiso   1.00
H857   H     0.68924   0.09867   0.81787   0.00000  Uiso   1.00
H858   H     0.76425   0.29992   0.75380   0.00000  Uiso   1.00
H859   H     0.70792   0.32990   0.80969   0.00000  Uiso   1.00
H860   H     0.72923   0.02915   0.76440   0.00000  Uiso   1.00
H861   H     0.74443   0.04250   0.81668   0.00000  Uiso   1.00
H862   H     0.77075   0.19116   0.58055   0.00000  Uiso   1.00
H863   H     0.77178   0.11052   0.90091   0.00000  Uiso   1.00
H864   H     0.77931   0.04267   0.86968   0.00000  Uiso   1.00
H865   H     0.78508   0.04070   0.92499   0.00000  Uiso   1.00
H866   H     0.87864   0.00572   0.72534   0.00000  Uiso   1.00
H867   H     0.83183   0.04675   0.87760   0.00000  Uiso   1.00
H868   H     0.68307   0.20209   0.67688   0.00000  Uiso   1.00
H869   H     0.71750   0.26686   0.70330   0.00000  Uiso   1.00
H870   H     0.70041   0.25075   0.75926   0.00000  Uiso   1.00
H871   H     0.99474   0.26102   0.73154   0.00000  Uiso   1.00
H872   H     0.85557   0.07278   0.93881   0.00000  Uiso   1.00
H873   H     0.89075   0.07075   0.99662   0.00000  Uiso   1.00
H874   H     0.79121   0.25497   0.91722   0.00000  Uiso   1.00
H875   H     0.82752   0.23977   0.53338   0.00000  Uiso   1.00
H876   H     0.80072   0.28152   0.99084   0.00000  Uiso   1.00
H877   H     0.97086   0.09835   0.77134   0.00000  Uiso   1.00
H878   H     0.96723   0.09380   0.84860   0.00000  Uiso   1.00
N879   N     0.98098   0.12436   0.79019   0.00000  Uiso   1.00
N880   N     0.77172   0.32473   0.77553   0.00000  Uiso   1.00
N881   N     0.80016   0.10022   0.90060   0.00000  Uiso   1.00
N882   N     0.68858   0.20509   0.70826   0.00000  Uiso   1.00
O883   O     0.83333   0.16667   0.75000   0.00000  Uiso   1.00
O884   O     0.82118   0.12637   0.65458   0.00000  Uiso   1.00
O885   O     0.79607   0.20391   0.84968   0.00000  Uiso   1.00
O886   O     0.87491   0.17759   0.64606   0.00000  Uiso   1.00
O887   O     0.84118   0.15880   0.84968   0.00000  Uiso   1.00
O888   O     0.80463   0.21053   0.62502   0.00000  Uiso   1.00
O889   O     0.84597   0.08019   0.78213   0.00000  Uiso   1.00
O890   O     0.81298   0.26085   0.77013   0.00000  Uiso   1.00
O891   O     0.74078   0.13291   0.73413   0.00000  Uiso   1.00
O892   O     0.93360   0.19272   0.71360   0.00000  Uiso   1.00
O893   O     0.73738   0.18878   0.78213   0.00000  Uiso   1.00
O894   O     0.92158   0.15226   0.77013   0.00000  Uiso   1.00
O895   O     0.80426   0.06944   0.73413   0.00000  Uiso   1.00
O896   O     0.87012   0.25620   0.71360   0.00000  Uiso   1.00
Zn897  Zn    0.86005   0.13994   0.78734   0.00000  Uiso   1.00
Zn898  Zn    0.80046   0.12458   0.71875   0.00000  Uiso   1.00
Zn899  Zn    0.87723   0.19775   0.70657   0.00000  Uiso   1.00
Zn900  Zn    0.79560   0.20439   0.78733   0.00000  Uiso   1.00
C901   C     0.05306   0.49325   0.75944   0.00000  Uiso   1.00
C902   C     0.16641   0.49808   0.56200   0.00000  Uiso   1.00
C903   C     0.21200   0.44390   0.55731   0.00000  Uiso   1.00
C904   C     0.28064   0.50693   0.74003   0.00000  Uiso   1.00
C905   C     0.14070   0.52651   0.91965   0.00000  Uiso   1.00
C906   C     0.32637   0.51087   0.73782   0.00000  Uiso   1.00
C907   C     0.00774   0.48925   0.76393   0.00000  Uiso   1.00
C908   C     0.18101   0.65641   0.74133   0.00000  Uiso   1.00
C909   C     0.14825   0.34486   0.76207   0.00000  Uiso   1.00
C910   C     0.15584   0.38931   0.75968   0.00000  Uiso   1.00
C911   C     0.17651   0.61126   0.74083   0.00000  Uiso   1.00
C912   C     0.13785   0.58258   0.97898   0.00000  Uiso   1.00
C913   C     0.18506   0.48144   0.62956   0.00000  Uiso   1.00
C914   C     0.14756   0.51726   0.87094   0.00000  Uiso   1.00
C915   C     0.20949   0.43135   0.51385   0.00000  Uiso   1.00
C916   C     0.18945   0.47595   0.58183   0.00000  Uiso   1.00
C917   C     0.13212   0.56709   0.93728   0.00000  Uiso   1.00
C918   C     0.32673   0.44808   0.82867   0.00000  Uiso   1.00
C919   C     0.07009   0.34979   0.79245   0.00000  Uiso   1.00
C920   C     0.13311   0.52339   0.59072   0.00000  Uiso   1.00
C921   C     0.13252   0.38859   0.89310   0.00000  Uiso   1.00
C922   C     0.02539   0.58148   0.72668   0.00000  Uiso   1.00
C923   C     0.15172   0.55781   0.50395   0.00000  Uiso   1.00
C924   C     0.15589   0.51528   0.98984   0.00000  Uiso   1.00
C925   C     0.14979   0.49898   0.94706   0.00000  Uiso   1.00
C926   C     0.16961   0.48947   0.51548   0.00000  Uiso   1.00
C927   C     0.18708   0.45290   0.99342   0.00000  Uiso   1.00
C928   C     0.17907   0.43630   0.95270   0.00000  Uiso   1.00
C929   C     0.15481   0.45626   0.93267   0.00000  Uiso   1.00
H930   H     0.22875   0.42640   0.57305   0.00000  Uiso   1.00
H931   H     0.33262   0.47712   0.85021   0.00000  Uiso   1.00
H932   H     0.02257   0.43200   0.81787   0.00000  Uiso   1.00
H933   H     0.09758   0.63325   0.75380   0.00000  Uiso   1.00
H934   H     0.04126   0.66324   0.80969   0.00000  Uiso   1.00
H935   H     0.06256   0.36248   0.76440   0.00000  Uiso   1.00
H936   H     0.07776   0.37583   0.81668   0.00000  Uiso   1.00
H937   H     0.10408   0.52450   0.58055   0.00000  Uiso   1.00
H938   H     0.10511   0.44385   0.90091   0.00000  Uiso   1.00
H939   H     0.11264   0.37600   0.86968   0.00000  Uiso   1.00
H940   H     0.11841   0.37403   0.92499   0.00000  Uiso   1.00
H941   H     0.21198   0.33906   0.72534   0.00000  Uiso   1.00
H942   H     0.16516   0.38008   0.87760   0.00000  Uiso   1.00
H943   H     0.01640   0.53542   0.67688   0.00000  Uiso   1.00
H944   H     0.05084   0.60019   0.70330   0.00000  Uiso   1.00
H945   H     0.03375   0.58409   0.75926   0.00000  Uiso   1.00
H946   H     0.32807   0.59435   0.73154   0.00000  Uiso   1.00
H947   H     0.18890   0.40611   0.93881   0.00000  Uiso   1.00
H948   H     0.22408   0.40409   0.99662   0.00000  Uiso   1.00
H949   H     0.12454   0.58831   0.91722   0.00000  Uiso   1.00
H950   H     0.16086   0.57311   0.53338   0.00000  Uiso   1.00
H951   H     0.13406   0.61485   0.99084   0.00000  Uiso   1.00
H952   H     0.30419   0.43169   0.77134   0.00000  Uiso   1.00
H953   H     0.30056   0.42713   0.84860   0.00000  Uiso   1.00
N954   N     0.31431   0.45769   0.79019   0.00000  Uiso   1.00
N955   N     0.10505   0.65806   0.77553   0.00000  Uiso   1.00
N956   N     0.13350   0.43356   0.90060   0.00000  Uiso   1.00
N957   N     0.02191   0.53843   0.70826   0.00000  Uiso   1.00
O958   O     0.16667   0.50000   0.75000   0.00000  Uiso   1.00
O959   O     0.15451   0.45970   0.65458   0.00000  Uiso   1.00
O960   O     0.12940   0.53724   0.84968   0.00000  Uiso   1.00
O961   O     0.20824   0.51092   0.64606   0.00000  Uiso   1.00
O962   O     0.17451   0.49213   0.84968   0.00000  Uiso   1.00
O963   O     0.13796   0.54386   0.62502   0.00000  Uiso   1.00
O964   O     0.17930   0.41352   0.78213   0.00000  Uiso   1.00
O965   O     0.14632   0.59418   0.77013   0.00000  Uiso   1.00
O966   O     0.07412   0.46625   0.73413   0.00000  Uiso   1.00
O967   O     0.26693   0.52605   0.71360   0.00000  Uiso   1.00
O968   O     0.07071   0.52211   0.78213   0.00000  Uiso   1.00
O969   O     0.25491   0.48559   0.77013   0.00000  Uiso   1.00
O970   O     0.13760   0.40277   0.73413   0.00000  Uiso   1.00
O971   O     0.20345   0.58953   0.71360   0.00000  Uiso   1.00
Zn972  Zn    0.19338   0.47327   0.78734   0.00000  Uiso   1.00
Zn973  Zn    0.13379   0.45791   0.71875   0.00000  Uiso   1.00
Zn974  Zn    0.21056   0.53109   0.70657   0.00000  Uiso   1.00
Zn975  Zn    0.12893   0.53773   0.78733   0.00000  Uiso   1.00
C976   C     0.38639   0.49325   0.75944   0.00000  Uiso   1.00
C977   C     0.49974   0.49808   0.56200   0.00000  Uiso   1.00
C978   C     0.54533   0.44390   0.55731   0.00000  Uiso   1.00
C979   C     0.61397   0.50693   0.74003   0.00000  Uiso   1.00
C980   C     0.47403   0.52651   0.91965   0.00000  Uiso   1.00
C981   C     0.65970   0.51087   0.73782   0.00000  Uiso   1.00
C982   C     0.34107   0.48925   0.76393   0.00000  Uiso   1.00
C983   C     0.51434   0.65641   0.74133   0.00000  Uiso   1.00
C984   C     0.48158   0.34486   0.76207   0.00000  Uiso   1.00
C985   C     0.48917   0.38931   0.75968   0.00000  Uiso   1.00
C986   C     0.50984   0.61126   0.74083   0.00000  Uiso   1.00
C987   C     0.47118   0.58258   0.97898   0.00000  Uiso   1.00
C988   C     0.51839   0.48144   0.62956   0.00000  Uiso   1.00
C989   C     0.48090   0.51726   0.87094   0.00000  Uiso   1.00
C990   C     0.54282   0.43135   0.51385   0.00000  Uiso   1.00
C991   C     0.52279   0.47595   0.58183   0.00000  Uiso   1.00
C992   C     0.46545   0.56709   0.93728   0.00000  Uiso   1.00
C993   C     0.66007   0.44808   0.82867   0.00000  Uiso   1.00
C994   C     0.40343   0.34979   0.79245   0.00000  Uiso   1.00
C995   C     0.46644   0.52339   0.59072   0.00000  Uiso   1.00
C996   C     0.46585   0.38859   0.89310   0.00000  Uiso   1.00
C997   C     0.35872   0.58148   0.72668   0.00000  Uiso   1.00
C998   C     0.48505   0.55781   0.50395   0.00000  Uiso   1.00
C999   C     0.48922   0.51528   0.98984   0.00000  Uiso   1.00
C1000  C     0.48312   0.49898   0.94706   0.00000  Uiso   1.00
C1001  C     0.50294   0.48947   0.51548   0.00000  Uiso   1.00
C1002  C     0.52041   0.45290   0.99342   0.00000  Uiso   1.00
C1003  C     0.51240   0.43630   0.95270   0.00000  Uiso   1.00
C1004  C     0.48815   0.45626   0.93267   0.00000  Uiso   1.00
H1005  H     0.56208   0.42640   0.57305   0.00000  Uiso   1.00
H1006  H     0.66595   0.47712   0.85021   0.00000  Uiso   1.00
H1007  H     0.35590   0.43200   0.81787   0.00000  Uiso   1.00
H1008  H     0.43091   0.63325   0.75380   0.00000  Uiso   1.00
H1009  H     0.37459   0.66324   0.80969   0.00000  Uiso   1.00
H1010  H     0.39590   0.36248   0.76440   0.00000  Uiso   1.00
H1011  H     0.41109   0.37583   0.81668   0.00000  Uiso   1.00
H1012  H     0.43742   0.52450   0.58055   0.00000  Uiso   1.00
H1013  H     0.43845   0.44385   0.90091   0.00000  Uiso   1.00
H1014  H     0.44597   0.37600   0.86968   0.00000  Uiso   1.00
H1015  H     0.45175   0.37403   0.92499   0.00000  Uiso   1.00
H1016  H     0.54531   0.33906   0.72534   0.00000  Uiso   1.00
H1017  H     0.49849   0.38008   0.87760   0.00000  Uiso   1.00
H1018  H     0.34973   0.53542   0.67688   0.00000  Uiso   1.00
H1019  H     0.38417   0.60019   0.70330   0.00000  Uiso   1.00
H1020  H     0.36708   0.58409   0.75926   0.00000  Uiso   1.00
H1021  H     0.66140   0.59435   0.73154   0.00000  Uiso   1.00
H1022  H     0.52223   0.40611   0.93881   0.00000  Uiso   1.00
H1023  H     0.55741   0.40409   0.99662   0.00000  Uiso   1.00
H1024  H     0.45787   0.58831   0.91722   0.00000  Uiso   1.00
H1025  H     0.49419   0.57311   0.53338   0.00000  Uiso   1.00
H1026  H     0.46739   0.61485   0.99084   0.00000  Uiso   1.00
H1027  H     0.63752   0.43169   0.77134   0.00000  Uiso   1.00
H1028  H     0.63389   0.42713   0.84860   0.00000  Uiso   1.00
N1029  N     0.64764   0.45769   0.79019   0.00000  Uiso   1.00
N1030  N     0.43838   0.65806   0.77553   0.00000  Uiso   1.00
N1031  N     0.46683   0.43356   0.90060   0.00000  Uiso   1.00
N1032  N     0.35525   0.53843   0.70826   0.00000  Uiso   1.00
O1033  O     0.50000   0.50000   0.75000   0.00000  Uiso   1.00
O1034  O     0.48784   0.45970   0.65458   0.00000  Uiso   1.00
O1035  O     0.46274   0.53724   0.84968   0.00000  Uiso   1.00
O1036  O     0.54157   0.51092   0.64606   0.00000  Uiso   1.00
O1037  O     0.50785   0.49213   0.84968   0.00000  Uiso   1.00
O1038  O     0.47129   0.54386   0.62502   0.00000  Uiso   1.00
O1039  O     0.51264   0.41352   0.78213   0.00000  Uiso   1.00
O1040  O     0.47965   0.59418   0.77013   0.00000  Uiso   1.00
O1041  O     0.40745   0.46625   0.73413   0.00000  Uiso   1.00
O1042  O     0.60026   0.52605   0.71360   0.00000  Uiso   1.00
O1043  O     0.40405   0.52211   0.78213   0.00000  Uiso   1.00
O1044  O     0.58824   0.48559   0.77013   0.00000  Uiso   1.00
O1045  O     0.47093   0.40277   0.73413   0.00000  Uiso   1.00
O1046  O     0.53678   0.58953   0.71360   0.00000  Uiso   1.00
Zn1047 Zn    0.52672   0.47327   0.78734   0.00000  Uiso   1.00
Zn1048 Zn    0.46713   0.45791   0.71875   0.00000  Uiso   1.00
Zn1049 Zn    0.54389   0.53109   0.70657   0.00000  Uiso   1.00
Zn1050 Zn    0.46226   0.53773   0.78733   0.00000  Uiso   1.00
C1051  C     0.71973   0.49325   0.75944   0.00000  Uiso   1.00
C1052  C     0.83308   0.49808   0.56200   0.00000  Uiso   1.00
C1053  C     0.87867   0.44390   0.55731   0.00000  Uiso   1.00
C1054  C     0.94730   0.50693   0.74003   0.00000  Uiso   1.00
C1055  C     0.80736   0.52651   0.91965   0.00000  Uiso   1.00
C1056  C     0.99303   0.51087   0.73782   0.00000  Uiso   1.00
C1057  C     0.67440   0.48925   0.76393   0.00000  Uiso   1.00
C1058  C     0.84768   0.65641   0.74133   0.00000  Uiso   1.00
C1059  C     0.81491   0.34486   0.76207   0.00000  Uiso   1.00
C1060  C     0.82250   0.38931   0.75968   0.00000  Uiso   1.00
C1061  C     0.84317   0.61126   0.74083   0.00000  Uiso   1.00
C1062  C     0.80451   0.58258   0.97898   0.00000  Uiso   1.00
C1063  C     0.85172   0.48144   0.62956   0.00000  Uiso   1.00
C1064  C     0.81423   0.51726   0.87094   0.00000  Uiso   1.00
C1065  C     0.87615   0.43135   0.51385   0.00000  Uiso   1.00
C1066  C     0.85612   0.47595   0.58183   0.00000  Uiso   1.00
C1067  C     0.79879   0.56709   0.93728   0.00000  Uiso   1.00
C1068  C     0.99340   0.44808   0.82867   0.00000  Uiso   1.00
C1069  C     0.73676   0.34979   0.79245   0.00000  Uiso   1.00
C1070  C     0.79977   0.52339   0.59072   0.00000  Uiso   1.00
C1071  C     0.79918   0.38859   0.89310   0.00000  Uiso   1.00
C1072  C     0.69205   0.58148   0.72668   0.00000  Uiso   1.00
C1073  C     0.81839   0.55781   0.50395   0.00000  Uiso   1.00
C1074  C     0.82256   0.51528   0.98984   0.00000  Uiso   1.00
C1075  C     0.81645   0.49898   0.94706   0.00000  Uiso   1.00
C1076  C     0.83628   0.48947   0.51548   0.00000  Uiso   1.00
C1077  C     0.85375   0.45290   0.99342   0.00000  Uiso   1.00
C1078  C     0.84574   0.43630   0.95270   0.00000  Uiso   1.00
C1079  C     0.82148   0.45626   0.93267   0.00000  Uiso   1.00
H1080  H     0.89542   0.42640   0.57305   0.00000  Uiso   1.00
H1081  H     0.99929   0.47712   0.85021   0.00000  Uiso   1.00
H1082  H     0.68924   0.43200   0.81787   0.00000  Uiso   1.00
H1083  H     0.76425   0.63325   0.75380   0.00000  Uiso   1.00
H1084  H     0.70792   0.66324   0.80969   0.00000  Uiso   1.00
H1085  H     0.72923   0.36248   0.76440   0.00000  Uiso   1.00
H1086  H     0.74443   0.37583   0.81668   0.00000  Uiso   1.00
H1087  H     0.77075   0.52450   0.58055   0.00000  Uiso   1.00
H1088  H     0.77178   0.44385   0.90091   0.00000  Uiso   1.00
H1089  H     0.77931   0.37600   0.86968   0.00000  Uiso   1.00
H1090  H     0.78508   0.37403   0.92499   0.00000  Uiso   1.00
H1091  H     0.87864   0.33906   0.72534   0.00000  Uiso   1.00
H1092  H     0.83183   0.38008   0.87760   0.00000  Uiso   1.00
H1093  H     0.68307   0.53542   0.67688   0.00000  Uiso   1.00
H1094  H     0.71750   0.60019   0.70330   0.00000  Uiso   1.00
H1095  H     0.70041   0.58409   0.75926   0.00000  Uiso   1.00
H1096  H     0.99474   0.59435   0.73154   0.00000  Uiso   1.00
H1097  H     0.85557   0.40611   0.93881   0.00000  Uiso   1.00
H1098  H     0.89075   0.40409   0.99662   0.00000  Uiso   1.00
H1099  H     0.79121   0.58831   0.91722   0.00000  Uiso   1.00
H1100  H     0.82752   0.57311   0.53338   0.00000  Uiso   1.00
H1101  H     0.80072   0.61485   0.99084   0.00000  Uiso   1.00
H1102  H     0.97086   0.43169   0.77134   0.00000  Uiso   1.00
H1103  H     0.96723   0.42713   0.84860   0.00000  Uiso   1.00
N1104  N     0.98098   0.45769   0.79019   0.00000  Uiso   1.00
N1105  N     0.77172   0.65806   0.77553   0.00000  Uiso   1.00
N1106  N     0.80016   0.43356   0.90060   0.00000  Uiso   1.00
N1107  N     0.68858   0.53843   0.70826   0.00000  Uiso   1.00
O1108  O     0.83333   0.50000   0.75000   0.00000  Uiso   1.00
O1109  O     0.82118   0.45970   0.65458   0.00000  Uiso   1.00
O1110  O     0.79607   0.53724   0.84968   0.00000  Uiso   1.00
O1111  O     0.87491   0.51092   0.64606   0.00000  Uiso   1.00
O1112  O     0.84118   0.49213   0.84968   0.00000  Uiso   1.00
O1113  O     0.80463   0.54386   0.62502   0.00000  Uiso   1.00
O1114  O     0.84597   0.41352   0.78213   0.00000  Uiso   1.00
O1115  O     0.81298   0.59418   0.77013   0.00000  Uiso   1.00
O1116  O     0.74078   0.46625   0.73413   0.00000  Uiso   1.00
O1117  O     0.93360   0.52605   0.71360   0.00000  Uiso   1.00
O1118  O     0.73738   0.52211   0.78213   0.00000  Uiso   1.00
O1119  O     0.92158   0.48559   0.77013   0.00000  Uiso   1.00
O1120  O     0.80426   0.40277   0.73413   0.00000  Uiso   1.00
O1121  O     0.87012   0.58953   0.71360   0.00000  Uiso   1.00
Zn1122 Zn    0.86005   0.47327   0.78734   0.00000  Uiso   1.00
Zn1123 Zn    0.80046   0.45791   0.71875   0.00000  Uiso   1.00
Zn1124 Zn    0.87723   0.53109   0.70657   0.00000  Uiso   1.00
Zn1125 Zn    0.79560   0.53773   0.78733   0.00000  Uiso   1.00
C1126  C     0.05306   0.82659   0.75944   0.00000  Uiso   1.00
C1127  C     0.16641   0.83141   0.56200   0.00000  Uiso   1.00
C1128  C     0.21200   0.77723   0.55731   0.00000  Uiso   1.00
C1129  C     0.28064   0.84026   0.74003   0.00000  Uiso   1.00
C1130  C     0.14070   0.85984   0.91965   0.00000  Uiso   1.00
C1131  C     0.32637   0.84420   0.73782   0.00000  Uiso   1.00
C1132  C     0.00774   0.82258   0.76393   0.00000  Uiso   1.00
C1133  C     0.18101   0.98975   0.74133   0.00000  Uiso   1.00
C1134  C     0.14825   0.67819   0.76207   0.00000  Uiso   1.00
C1135  C     0.15584   0.72264   0.75968   0.00000  Uiso   1.00
C1136  C     0.17651   0.94460   0.74083   0.00000  Uiso   1.00
C1137  C     0.13785   0.91591   0.97898   0.00000  Uiso   1.00
C1138  C     0.18506   0.81478   0.62956   0.00000  Uiso   1.00
C1139  C     0.14756   0.85059   0.87094   0.00000  Uiso   1.00
C1140  C     0.20949   0.76468   0.51385   0.00000  Uiso   1.00
C1141  C     0.18945   0.80929   0.58183   0.00000  Uiso   1.00
C1142  C     0.13212   0.90042   0.93728   0.00000  Uiso   1.00
C1143  C     0.32673   0.78141   0.82867   0.00000  Uiso   1.00
C1144  C     0.07009   0.68312   0.79245   0.00000  Uiso   1.00
C1145  C     0.13311   0.85672   0.59072   0.00000  Uiso   1.00
C1146  C     0.13252   0.72192   0.89310   0.00000  Uiso   1.00
C1147  C     0.02539   0.91481   0.72668   0.00000  Uiso   1.00
C1148  C     0.15172   0.89114   0.50395   0.00000  Uiso   1.00
C1149  C     0.15589   0.84861   0.98984   0.00000  Uiso   1.00
C1150  C     0.14979   0.83231   0.94706   0.00000  Uiso   1.00
C1151  C     0.16961   0.82280   0.51548   0.00000  Uiso   1.00
C1152  C     0.18708   0.78623   0.99342   0.00000  Uiso   1.00
C1153  C     0.17907   0.76964   0.95270   0.00000  Uiso   1.00
C1154  C     0.15481   0.78960   0.93267   0.00000  Uiso   1.00
H1155  H     0.22875   0.75973   0.57305   0.00000  Uiso   1.00
H1156  H     0.33262   0.81045   0.85021   0.00000  Uiso   1.00
H1157  H     0.02257   0.76534   0.81787   0.00000  Uiso   1.00
H1158  H     0.09758   0.96659   0.75380   0.00000  Uiso   1.00
H1159  H     0.04126   0.99657   0.80969   0.00000  Uiso   1.00
H1160  H     0.06256   0.69582   0.76440   0.00000  Uiso   1.00
H1161  H     0.07776   0.70917   0.81668   0.00000  Uiso   1.00
H1162  H     0.10408   0.85783   0.58055   0.00000  Uiso   1.00
H1163  H     0.10511   0.77718   0.90091   0.00000  Uiso   1.00
H1164  H     0.11264   0.70934   0.86968   0.00000  Uiso   1.00
H1165  H     0.11841   0.70737   0.92499   0.00000  Uiso   1.00
H1166  H     0.21198   0.67239   0.72534   0.00000  Uiso   1.00
H1167  H     0.16516   0.71341   0.87760   0.00000  Uiso   1.00
H1168  H     0.01640   0.86876   0.67688   0.00000  Uiso   1.00
H1169  H     0.05084   0.93353   0.70330   0.00000  Uiso   1.00
H1170  H     0.03375   0.91742   0.75926   0.00000  Uiso   1.00
H1171  H     0.32807   0.92768   0.73154   0.00000  Uiso   1.00
H1172  H     0.18890   0.73944   0.93881   0.00000  Uiso   1.00
H1173  H     0.22408   0.73742   0.99662   0.00000  Uiso   1.00
H1174  H     0.12454   0.92164   0.91722   0.00000  Uiso   1.00
H1175  H     0.16086   0.90644   0.53338   0.00000  Uiso   1.00
H1176  H     0.13406   0.94819   0.99084   0.00000  Uiso   1.00
H1177  H     0.30419   0.76502   0.77134   0.00000  Uiso   1.00
H1178  H     0.30056   0.76046   0.84860   0.00000  Uiso   1.00
N1179  N     0.31431   0.79102   0.79019   0.00000  Uiso   1.00
N1180  N     0.10505   0.99140   0.77553   0.00000  Uiso   1.00
N1181  N     0.13350   0.76689   0.90060   0.00000  Uiso   1.00
N1182  N     0.02191   0.87176   0.70826   0.00000  Uiso   1.00
O1183  O     0.16667   0.83333   0.75000   0.00000  Uiso   1.00
O1184  O     0.15451   0.79304   0.65458   0.00000  Uiso   1.00
O1185  O     0.12940   0.87058   0.84968   0.00000  Uiso   1.00
O1186  O     0.20824   0.84425   0.64606   0.00000  Uiso   1.00
O1187  O     0.17451   0.82546   0.84968   0.00000  Uiso   1.00
O1188  O     0.13796   0.87720   0.62502   0.00000  Uiso   1.00
O1189  O     0.17930   0.74686   0.78213   0.00000  Uiso   1.00
O1190  O     0.14632   0.92751   0.77013   0.00000  Uiso   1.00
O1191  O     0.07412   0.79958   0.73413   0.00000  Uiso   1.00
O1192  O     0.26693   0.85939   0.71360   0.00000  Uiso   1.00
O1193  O     0.07071   0.85544   0.78213   0.00000  Uiso   1.00
O1194  O     0.25491   0.81892   0.77013   0.00000  Uiso   1.00
O1195  O     0.13760   0.73610   0.73413   0.00000  Uiso   1.00
O1196  O     0.20345   0.92286   0.71360   0.00000  Uiso   1.00
Zn1197 Zn    0.19338   0.80661   0.78734   0.00000  Uiso   1.00
Zn1198 Zn    0.13379   0.79124   0.71875   0.00000  Uiso   1.00
Zn1199 Zn    0.21056   0.86442   0.70657   0.00000  Uiso   1.00
Zn1200 Zn    0.12893   0.87106   0.78733   0.00000  Uiso   1.00
C1201  C     0.38639   0.82659   0.75944   0.00000  Uiso   1.00
C1202  C     0.49974   0.83141   0.56200   0.00000  Uiso   1.00
C1203  C     0.54533   0.77723   0.55731   0.00000  Uiso   1.00
C1204  C     0.61397   0.84026   0.74003   0.00000  Uiso   1.00
C1205  C     0.47403   0.85984   0.91965   0.00000  Uiso   1.00
C1206  C     0.65970   0.84420   0.73782   0.00000  Uiso   1.00
C1207  C     0.34107   0.82258   0.76393   0.00000  Uiso   1.00
C1208  C     0.51434   0.98975   0.74133   0.00000  Uiso   1.00
C1209  C     0.48158   0.67819   0.76207   0.00000  Uiso   1.00
C1210  C     0.48917   0.72264   0.75968   0.00000  Uiso   1.00
C1211  C     0.50984   0.94460   0.74083   0.00000  Uiso   1.00
C1212  C     0.47118   0.91591   0.97898   0.00000  Uiso   1.00
C1213  C     0.51839   0.81478   0.62956   0.00000  Uiso   1.00
C1214  C     0.48090   0.85059   0.87094   0.00000  Uiso   1.00
C1215  C     0.54282   0.76468   0.51385   0.00000  Uiso   1.00
C1216  C     0.52279   0.80929   0.58183   0.00000  Uiso   1.00
C1217  C     0.46545   0.90042   0.93728   0.00000  Uiso   1.00
C1218  C     0.66007   0.78141   0.82867   0.00000  Uiso   1.00
C1219  C     0.40343   0.68312   0.79245   0.00000  Uiso   1.00
C1220  C     0.46644   0.85672   0.59072   0.00000  Uiso   1.00
C1221  C     0.46585   0.72192   0.89310   0.00000  Uiso   1.00
C1222  C     0.35872   0.91481   0.72668   0.00000  Uiso   1.00
C1223  C     0.48505   0.89114   0.50395   0.00000  Uiso   1.00
C1224  C     0.48922   0.84861   0.98984   0.00000  Uiso   1.00
C1225  C     0.48312   0.83231   0.94706   0.00000  Uiso   1.00
C1226  C     0.50294   0.82280   0.51548   0.00000  Uiso   1.00
C1227  C     0.52041   0.78623   0.99342   0.00000  Uiso   1.00
C1228  C     0.51240   0.76964   0.95270   0.00000  Uiso   1.00
C1229  C     0.48815   0.78960   0.93267   0.00000  Uiso   1.00
H1230  H     0.56208   0.75973   0.57305   0.00000  Uiso   1.00
H1231  H     0.66595   0.81045   0.85021   0.00000  Uiso   1.00
H1232  H     0.35590   0.76534   0.81787   0.00000  Uiso   1.00
H1233  H     0.43091   0.96659   0.75380   0.00000  Uiso   1.00
H1234  H     0.37459   0.99657   0.80969   0.00000  Uiso   1.00
H1235  H     0.39590   0.69582   0.76440   0.00000  Uiso   1.00
H1236  H     0.41109   0.70917   0.81668   0.00000  Uiso   1.00
H1237  H     0.43742   0.85783   0.58055   0.00000  Uiso   1.00
H1238  H     0.43845   0.77718   0.90091   0.00000  Uiso   1.00
H1239  H     0.44597   0.70934   0.86968   0.00000  Uiso   1.00
H1240  H     0.45175   0.70737   0.92499   0.00000  Uiso   1.00
H1241  H     0.54531   0.67239   0.72534   0.00000  Uiso   1.00
H1242  H     0.49849   0.71341   0.87760   0.00000  Uiso   1.00
H1243  H     0.34973   0.86876   0.67688   0.00000  Uiso   1.00
H1244  H     0.38417   0.93353   0.70330   0.00000  Uiso   1.00
H1245  H     0.36708   0.91742   0.75926   0.00000  Uiso   1.00
H1246  H     0.66140   0.92768   0.73154   0.00000  Uiso   1.00
H1247  H     0.52223   0.73944   0.93881   0.00000  Uiso   1.00
H1248  H     0.55741   0.73742   0.99662   0.00000  Uiso   1.00
H1249  H     0.45787   0.92164   0.91722   0.00000  Uiso   1.00
H1250  H     0.49419   0.90644   0.53338   0.00000  Uiso   1.00
H1251  H     0.46739   0.94819   0.99084   0.00000  Uiso   1.00
H1252  H     0.63752   0.76502   0.77134   0.00000  Uiso   1.00
H1253  H     0.63389   0.76046   0.84860   0.00000  Uiso   1.00
N1254  N     0.64764   0.79102   0.79019   0.00000  Uiso   1.00
N1255  N     0.43838   0.99140   0.77553   0.00000  Uiso   1.00
N1256  N     0.46683   0.76689   0.90060   0.00000  Uiso   1.00
N1257  N     0.35525   0.87176   0.70826   0.00000  Uiso   1.00
O1258  O     0.50000   0.83333   0.75000   0.00000  Uiso   1.00
O1259  O     0.48784   0.79304   0.65458   0.00000  Uiso   1.00
O1260  O     0.46274   0.87058   0.84968   0.00000  Uiso   1.00
O1261  O     0.54157   0.84425   0.64606   0.00000  Uiso   1.00
O1262  O     0.50785   0.82546   0.84968   0.00000  Uiso   1.00
O1263  O     0.47129   0.87720   0.62502   0.00000  Uiso   1.00
O1264  O     0.51264   0.74686   0.78213   0.00000  Uiso   1.00
O1265  O     0.47965   0.92751   0.77013   0.00000  Uiso   1.00
O1266  O     0.40745   0.79958   0.73413   0.00000  Uiso   1.00
O1267  O     0.60026   0.85939   0.71360   0.00000  Uiso   1.00
O1268  O     0.40405   0.85544   0.78213   0.00000  Uiso   1.00
O1269  O     0.58824   0.81892   0.77013   0.00000  Uiso   1.00
O1270  O     0.47093   0.73610   0.73413   0.00000  Uiso   1.00
O1271  O     0.53678   0.92286   0.71360   0.00000  Uiso   1.00
Zn1272 Zn    0.52672   0.80661   0.78734   0.00000  Uiso   1.00
Zn1273 Zn    0.46713   0.79124   0.71875   0.00000  Uiso   1.00
Zn1274 Zn    0.54389   0.86442   0.70657   0.00000  Uiso   1.00
Zn1275 Zn    0.46226   0.87106   0.78733   0.00000  Uiso   1.00
C1276  C     0.71973   0.82659   0.75944   0.00000  Uiso   1.00
C1277  C     0.83308   0.83141   0.56200   0.00000  Uiso   1.00
C1278  C     0.87867   0.77723   0.55731   0.00000  Uiso   1.00
C1279  C     0.94730   0.84026   0.74003   0.00000  Uiso   1.00
C1280  C     0.80736   0.85984   0.91965   0.00000  Uiso   1.00
C1281  C     0.99303   0.84420   0.73782   0.00000  Uiso   1.00
C1282  C     0.67440   0.82258   0.76393   0.00000  Uiso   1.00
C1283  C     0.84768   0.98975   0.74133   0.00000  Uiso   1.00
C1284  C     0.81491   0.67819   0.76207   0.00000  Uiso   1.00
C1285  C     0.82250   0.72264   0.75968   0.00000  Uiso   1.00
C1286  C     0.84317   0.94460   0.74083   0.00000  Uiso   1.00
C1287  C     0.80451   0.91591   0.97898   0.00000  Uiso   1.00
C1288  C     0.85172   0.81478   0.62956   0.00000  Uiso   1.00
C1289  C     0.81423   0.85059   0.87094   0.00000  Uiso   1.00
C1290  C     0.87615   0.76468   0.51385   0.00000  Uiso   1.00
C1291  C     0.85612   0.80929   0.58183   0.00000  Uiso   1.00
C1292  C     0.79879   0.90042   0.93728   0.00000  Uiso   1.00
C1293  C     0.99340   0.78141   0.82867   0.00000  Uiso   1.00
C1294  C     0.73676   0.68312   0.79245   0.00000  Uiso   1.00
C1295  C     0.79977   0.85672   0.59072   0.00000  Uiso   1.00
C1296  C     0.79918   0.72192   0.89310   0.00000  Uiso   1.00
C1297  C     0.69205   0.91481   0.72668   0.00000  Uiso   1.00
C1298  C     0.81839   0.89114   0.50395   0.00000  Uiso   1.00
C1299  C     0.82256   0.84861   0.98984   0.00000  Uiso   1.00
C1300  C     0.81645   0.83231   0.94706   0.00000  Uiso   1.00
C1301  C     0.83628   0.82280   0.51548   0.00000  Uiso   1.00
C1302  C     0.85375   0.78623   0.99342   0.00000  Uiso   1.00
C1303  C     0.84574   0.76964   0.95270   0.00000  Uiso   1.00
C1304  C     0.82148   0.78960   0.93267   0.00000  Uiso   1.00
H1305  H     0.89542   0.75973   0.57305   0.00000  Uiso   1.00
H1306  H     0.99929   0.81045   0.85021   0.00000  Uiso   1.00
H1307  H     0.68924   0.76534   0.81787   0.00000  Uiso   1.00
H1308  H     0.76425   0.96659   0.75380   0.00000  Uiso   1.00
H1309  H     0.70792   0.99657   0.80969   0.00000  Uiso   1.00
H1310  H     0.72923   0.69582   0.76440   0.00000  Uiso   1.00
H1311  H     0.74443   0.70917   0.81668   0.00000  Uiso   1.00
H1312  H     0.77075   0.85783   0.58055   0.00000  Uiso   1.00
H1313  H     0.77178   0.77718   0.90091   0.00000  Uiso   1.00
H1314  H     0.77931   0.70934   0.86968   0.00000  Uiso   1.00
H1315  H     0.78508   0.70737   0.92499   0.00000  Uiso   1.00
H1316  H     0.87864   0.67239   0.72534   0.00000  Uiso   1.00
H1317  H     0.83183   0.71341   0.87760   0.00000  Uiso   1.00
H1318  H     0.68307   0.86876   0.67688   0.00000  Uiso   1.00
H1319  H     0.71750   0.93353   0.70330   0.00000  Uiso   1.00
H1320  H     0.70041   0.91742   0.75926   0.00000  Uiso   1.00
H1321  H     0.99474   0.92768   0.73154   0.00000  Uiso   1.00
H1322  H     0.85557   0.73944   0.93881   0.00000  Uiso   1.00
H1323  H     0.89075   0.73742   0.99662   0.00000  Uiso   1.00
H1324  H     0.79121   0.92164   0.91722   0.00000  Uiso   1.00
H1325  H     0.82752   0.90644   0.53338   0.00000  Uiso   1.00
H1326  H     0.80072   0.94819   0.99084   0.00000  Uiso   1.00
H1327  H     0.97086   0.76502   0.77134   0.00000  Uiso   1.00
H1328  H     0.96723   0.76046   0.84860   0.00000  Uiso   1.00
N1329  N     0.98098   0.79102   0.79019   0.00000  Uiso   1.00
N1330  N     0.77172   0.99140   0.77553   0.00000  Uiso   1.00
N1331  N     0.80016   0.76689   0.90060   0.00000  Uiso   1.00
N1332  N     0.68858   0.87176   0.70826   0.00000  Uiso   1.00
O1333  O     0.83333   0.83333   0.75000   0.00000  Uiso   1.00
O1334  O     0.82118   0.79304   0.65458   0.00000  Uiso   1.00
O1335  O     0.79607   0.87058   0.84968   0.00000  Uiso   1.00
O1336  O     0.87491   0.84425   0.64606   0.00000  Uiso   1.00
O1337  O     0.84118   0.82546   0.84968   0.00000  Uiso   1.00
O1338  O     0.80463   0.87720   0.62502   0.00000  Uiso   1.00
O1339  O     0.84597   0.74686   0.78213   0.00000  Uiso   1.00
O1340  O     0.81298   0.92751   0.77013   0.00000  Uiso   1.00
O1341  O     0.74078   0.79958   0.73413   0.00000  Uiso   1.00
O1342  O     0.93360   0.85939   0.71360   0.00000  Uiso   1.00
O1343  O     0.73738   0.85544   0.78213   0.00000  Uiso   1.00
O1344  O     0.92158   0.81892   0.77013   0.00000  Uiso   1.00
O1345  O     0.80426   0.73610   0.73413   0.00000  Uiso   1.00
O1346  O     0.87012   0.92286   0.71360   0.00000  Uiso   1.00
Zn1347 Zn    0.86005   0.80661   0.78734   0.00000  Uiso   1.00
Zn1348 Zn    0.80046   0.79124   0.71875   0.00000  Uiso   1.00
Zn1349 Zn    0.87723   0.86442   0.70657   0.00000  Uiso   1.00
Zn1350 Zn    0.79560   0.87106   0.78733   0.00000  Uiso   1.00
loop_
_geom_bond_atom_site_label_1
_geom_bond_atom_site_label_2
_geom_bond_distance
_geom_bond_site_symmetry_2
_ccdc_geom_bond_type
C1     O68     1.266   .     A
C1     O66     1.260   .     A
C1     C7      1.440   .     S
C2     C16     1.413   .     A
C2     C20     1.494   .     S
C2     C26     1.421   .     A
C3     H30     1.084   .     S
C3     C15     1.385   .     A
C3     C16     1.396   .     A
C4     O69     1.281   .     A
C4     C6      1.467   .     S
C4     O67     1.296   .     A
C5     C17     1.404   .     A
C5     C14     1.473   .     S
C5     C25     1.426   .     A
C6     C82     1.359   .     S
C6     N132    1.427   .     S
C7     C156    1.359   1_455 S
C7     N204    1.433   1_455 S
C8     C11     1.454   .     S
C8     C234    1.347   .     S
C8     H266    1.088   .     S
C9     C10     1.439   .     S
C9     C458    1.347   1_545 S
C9     N505    1.442   1_545 S
C10    O70     1.267   .     A
C10    O64     1.290   .     A
C11    O71     1.279   .     A
C11    O65     1.266   .     A
C12    C17     1.384   .     A
C12    H51     1.083   .     S
C12    C698    1.386   .     S
C13    O61     1.275   .     A
C13    O59     1.273   .     A
C13    C16     1.447   .     S
C14    O62     1.287   .     A
C14    O60     1.286   .     A
C15    C702    1.398   1_554 S
C15    H723    1.084   1_554 S
C17    H49     1.084   .     S
C18    H53     1.110   .     S
C18    N54     1.448   .     S
C18    H31     1.111   .     S
C18    H107    1.111   .     S
C19    H36     1.108   .     S
C19    H35     1.111   .     S
C19    H484    1.110   1_545 S
C19    N505    1.451   1_545 S
C20    O63     1.221   .     D
C20    H37     1.085   .     S
C21    N56     1.450   .     S
C21    H39     1.105   .     S
C21    H40     1.111   .     S
C21    H42     1.110   .     S
C22    N57     1.446   .     S
C22    H44     1.110   .     S
C22    H45     1.111   .     S
C22    H196    1.111   1_455 S
C23    H50     1.079   .     S
C23    C687    1.386   1_554 S
C23    C699    1.414   1_554 S
C24    C25     1.425   .     A
C24    C698    1.414   .     S
C24    C701    1.422   .     S
C25    C29     1.426   .     A
C26    C699    1.422   1_554 S
C26    C702    1.416   1_554 S
C27    C28     1.391   .     A
C27    C701    1.416   .     S
C27    C690    1.398   .     S
C28    H47     1.082   .     S
C28    C29     1.402   .     A
C29    N56     1.436   .     S
H32    C168    1.111   1_455 S
H33    N55     1.030   .     S
H34    C244    1.110   .     S
H38    N56     1.032   .     S
H41    C458    1.088   1_545 S
H43    N57     1.031   .     S
H46    C97     1.111   .     S
H48    C690    1.084   .     S
H52    N54     1.032   .     S
N54    C82     1.433   .     S
N55    C234    1.442   .     S
N55    C244    1.451   .     S
N57    C156    1.427   1_455 S
O58    Zn75    1.929   .     S
O58    Zn74    1.948   .     S
O58    Zn72    1.977   .     S
O58    Zn73    1.939   .     S
O59    Zn73    1.939   .     S
O60    Zn75    1.950   .     S
O61    Zn74    1.935   .     S
O62    Zn72    1.926   .     S
O64    Zn72    1.927   .     S
O65    Zn75    1.939   .     S
O66    Zn73    1.936   .     S
O67    Zn74    1.949   .     S
O68    Zn75    1.941   .     S
O69    Zn72    1.934   .     S
O70    Zn73    1.946   .     S
O71    Zn74    1.930   .     S
C76    O143    1.266   .     A
C76    O141    1.260   .     A
C76    C82     1.440   .     S
C77    C91     1.413   .     A
C77    C95     1.494   .     S
C77    C101    1.421   .     A
C78    H105    1.084   .     S
C78    C90     1.385   .     A
C78    C91     1.396   .     A
C79    O144    1.281   .     A
C79    C81     1.467   .     S
C79    O142    1.296   .     A
C80    C92     1.404   .     A
C80    C89     1.473   .     S
C80    C100    1.426   .     A
C81    C157    1.359   .     S
C81    N207    1.427   .     S
C83    C86     1.454   .     S
C83    C309    1.347   .     S
C83    H341    1.088   .     S
C84    C85     1.439   .     S
C84    C533    1.347   1_545 S
C84    N580    1.442   1_545 S
C85    O145    1.267   .     A
C85    O139    1.290   .     A
C86    O146    1.279   .     A
C86    O140    1.266   .     A
C87    C92     1.384   .     A
C87    H126    1.083   .     S
C87    C773    1.386   .     S
C88    O136    1.275   .     A
C88    O134    1.273   .     A
C88    C91     1.447   .     S
C89    O137    1.287   .     A
C89    O135    1.286   .     A
C90    C777    1.398   1_554 S
C90    H798    1.084   1_554 S
C92    H124    1.084   .     S
C93    H128    1.110   .     S
C93    N129    1.448   .     S
C93    H106    1.111   .     S
C93    H182    1.111   .     S
C94    H111    1.108   .     S
C94    H110    1.111   .     S
C94    H559    1.110   1_545 S
C94    N580    1.451   1_545 S
C95    O138    1.221   .     D
C95    H112    1.085   .     S
C96    N131    1.450   .     S
C96    H114    1.105   .     S
C96    H115    1.111   .     S
C96    H117    1.110   .     S
C97    N132    1.446   .     S
C97    H119    1.110   .     S
C97    H120    1.111   .     S
C98    H125    1.079   .     S
C98    C762    1.386   1_554 S
C98    C774    1.414   1_554 S
C99    C100    1.425   .     A
C99    C773    1.414   .     S
C99    C776    1.422   .     S
C100   C104    1.426   .     A
C101   C774    1.422   1_554 S
C101   C777    1.416   1_554 S
C102   C103    1.391   .     A
C102   C776    1.416   .     S
C102   C765    1.398   .     S
C103   H122    1.082   .     S
C103   C104    1.402   .     A
C104   N131    1.436   .     S
H108   N130    1.030   .     S
H109   C319    1.110   .     S
H113   N131    1.032   .     S
H116   C533    1.088   1_545 S
H118   N132    1.031   .     S
H121   C172    1.111   .     S
H123   C765    1.084   .     S
H127   N129    1.032   .     S
N129   C157    1.433   .     S
N130   C309    1.442   .     S
N130   C319    1.451   .     S
O133   Zn150   1.929   .     S
O133   Zn149   1.948   .     S
O133   Zn147   1.977   .     S
O133   Zn148   1.939   .     S
O134   Zn148   1.939   .     S
O135   Zn150   1.950   .     S
O136   Zn149   1.935   .     S
O137   Zn147   1.926   .     S
O139   Zn147   1.927   .     S
O140   Zn150   1.939   .     S
O141   Zn148   1.936   .     S
O142   Zn149   1.949   .     S
O143   Zn150   1.941   .     S
O144   Zn147   1.934   .     S
O145   Zn148   1.946   .     S
O146   Zn149   1.930   .     S
C151   O218    1.266   .     A
C151   O216    1.260   .     A
C151   C157    1.440   .     S
C152   C166    1.413   .     A
C152   C170    1.494   .     S
C152   C176    1.421   .     A
C153   H180    1.084   .     S
C153   C165    1.385   .     A
C153   C166    1.396   .     A
C154   O219    1.281   .     A
C154   C156    1.467   .     S
C154   O217    1.296   .     A
C155   C167    1.404   .     A
C155   C164    1.473   .     S
C155   C175    1.426   .     A
C156   C7      1.359   1_655 S
C156   N57     1.427   1_655 S
C158   C161    1.454   .     S
C158   C384    1.347   .     S
C158   H416    1.088   .     S
C159   C160    1.439   .     S
C159   C608    1.347   1_545 S
C159   N655    1.442   1_545 S
C160   O220    1.267   .     A
C160   O214    1.290   .     A
C161   O221    1.279   .     A
C161   O215    1.266   .     A
C162   C167    1.384   .     A
C162   H201    1.083   .     S
C162   C848    1.386   .     S
C163   O211    1.275   .     A
C163   O209    1.273   .     A
C163   C166    1.447   .     S
C164   O212    1.287   .     A
C164   O210    1.286   .     A
C165   C852    1.398   1_554 S
C165   H873    1.084   1_554 S
C167   H199    1.084   .     S
C168   H203    1.110   .     S
C168   N204    1.448   .     S
C168   H181    1.111   .     S
C168   H32     1.111   1_655 S
C169   H186    1.108   .     S
C169   H185    1.111   .     S
C169   H634    1.110   1_545 S
C169   N655    1.451   1_545 S
C170   O213    1.221   .     D
C170   H187    1.085   .     S
C171   N206    1.450   .     S
C171   H189    1.105   .     S
C171   H190    1.111   .     S
C171   H192    1.110   .     S
C172   N207    1.446   .     S
C172   H194    1.110   .     S
C172   H195    1.111   .     S
C173   H200    1.079   .     S
C173   C837    1.386   1_554 S
C173   C849    1.414   1_554 S
C174   C175    1.425   .     A
C174   C848    1.414   .     S
C174   C851    1.422   .     S
C175   C179    1.426   .     A
C176   C849    1.422   1_554 S
C176   C852    1.416   1_554 S
C177   C178    1.391   .     A
C177   C851    1.416   .     S
C177   C840    1.398   .     S
C178   H197    1.082   .     S
C178   C179    1.402   .     A
C179   N206    1.436   .     S
H183   N205    1.030   .     S
H184   C394    1.110   .     S
H188   N206    1.032   .     S
H191   C608    1.088   1_545 S
H193   N207    1.031   .     S
H196   C22     1.111   1_655 S
H198   C840    1.084   .     S
H202   N204    1.032   .     S
N204   C7      1.433   1_655 S
N205   C384    1.442   .     S
N205   C394    1.451   .     S
O208   Zn225   1.929   .     S
O208   Zn224   1.948   .     S
O208   Zn222   1.977   .     S
O208   Zn223   1.939   .     S
O209   Zn223   1.939   .     S
O210   Zn225   1.950   .     S
O211   Zn224   1.935   .     S
O212   Zn222   1.926   .     S
O214   Zn222   1.927   .     S
O215   Zn225   1.939   .     S
O216   Zn223   1.936   .     S
O217   Zn224   1.949   .     S
O218   Zn225   1.941   .     S
O219   Zn222   1.934   .     S
O220   Zn223   1.946   .     S
O221   Zn224   1.930   .     S
C226   O293    1.266   .     A
C226   O291    1.260   .     A
C226   C232    1.440   .     S
C227   C241    1.413   .     A
C227   C245    1.494   .     S
C227   C251    1.421   .     A
C228   H255    1.084   .     S
C228   C240    1.385   .     A
C228   C241    1.396   .     A
C229   O294    1.281   .     A
C229   C231    1.467   .     S
C229   O292    1.296   .     A
C230   C242    1.404   .     A
C230   C239    1.473   .     S
C230   C250    1.426   .     A
C231   C307    1.359   .     S
C231   N357    1.427   .     S
C232   C381    1.359   1_455 S
C232   N429    1.433   1_455 S
C233   C236    1.454   .     S
C233   C459    1.347   .     S
C233   H491    1.088   .     S
C234   C235    1.439   .     S
C235   O295    1.267   .     A
C235   O289    1.290   .     A
C236   O296    1.279   .     A
C236   O290    1.266   .     A
C237   C242    1.384   .     A
C237   H276    1.083   .     S
C237   C923    1.386   .     S
C238   O286    1.275   .     A
C238   O284    1.273   .     A
C238   C241    1.447   .     S
C239   O287    1.287   .     A
C239   O285    1.286   .     A
C240   C927    1.398   1_554 S
C240   H948    1.084   1_554 S
C242   H274    1.084   .     S
C243   H278    1.110   .     S
C243   N279    1.448   .     S
C243   H256    1.111   .     S
C243   H332    1.111   .     S
C244   H261    1.108   .     S
C244   H260    1.111   .     S
C245   O288    1.221   .     D
C245   H262    1.085   .     S
C246   N281    1.450   .     S
C246   H264    1.105   .     S
C246   H265    1.111   .     S
C246   H267    1.110   .     S
C247   N282    1.446   .     S
C247   H269    1.110   .     S
C247   H270    1.111   .     S
C247   H421    1.111   1_455 S
C248   H275    1.079   .     S
C248   C912    1.386   1_554 S
C248   C924    1.414   1_554 S
C249   C250    1.425   .     A
C249   C923    1.414   .     S
C249   C926    1.422   .     S
C250   C254    1.426   .     A
C251   C924    1.422   1_554 S
C251   C927    1.416   1_554 S
C252   C253    1.391   .     A
C252   C926    1.416   .     S
C252   C915    1.398   .     S
C253   H272    1.082   .     S
C253   C254    1.402   .     A
C254   N281    1.436   .     S
H257   C393    1.111   1_455 S
H258   N280    1.030   .     S
H259   C469    1.110   .     S
H263   N281    1.032   .     S
H268   N282    1.031   .     S
H271   C322    1.111   .     S
H273   C915    1.084   .     S
H277   N279    1.032   .     S
N279   C307    1.433   .     S
N280   C459    1.442   .     S
N280   C469    1.451   .     S
N282   C381    1.427   1_455 S
O283   Zn300   1.929   .     S
O283   Zn299   1.948   .     S
O283   Zn297   1.977   .     S
O283   Zn298   1.939   .     S
O284   Zn298   1.939   .     S
O285   Zn300   1.950   .     S
O286   Zn299   1.935   .     S
O287   Zn297   1.926   .     S
O289   Zn297   1.927   .     S
O290   Zn300   1.939   .     S
O291   Zn298   1.936   .     S
O292   Zn299   1.949   .     S
O293   Zn300   1.941   .     S
O294   Zn297   1.934   .     S
O295   Zn298   1.946   .     S
O296   Zn299   1.930   .     S
C301   O368    1.266   .     A
C301   O366    1.260   .     A
C301   C307    1.440   .     S
C302   C316    1.413   .     A
C302   C320    1.494   .     S
C302   C326    1.421   .     A
C303   H330    1.084   .     S
C303   C315    1.385   .     A
C303   C316    1.396   .     A
C304   O369    1.281   .     A
C304   C306    1.467   .     S
C304   O367    1.296   .     A
C305   C317    1.404   .     A
C305   C314    1.473   .     S
C305   C325    1.426   .     A
C306   C382    1.359   .     S
C306   N432    1.427   .     S
C308   C311    1.454   .     S
C308   C534    1.347   .     S
C308   H566    1.088   .     S
C309   C310    1.439   .     S
C310   O370    1.267   .     A
C310   O364    1.290   .     A
C311   O371    1.279   .     A
C311   O365    1.266   .     A
C312   C317    1.384   .     A
C312   H351    1.083   .     S
C312   C998    1.386   .     S
C313   O361    1.275   .     A
C313   O359    1.273   .     A
C313   C316    1.447   .     S
C314   O362    1.287   .     A
C314   O360    1.286   .     A
C315   C1002   1.398   1_554 S
C315   H1023   1.084   1_554 S
C317   H349    1.084   .     S
C318   H353    1.110   .     S
C318   N354    1.448   .     S
C318   H331    1.111   .     S
C318   H407    1.111   .     S
C319   H336    1.108   .     S
C319   H335    1.111   .     S
C320   O363    1.221   .     D
C320   H337    1.085   .     S
C321   N356    1.450   .     S
C321   H339    1.105   .     S
C321   H340    1.111   .     S
C321   H342    1.110   .     S
C322   N357    1.446   .     S
C322   H344    1.110   .     S
C322   H345    1.111   .     S
C323   H350    1.079   .     S
C323   C987    1.386   1_554 S
C323   C999    1.414   1_554 S
C324   C325    1.425   .     A
C324   C998    1.414   .     S
C324   C1001   1.422   .     S
C325   C329    1.426   .     A
C326   C999    1.422   1_554 S
C326   C1002   1.416   1_554 S
C327   C328    1.391   .     A
C327   C1001   1.416   .     S
C327   C990    1.398   .     S
C328   H347    1.082   .     S
C328   C329    1.402   .     A
C329   N356    1.436   .     S
H333   N355    1.030   .     S
H334   C544    1.110   .     S
H338   N356    1.032   .     S
H343   N357    1.031   .     S
H346   C397    1.111   .     S
H348   C990    1.084   .     S
H352   N354    1.032   .     S
N354   C382    1.433   .     S
N355   C534    1.442   .     S
N355   C544    1.451   .     S
O358   Zn375   1.929   .     S
O358   Zn374   1.948   .     S
O358   Zn372   1.977   .     S
O358   Zn373   1.939   .     S
O359   Zn373   1.939   .     S
O360   Zn375   1.950   .     S
O361   Zn374   1.935   .     S
O362   Zn372   1.926   .     S
O364   Zn372   1.927   .     S
O365   Zn375   1.939   .     S
O366   Zn373   1.936   .     S
O367   Zn374   1.949   .     S
O368   Zn375   1.941   .     S
O369   Zn372   1.934   .     S
O370   Zn373   1.946   .     S
O371   Zn374   1.930   .     S
C376   O443    1.266   .     A
C376   O441    1.260   .     A
C376   C382    1.440   .     S
C377   C391    1.413   .     A
C377   C395    1.494   .     S
C377   C401    1.421   .     A
C378   H405    1.084   .     S
C378   C390    1.385   .     A
C378   C391    1.396   .     A
C379   O444    1.281   .     A
C379   C381    1.467   .     S
C379   O442    1.296   .     A
C380   C392    1.404   .     A
C380   C389    1.473   .     S
C380   C400    1.426   .     A
C381   C232    1.359   1_655 S
C381   N282    1.427   1_655 S
C383   C386    1.454   .     S
C383   C609    1.347   .     S
C383   H641    1.088   .     S
C384   C385    1.439   .     S
C385   O445    1.267   .     A
C385   O439    1.290   .     A
C386   O446    1.279   .     A
C386   O440    1.266   .     A
C387   C392    1.384   .     A
C387   H426    1.083   .     S
C387   C1073   1.386   .     S
C388   O436    1.275   .     A
C388   O434    1.273   .     A
C388   C391    1.447   .     S
C389   O437    1.287   .     A
C389   O435    1.286   .     A
C390   C1077   1.398   1_554 S
C390   H1098   1.084   1_554 S
C392   H424    1.084   .     S
C393   H428    1.110   .     S
C393   N429    1.448   .     S
C393   H406    1.111   .     S
C393   H257    1.111   1_655 S
C394   H411    1.108   .     S
C394   H410    1.111   .     S
C395   O438    1.221   .     D
C395   H412    1.085   .     S
C396   N431    1.450   .     S
C396   H414    1.105   .     S
C396   H415    1.111   .     S
C396   H417    1.110   .     S
C397   N432    1.446   .     S
C397   H419    1.110   .     S
C397   H420    1.111   .     S
C398   H425    1.079   .     S
C398   C1062   1.386   1_554 S
C398   C1074   1.414   1_554 S
C399   C400    1.425   .     A
C399   C1073   1.414   .     S
C399   C1076   1.422   .     S
C400   C404    1.426   .     A
C401   C1074   1.422   1_554 S
C401   C1077   1.416   1_554 S
C402   C403    1.391   .     A
C402   C1076   1.416   .     S
C402   C1065   1.398   .     S
C403   H422    1.082   .     S
C403   C404    1.402   .     A
C404   N431    1.436   .     S
H408   N430    1.030   .     S
H409   C619    1.110   .     S
H413   N431    1.032   .     S
H418   N432    1.031   .     S
H421   C247    1.111   1_655 S
H423   C1065   1.084   .     S
H427   N429    1.032   .     S
N429   C232    1.433   1_655 S
N430   C609    1.442   .     S
N430   C619    1.451   .     S
O433   Zn450   1.929   .     S
O433   Zn449   1.948   .     S
O433   Zn447   1.977   .     S
O433   Zn448   1.939   .     S
O434   Zn448   1.939   .     S
O435   Zn450   1.950   .     S
O436   Zn449   1.935   .     S
O437   Zn447   1.926   .     S
O439   Zn447   1.927   .     S
O440   Zn450   1.939   .     S
O441   Zn448   1.936   .     S
O442   Zn449   1.949   .     S
O443   Zn450   1.941   .     S
O444   Zn447   1.934   .     S
O445   Zn448   1.946   .     S
O446   Zn449   1.930   .     S
C451   O518    1.266   .     A
C451   O516    1.260   .     A
C451   C457    1.440   .     S
C452   C466    1.413   .     A
C452   C470    1.494   .     S
C452   C476    1.421   .     A
C453   H480    1.084   .     S
C453   C465    1.385   .     A
C453   C466    1.396   .     A
C454   O519    1.281   .     A
C454   C456    1.467   .     S
C454   O517    1.296   .     A
C455   C467    1.404   .     A
C455   C464    1.473   .     S
C455   C475    1.426   .     A
C456   C532    1.359   .     S
C456   N582    1.427   .     S
C457   C606    1.359   1_455 S
C457   N654    1.433   1_455 S
C458   C461    1.454   .     S
C458   C9      1.347   1_565 S
C458   H41     1.088   1_565 S
C459   C460    1.439   .     S
C460   O520    1.267   .     A
C460   O514    1.290   .     A
C461   O521    1.279   .     A
C461   O515    1.266   .     A
C462   C467    1.384   .     A
C462   H501    1.083   .     S
C462   C1148   1.386   .     S
C463   O511    1.275   .     A
C463   O509    1.273   .     A
C463   C466    1.447   .     S
C464   O512    1.287   .     A
C464   O510    1.286   .     A
C465   C1152   1.398   1_554 S
C465   H1173   1.084   1_554 S
C467   H499    1.084   .     S
C468   H503    1.110   .     S
C468   N504    1.448   .     S
C468   H481    1.111   .     S
C468   H557    1.111   .     S
C469   H486    1.108   .     S
C469   H485    1.111   .     S
C470   O513    1.221   .     D
C470   H487    1.085   .     S
C471   N506    1.450   .     S
C471   H489    1.105   .     S
C471   H490    1.111   .     S
C471   H492    1.110   .     S
C472   N507    1.446   .     S
C472   H494    1.110   .     S
C472   H495    1.111   .     S
C472   H646    1.111   1_455 S
C473   H500    1.079   .     S
C473   C1137   1.386   1_554 S
C473   C1149   1.414   1_554 S
C474   C475    1.425   .     A
C474   C1148   1.414   .     S
C474   C1151   1.422   .     S
C475   C479    1.426   .     A
C476   C1149   1.422   1_554 S
C476   C1152   1.416   1_554 S
C477   C478    1.391   .     A
C477   C1151   1.416   .     S
C477   C1140   1.398   .     S
C478   H497    1.082   .     S
C478   C479    1.402   .     A
C479   N506    1.436   .     S
H482   C618    1.111   1_455 S
H483   N505    1.030   .     S
H484   C19     1.110   1_565 S
H488   N506    1.032   .     S
H493   N507    1.031   .     S
H496   C547    1.111   .     S
H498   C1140   1.084   .     S
H502   N504    1.032   .     S
N504   C532    1.433   .     S
N505   C9      1.442   1_565 S
N505   C19     1.451   1_565 S
N507   C606    1.427   1_455 S
O508   Zn525   1.929   .     S
O508   Zn524   1.948   .     S
O508   Zn522   1.977   .     S
O508   Zn523   1.939   .     S
O509   Zn523   1.939   .     S
O510   Zn525   1.950   .     S
O511   Zn524   1.935   .     S
O512   Zn522   1.926   .     S
O514   Zn522   1.927   .     S
O515   Zn525   1.939   .     S
O516   Zn523   1.936   .     S
O517   Zn524   1.949   .     S
O518   Zn525   1.941   .     S
O519   Zn522   1.934   .     S
O520   Zn523   1.946   .     S
O521   Zn524   1.930   .     S
C526   O593    1.266   .     A
C526   O591    1.260   .     A
C526   C532    1.440   .     S
C527   C541    1.413   .     A
C527   C545    1.494   .     S
C527   C551    1.421   .     A
C528   H555    1.084   .     S
C528   C540    1.385   .     A
C528   C541    1.396   .     A
C529   O594    1.281   .     A
C529   C531    1.467   .     S
C529   O592    1.296   .     A
C530   C542    1.404   .     A
C530   C539    1.473   .     S
C530   C550    1.426   .     A
C531   C607    1.359   .     S
C531   N657    1.427   .     S
C533   C536    1.454   .     S
C533   C84     1.347   1_565 S
C533   H116    1.088   1_565 S
C534   C535    1.439   .     S
C535   O595    1.267   .     A
C535   O589    1.290   .     A
C536   O596    1.279   .     A
C536   O590    1.266   .     A
C537   C542    1.384   .     A
C537   H576    1.083   .     S
C537   C1223   1.386   .     S
C538   O586    1.275   .     A
C538   O584    1.273   .     A
C538   C541    1.447   .     S
C539   O587    1.287   .     A
C539   O585    1.286   .     A
C540   C1227   1.398   1_554 S
C540   H1248   1.084   1_554 S
C542   H574    1.084   .     S
C543   H578    1.110   .     S
C543   N579    1.448   .     S
C543   H556    1.111   .     S
C543   H632    1.111   .     S
C544   H561    1.108   .     S
C544   H560    1.111   .     S
C545   O588    1.221   .     D
C545   H562    1.085   .     S
C546   N581    1.450   .     S
C546   H564    1.105   .     S
C546   H565    1.111   .     S
C546   H567    1.110   .     S
C547   N582    1.446   .     S
C547   H569    1.110   .     S
C547   H570    1.111   .     S
C548   H575    1.079   .     S
C548   C1212   1.386   1_554 S
C548   C1224   1.414   1_554 S
C549   C550    1.425   .     A
C549   C1223   1.414   .     S
C549   C1226   1.422   .     S
C550   C554    1.426   .     A
C551   C1224   1.422   1_554 S
C551   C1227   1.416   1_554 S
C552   C553    1.391   .     A
C552   C1226   1.416   .     S
C552   C1215   1.398   .     S
C553   H572    1.082   .     S
C553   C554    1.402   .     A
C554   N581    1.436   .     S
H558   N580    1.030   .     S
H559   C94     1.110   1_565 S
H563   N581    1.032   .     S
H568   N582    1.031   .     S
H571   C622    1.111   .     S
H573   C1215   1.084   .     S
H577   N579    1.032   .     S
N579   C607    1.433   .     S
N580   C84     1.442   1_565 S
N580   C94     1.451   1_565 S
O583   Zn600   1.929   .     S
O583   Zn599   1.948   .     S
O583   Zn597   1.977   .     S
O583   Zn598   1.939   .     S
O584   Zn598   1.939   .     S
O585   Zn600   1.950   .     S
O586   Zn599   1.935   .     S
O587   Zn597   1.926   .     S
O589   Zn597   1.927   .     S
O590   Zn600   1.939   .     S
O591   Zn598   1.936   .     S
O592   Zn599   1.949   .     S
O593   Zn600   1.941   .     S
O594   Zn597   1.934   .     S
O595   Zn598   1.946   .     S
O596   Zn599   1.930   .     S
C601   O668    1.266   .     A
C601   O666    1.260   .     A
C601   C607    1.440   .     S
C602   C616    1.413   .     A
C602   C620    1.494   .     S
C602   C626    1.421   .     A
C603   H630    1.084   .     S
C603   C615    1.385   .     A
C603   C616    1.396   .     A
C604   O669    1.281   .     A
C604   C606    1.467   .     S
C604   O667    1.296   .     A
C605   C617    1.404   .     A
C605   C614    1.473   .     S
C605   C625    1.426   .     A
C606   C457    1.359   1_655 S
C606   N507    1.427   1_655 S
C608   C611    1.454   .     S
C608   C159    1.347   1_565 S
C608   H191    1.088   1_565 S
C609   C610    1.439   .     S
C610   O670    1.267   .     A
C610   O664    1.290   .     A
C611   O671    1.279   .     A
C611   O665    1.266   .     A
C612   C617    1.384   .     A
C612   H651    1.083   .     S
C612   C1298   1.386   .     S
C613   O661    1.275   .     A
C613   O659    1.273   .     A
C613   C616    1.447   .     S
C614   O662    1.287   .     A
C614   O660    1.286   .     A
C615   C1302   1.398   1_554 S
C615   H1323   1.084   1_554 S
C617   H649    1.084   .     S
C618   H653    1.110   .     S
C618   N654    1.448   .     S
C618   H631    1.111   .     S
C618   H482    1.111   1_655 S
C619   H636    1.108   .     S
C619   H635    1.111   .     S
C620   O663    1.221   .     D
C620   H637    1.085   .     S
C621   N656    1.450   .     S
C621   H639    1.105   .     S
C621   H640    1.111   .     S
C621   H642    1.110   .     S
C622   N657    1.446   .     S
C622   H644    1.110   .     S
C622   H645    1.111   .     S
C623   H650    1.079   .     S
C623   C1287   1.386   1_554 S
C623   C1299   1.414   1_554 S
C624   C625    1.425   .     A
C624   C1298   1.414   .     S
C624   C1301   1.422   .     S
C625   C629    1.426   .     A
C626   C1299   1.422   1_554 S
C626   C1302   1.416   1_554 S
C627   C628    1.391   .     A
C627   C1301   1.416   .     S
C627   C1290   1.398   .     S
C628   H647    1.082   .     S
C628   C629    1.402   .     A
C629   N656    1.436   .     S
H633   N655    1.030   .     S
H634   C169    1.110   1_565 S
H638   N656    1.032   .     S
H643   N657    1.031   .     S
H646   C472    1.111   1_655 S
H648   C1290   1.084   .     S
H652   N654    1.032   .     S
N654   C457    1.433   1_655 S
N655   C159    1.442   1_565 S
N655   C169    1.451   1_565 S
O658   Zn675   1.929   .     S
O658   Zn674   1.948   .     S
O658   Zn672   1.977   .     S
O658   Zn673   1.939   .     S
O659   Zn673   1.939   .     S
O660   Zn675   1.950   .     S
O661   Zn674   1.935   .     S
O662   Zn672   1.926   .     S
O664   Zn672   1.927   .     S
O665   Zn675   1.939   .     S
O666   Zn673   1.936   .     S
O667   Zn674   1.949   .     S
O668   Zn675   1.941   .     S
O669   Zn672   1.934   .     S
O670   Zn673   1.946   .     S
O671   Zn674   1.930   .     S
C676   O743    1.266   .     A
C676   O741    1.260   .     A
C676   C682    1.440   .     S
C677   C691    1.413   .     A
C677   C695    1.494   .     S
C677   C701    1.421   .     A
C678   H705    1.084   .     S
C678   C690    1.385   .     A
C678   C691    1.396   .     A
C679   O744    1.281   .     A
C679   C681    1.467   .     S
C679   O742    1.296   .     A
C680   C692    1.404   .     A
C680   C689    1.473   .     S
C680   C700    1.426   .     A
C681   C757    1.359   .     S
C681   N807    1.427   .     S
C682   C831    1.359   1_455 S
C682   N879    1.433   1_455 S
C683   C686    1.454   .     S
C683   C909    1.347   .     S
C683   H941    1.088   .     S
C684   C685    1.439   .     S
C684   C1133   1.347   1_545 S
C684   N1180   1.442   1_545 S
C685   O745    1.267   .     A
C685   O739    1.290   .     A
C686   O746    1.279   .     A
C686   O740    1.266   .     A
C687   C692    1.384   .     A
C687   H726    1.083   .     S
C687   C23     1.386   1_556 S
C688   O736    1.275   .     A
C688   O734    1.273   .     A
C688   C691    1.447   .     S
C689   O737    1.287   .     A
C689   O735    1.286   .     A
C692   H724    1.084   .     S
C693   H728    1.110   .     S
C693   N729    1.448   .     S
C693   H706    1.111   .     S
C693   H782    1.111   .     S
C694   H711    1.108   .     S
C694   H710    1.111   .     S
C694   H1159   1.110   1_545 S
C694   N1180   1.451   1_545 S
C695   O738    1.221   .     D
C695   H712    1.085   .     S
C696   N731    1.450   .     S
C696   H714    1.105   .     S
C696   H715    1.111   .     S
C696   H717    1.110   .     S
C697   N732    1.446   .     S
C697   H719    1.110   .     S
C697   H720    1.111   .     S
C697   H871    1.111   1_455 S
C698   H725    1.079   .     S
C699   C700    1.425   .     A
C699   C23     1.414   1_556 S
C699   C26     1.422   1_556 S
C700   C704    1.426   .     A
C702   C703    1.391   .     A
C702   C26     1.416   1_556 S
C702   C15     1.398   1_556 S
C703   H722    1.082   .     S
C703   C704    1.402   .     A
C704   N731    1.436   .     S
H707   C843    1.111   1_455 S
H708   N730    1.030   .     S
H709   C919    1.110   .     S
H713   N731    1.032   .     S
H716   C1133   1.088   1_545 S
H718   N732    1.031   .     S
H721   C772    1.111   .     S
H723   C15     1.084   1_556 S
H727   N729    1.032   .     S
N729   C757    1.433   .     S
N730   C909    1.442   .     S
N730   C919    1.451   .     S
N732   C831    1.427   1_455 S
O733   Zn750   1.929   .     S
O733   Zn749   1.948   .     S
O733   Zn747   1.977   .     S
O733   Zn748   1.939   .     S
O734   Zn748   1.939   .     S
O735   Zn750   1.950   .     S
O736   Zn749   1.935   .     S
O737   Zn747   1.926   .     S
O739   Zn747   1.927   .     S
O740   Zn750   1.939   .     S
O741   Zn748   1.936   .     S
O742   Zn749   1.949   .     S
O743   Zn750   1.941   .     S
O744   Zn747   1.934   .     S
O745   Zn748   1.946   .     S
O746   Zn749   1.930   .     S
C751   O818    1.266   .     A
C751   O816    1.260   .     A
C751   C757    1.440   .     S
C752   C766    1.413   .     A
C752   C770    1.494   .     S
C752   C776    1.421   .     A
C753   H780    1.084   .     S
C753   C765    1.385   .     A
C753   C766    1.396   .     A
C754   O819    1.281   .     A
C754   C756    1.467   .     S
C754   O817    1.296   .     A
C755   C767    1.404   .     A
C755   C764    1.473   .     S
C755   C775    1.426   .     A
C756   C832    1.359   .     S
C756   N882    1.427   .     S
C758   C761    1.454   .     S
C758   C984    1.347   .     S
C758   H1016   1.088   .     S
C759   C760    1.439   .     S
C759   C1208   1.347   1_545 S
C759   N1255   1.442   1_545 S
C760   O820    1.267   .     A
C760   O814    1.290   .     A
C761   O821    1.279   .     A
C761   O815    1.266   .     A
C762   C767    1.384   .     A
C762   H801    1.083   .     S
C762   C98     1.386   1_556 S
C763   O811    1.275   .     A
C763   O809    1.273   .     A
C763   C766    1.447   .     S
C764   O812    1.287   .     A
C764   O810    1.286   .     A
C767   H799    1.084   .     S
C768   H803    1.110   .     S
C768   N804    1.448   .     S
C768   H781    1.111   .     S
C768   H857    1.111   .     S
C769   H786    1.108   .     S
C769   H785    1.111   .     S
C769   H1234   1.110   1_545 S
C769   N1255   1.451   1_545 S
C770   O813    1.221   .     D
C770   H787    1.085   .     S
C771   N806    1.450   .     S
C771   H789    1.105   .     S
C771   H790    1.111   .     S
C771   H792    1.110   .     S
C772   N807    1.446   .     S
C772   H794    1.110   .     S
C772   H795    1.111   .     S
C773   H800    1.079   .     S
C774   C775    1.425   .     A
C774   C98     1.414   1_556 S
C774   C101    1.422   1_556 S
C775   C779    1.426   .     A
C777   C778    1.391   .     A
C777   C101    1.416   1_556 S
C777   C90     1.398   1_556 S
C778   H797    1.082   .     S
C778   C779    1.402   .     A
C779   N806    1.436   .     S
H783   N805    1.030   .     S
H784   C994    1.110   .     S
H788   N806    1.032   .     S
H791   C1208   1.088   1_545 S
H793   N807    1.031   .     S
H796   C847    1.111   .     S
H798   C90     1.084   1_556 S
H802   N804    1.032   .     S
N804   C832    1.433   .     S
N805   C984    1.442   .     S
N805   C994    1.451   .     S
O808   Zn825   1.929   .     S
O808   Zn824   1.948   .     S
O808   Zn822   1.977   .     S
O808   Zn823   1.939   .     S
O809   Zn823   1.939   .     S
O810   Zn825   1.950   .     S
O811   Zn824   1.935   .     S
O812   Zn822   1.926   .     S
O814   Zn822   1.927   .     S
O815   Zn825   1.939   .     S
O816   Zn823   1.936   .     S
O817   Zn824   1.949   .     S
O818   Zn825   1.941   .     S
O819   Zn822   1.934   .     S
O820   Zn823   1.946   .     S
O821   Zn824   1.930   .     S
C826   O893    1.266   .     A
C826   O891    1.260   .     A
C826   C832    1.440   .     S
C827   C841    1.413   .     A
C827   C845    1.494   .     S
C827   C851    1.421   .     A
C828   H855    1.084   .     S
C828   C840    1.385   .     A
C828   C841    1.396   .     A
C829   O894    1.281   .     A
C829   C831    1.467   .     S
C829   O892    1.296   .     A
C830   C842    1.404   .     A
C830   C839    1.473   .     S
C830   C850    1.426   .     A
C831   C682    1.359   1_655 S
C831   N732    1.427   1_655 S
C833   C836    1.454   .     S
C833   C1059   1.347   .     S
C833   H1091   1.088   .     S
C834   C835    1.439   .     S
C834   C1283   1.347   1_545 S
C834   N1330   1.442   1_545 S
C835   O895    1.267   .     A
C835   O889    1.290   .     A
C836   O896    1.279   .     A
C836   O890    1.266   .     A
C837   C842    1.384   .     A
C837   H876    1.083   .     S
C837   C173    1.386   1_556 S
C838   O886    1.275   .     A
C838   O884    1.273   .     A
C838   C841    1.447   .     S
C839   O887    1.287   .     A
C839   O885    1.286   .     A
C842   H874    1.084   .     S
C843   H878    1.110   .     S
C843   N879    1.448   .     S
C843   H856    1.111   .     S
C843   H707    1.111   1_655 S
C844   H861    1.108   .     S
C844   H860    1.111   .     S
C844   H1309   1.110   1_545 S
C844   N1330   1.451   1_545 S
C845   O888    1.221   .     D
C845   H862    1.085   .     S
C846   N881    1.450   .     S
C846   H864    1.105   .     S
C846   H865    1.111   .     S
C846   H867    1.110   .     S
C847   N882    1.446   .     S
C847   H869    1.110   .     S
C847   H870    1.111   .     S
C848   H875    1.079   .     S
C849   C850    1.425   .     A
C849   C173    1.414   1_556 S
C849   C176    1.422   1_556 S
C850   C854    1.426   .     A
C852   C853    1.391   .     A
C852   C176    1.416   1_556 S
C852   C165    1.398   1_556 S
C853   H872    1.082   .     S
C853   C854    1.402   .     A
C854   N881    1.436   .     S
H858   N880    1.030   .     S
H859   C1069   1.110   .     S
H863   N881    1.032   .     S
H866   C1283   1.088   1_545 S
H868   N882    1.031   .     S
H871   C697    1.111   1_655 S
H873   C165    1.084   1_556 S
H877   N879    1.032   .     S
N879   C682    1.433   1_655 S
N880   C1059   1.442   .     S
N880   C1069   1.451   .     S
O883   Zn900   1.929   .     S
O883   Zn899   1.948   .     S
O883   Zn897   1.977   .     S
O883   Zn898   1.939   .     S
O884   Zn898   1.939   .     S
O885   Zn900   1.950   .     S
O886   Zn899   1.935   .     S
O887   Zn897   1.926   .     S
O889   Zn897   1.927   .     S
O890   Zn900   1.939   .     S
O891   Zn898   1.936   .     S
O892   Zn899   1.949   .     S
O893   Zn900   1.941   .     S
O894   Zn897   1.934   .     S
O895   Zn898   1.946   .     S
O896   Zn899   1.930   .     S
C901   O968    1.266   .     A
C901   O966    1.260   .     A
C901   C907    1.440   .     S
C902   C916    1.413   .     A
C902   C920    1.494   .     S
C902   C926    1.421   .     A
C903   H930    1.084   .     S
C903   C915    1.385   .     A
C903   C916    1.396   .     A
C904   O969    1.281   .     A
C904   C906    1.467   .     S
C904   O967    1.296   .     A
C905   C917    1.404   .     A
C905   C914    1.473   .     S
C905   C925    1.426   .     A
C906   C982    1.359   .     S
C906   N1032   1.427   .     S
C907   C1056   1.359   1_455 S
C907   N1104   1.433   1_455 S
C908   C911    1.454   .     S
C908   C1134   1.347   .     S
C908   H1166   1.088   .     S
C909   C910    1.439   .     S
C910   O970    1.267   .     A
C910   O964    1.290   .     A
C911   O971    1.279   .     A
C911   O965    1.266   .     A
C912   C917    1.384   .     A
C912   H951    1.083   .     S
C912   C248    1.386   1_556 S
C913   O961    1.275   .     A
C913   O959    1.273   .     A
C913   C916    1.447   .     S
C914   O962    1.287   .     A
C914   O960    1.286   .     A
C917   H949    1.084   .     S
C918   H953    1.110   .     S
C918   N954    1.448   .     S
C918   H931    1.111   .     S
C918   H1007   1.111   .     S
C919   H936    1.108   .     S
C919   H935    1.111   .     S
C920   O963    1.221   .     D
C920   H937    1.085   .     S
C921   N956    1.450   .     S
C921   H939    1.105   .     S
C921   H940    1.111   .     S
C921   H942    1.110   .     S
C922   N957    1.446   .     S
C922   H944    1.110   .     S
C922   H945    1.111   .     S
C922   H1096   1.111   1_455 S
C923   H950    1.079   .     S
C924   C925    1.425   .     A
C924   C248    1.414   1_556 S
C924   C251    1.422   1_556 S
C925   C929    1.426   .     A
C927   C928    1.391   .     A
C927   C251    1.416   1_556 S
C927   C240    1.398   1_556 S
C928   H947    1.082   .     S
C928   C929    1.402   .     A
C929   N956    1.436   .     S
H932   C1068   1.111   1_455 S
H933   N955    1.030   .     S
H934   C1144   1.110   .     S
H938   N956    1.032   .     S
H943   N957    1.031   .     S
H946   C997    1.111   .     S
H948   C240    1.084   1_556 S
H952   N954    1.032   .     S
N954   C982    1.433   .     S
N955   C1134   1.442   .     S
N955   C1144   1.451   .     S
N957   C1056   1.427   1_455 S
O958   Zn975   1.929   .     S
O958   Zn974   1.948   .     S
O958   Zn972   1.977   .     S
O958   Zn973   1.939   .     S
O959   Zn973   1.939   .     S
O960   Zn975   1.950   .     S
O961   Zn974   1.935   .     S
O962   Zn972   1.926   .     S
O964   Zn972   1.927   .     S
O965   Zn975   1.939   .     S
O966   Zn973   1.936   .     S
O967   Zn974   1.949   .     S
O968   Zn975   1.941   .     S
O969   Zn972   1.934   .     S
O970   Zn973   1.946   .     S
O971   Zn974   1.930   .     S
C976   O1043   1.266   .     A
C976   O1041   1.260   .     A
C976   C982    1.440   .     S
C977   C991    1.413   .     A
C977   C995    1.494   .     S
C977   C1001   1.421   .     A
C978   H1005   1.084   .     S
C978   C990    1.385   .     A
C978   C991    1.396   .     A
C979   O1044   1.281   .     A
C979   C981    1.467   .     S
C979   O1042   1.296   .     A
C980   C992    1.404   .     A
C980   C989    1.473   .     S
C980   C1000   1.426   .     A
C981   C1057   1.359   .     S
C981   N1107   1.427   .     S
C983   C986    1.454   .     S
C983   C1209   1.347   .     S
C983   H1241   1.088   .     S
C984   C985    1.439   .     S
C985   O1045   1.267   .     A
C985   O1039   1.290   .     A
C986   O1046   1.279   .     A
C986   O1040   1.266   .     A
C987   C992    1.384   .     A
C987   H1026   1.083   .     S
C987   C323    1.386   1_556 S
C988   O1036   1.275   .     A
C988   O1034   1.273   .     A
C988   C991    1.447   .     S
C989   O1037   1.287   .     A
C989   O1035   1.286   .     A
C992   H1024   1.084   .     S
C993   H1028   1.110   .     S
C993   N1029   1.448   .     S
C993   H1006   1.111   .     S
C993   H1082   1.111   .     S
C994   H1011   1.108   .     S
C994   H1010   1.111   .     S
C995   O1038   1.221   .     D
C995   H1012   1.085   .     S
C996   N1031   1.450   .     S
C996   H1014   1.105   .     S
C996   H1015   1.111   .     S
C996   H1017   1.110   .     S
C997   N1032   1.446   .     S
C997   H1019   1.110   .     S
C997   H1020   1.111   .     S
C998   H1025   1.079   .     S
C999   C1000   1.425   .     A
C999   C323    1.414   1_556 S
C999   C326    1.422   1_556 S
C1000  C1004   1.426   .     A
C1002  C1003   1.391   .     A
C1002  C326    1.416   1_556 S
C1002  C315    1.398   1_556 S
C1003  H1022   1.082   .     S
C1003  C1004   1.402   .     A
C1004  N1031   1.436   .     S
H1008  N1030   1.030   .     S
H1009  C1219   1.110   .     S
H1013  N1031   1.032   .     S
H1018  N1032   1.031   .     S
H1021  C1072   1.111   .     S
H1023  C315    1.084   1_556 S
H1027  N1029   1.032   .     S
N1029  C1057   1.433   .     S
N1030  C1209   1.442   .     S
N1030  C1219   1.451   .     S
O1033  Zn1050  1.929   .     S
O1033  Zn1049  1.948   .     S
O1033  Zn1047  1.977   .     S
O1033  Zn1048  1.939   .     S
O1034  Zn1048  1.939   .     S
O1035  Zn1050  1.950   .     S
O1036  Zn1049  1.935   .     S
O1037  Zn1047  1.926   .     S
O1039  Zn1047  1.927   .     S
O1040  Zn1050  1.939   .     S
O1041  Zn1048  1.936   .     S
O1042  Zn1049  1.949   .     S
O1043  Zn1050  1.941   .     S
O1044  Zn1047  1.934   .     S
O1045  Zn1048  1.946   .     S
O1046  Zn1049  1.930   .     S
C1051  O1118   1.266   .     A
C1051  O1116   1.260   .     A
C1051  C1057   1.440   .     S
C1052  C1066   1.413   .     A
C1052  C1070   1.494   .     S
C1052  C1076   1.421   .     A
C1053  H1080   1.084   .     S
C1053  C1065   1.385   .     A
C1053  C1066   1.396   .     A
C1054  O1119   1.281   .     A
C1054  C1056   1.467   .     S
C1054  O1117   1.296   .     A
C1055  C1067   1.404   .     A
C1055  C1064   1.473   .     S
C1055  C1075   1.426   .     A
C1056  C907    1.359   1_655 S
C1056  N957    1.427   1_655 S
C1058  C1061   1.454   .     S
C1058  C1284   1.347   .     S
C1058  H1316   1.088   .     S
C1059  C1060   1.439   .     S
C1060  O1120   1.267   .     A
C1060  O1114   1.290   .     A
C1061  O1121   1.279   .     A
C1061  O1115   1.266   .     A
C1062  C1067   1.384   .     A
C1062  H1101   1.083   .     S
C1062  C398    1.386   1_556 S
C1063  O1111   1.275   .     A
C1063  O1109   1.273   .     A
C1063  C1066   1.447   .     S
C1064  O1112   1.287   .     A
C1064  O1110   1.286   .     A
C1067  H1099   1.084   .     S
C1068  H1103   1.110   .     S
C1068  N1104   1.448   .     S
C1068  H1081   1.111   .     S
C1068  H932    1.111   1_655 S
C1069  H1086   1.108   .     S
C1069  H1085   1.111   .     S
C1070  O1113   1.221   .     D
C1070  H1087   1.085   .     S
C1071  N1106   1.450   .     S
C1071  H1089   1.105   .     S
C1071  H1090   1.111   .     S
C1071  H1092   1.110   .     S
C1072  N1107   1.446   .     S
C1072  H1094   1.110   .     S
C1072  H1095   1.111   .     S
C1073  H1100   1.079   .     S
C1074  C1075   1.425   .     A
C1074  C398    1.414   1_556 S
C1074  C401    1.422   1_556 S
C1075  C1079   1.426   .     A
C1077  C1078   1.391   .     A
C1077  C401    1.416   1_556 S
C1077  C390    1.398   1_556 S
C1078  H1097   1.082   .     S
C1078  C1079   1.402   .     A
C1079  N1106   1.436   .     S
H1083  N1105   1.030   .     S
H1084  C1294   1.110   .     S
H1088  N1106   1.032   .     S
H1093  N1107   1.031   .     S
H1096  C922    1.111   1_655 S
H1098  C390    1.084   1_556 S
H1102  N1104   1.032   .     S
N1104  C907    1.433   1_655 S
N1105  C1284   1.442   .     S
N1105  C1294   1.451   .     S
O1108  Zn1125  1.929   .     S
O1108  Zn1124  1.948   .     S
O1108  Zn1122  1.977   .     S
O1108  Zn1123  1.939   .     S
O1109  Zn1123  1.939   .     S
O1110  Zn1125  1.950   .     S
O1111  Zn1124  1.935   .     S
O1112  Zn1122  1.926   .     S
O1114  Zn1122  1.927   .     S
O1115  Zn1125  1.939   .     S
O1116  Zn1123  1.936   .     S
O1117  Zn1124  1.949   .     S
O1118  Zn1125  1.941   .     S
O1119  Zn1122  1.934   .     S
O1120  Zn1123  1.946   .     S
O1121  Zn1124  1.930   .     S
C1126  O1193   1.266   .     A
C1126  O1191   1.260   .     A
C1126  C1132   1.440   .     S
C1127  C1141   1.413   .     A
C1127  C1145   1.494   .     S
C1127  C1151   1.421   .     A
C1128  H1155   1.084   .     S
C1128  C1140   1.385   .     A
C1128  C1141   1.396   .     A
C1129  O1194   1.281   .     A
C1129  C1131   1.467   .     S
C1129  O1192   1.296   .     A
C1130  C1142   1.404   .     A
C1130  C1139   1.473   .     S
C1130  C1150   1.426   .     A
C1131  C1207   1.359   .     S
C1131  N1257   1.427   .     S
C1132  C1281   1.359   1_455 S
C1132  N1329   1.433   1_455 S
C1133  C1136   1.454   .     S
C1133  C684    1.347   1_565 S
C1133  H716    1.088   1_565 S
C1134  C1135   1.439   .     S
C1135  O1195   1.267   .     A
C1135  O1189   1.290   .     A
C1136  O1196   1.279   .     A
C1136  O1190   1.266   .     A
C1137  C1142   1.384   .     A
C1137  H1176   1.083   .     S
C1137  C473    1.386   1_556 S
C1138  O1186   1.275   .     A
C1138  O1184   1.273   .     A
C1138  C1141   1.447   .     S
C1139  O1187   1.287   .     A
C1139  O1185   1.286   .     A
C1142  H1174   1.084   .     S
C1143  H1178   1.110   .     S
C1143  N1179   1.448   .     S
C1143  H1156   1.111   .     S
C1143  H1232   1.111   .     S
C1144  H1161   1.108   .     S
C1144  H1160   1.111   .     S
C1145  O1188   1.221   .     D
C1145  H1162   1.085   .     S
C1146  N1181   1.450   .     S
C1146  H1164   1.105   .     S
C1146  H1165   1.111   .     S
C1146  H1167   1.110   .     S
C1147  N1182   1.446   .     S
C1147  H1169   1.110   .     S
C1147  H1170   1.111   .     S
C1147  H1321   1.111   1_455 S
C1148  H1175   1.079   .     S
C1149  C1150   1.425   .     A
C1149  C473    1.414   1_556 S
C1149  C476    1.422   1_556 S
C1150  C1154   1.426   .     A
C1152  C1153   1.391   .     A
C1152  C476    1.416   1_556 S
C1152  C465    1.398   1_556 S
C1153  H1172   1.082   .     S
C1153  C1154   1.402   .     A
C1154  N1181   1.436   .     S
H1157  C1293   1.111   1_455 S
H1158  N1180   1.030   .     S
H1159  C694    1.110   1_565 S
H1163  N1181   1.032   .     S
H1168  N1182   1.031   .     S
H1171  C1222   1.111   .     S
H1173  C465    1.084   1_556 S
H1177  N1179   1.032   .     S
N1179  C1207   1.433   .     S
N1180  C684    1.442   1_565 S
N1180  C694    1.451   1_565 S
N1182  C1281   1.427   1_455 S
O1183  Zn1200  1.929   .     S
O1183  Zn1199  1.948   .     S
O1183  Zn1197  1.977   .     S
O1183  Zn1198  1.939   .     S
O1184  Zn1198  1.939   .     S
O1185  Zn1200  1.950   .     S
O1186  Zn1199  1.935   .     S
O1187  Zn1197  1.926   .     S
O1189  Zn1197  1.927   .     S
O1190  Zn1200  1.939   .     S
O1191  Zn1198  1.936   .     S
O1192  Zn1199  1.949   .     S
O1193  Zn1200  1.941   .     S
O1194  Zn1197  1.934   .     S
O1195  Zn1198  1.946   .     S
O1196  Zn1199  1.930   .     S
C1201  O1268   1.266   .     A
C1201  O1266   1.260   .     A
C1201  C1207   1.440   .     S
C1202  C1216   1.413   .     A
C1202  C1220   1.494   .     S
C1202  C1226   1.421   .     A
C1203  H1230   1.084   .     S
C1203  C1215   1.385   .     A
C1203  C1216   1.396   .     A
C1204  O1269   1.281   .     A
C1204  C1206   1.467   .     S
C1204  O1267   1.296   .     A
C1205  C1217   1.404   .     A
C1205  C1214   1.473   .     S
C1205  C1225   1.426   .     A
C1206  C1282   1.359   .     S
C1206  N1332   1.427   .     S
C1208  C1211   1.454   .     S
C1208  C759    1.347   1_565 S
C1208  H791    1.088   1_565 S
C1209  C1210   1.439   .     S
C1210  O1270   1.267   .     A
C1210  O1264   1.290   .     A
C1211  O1271   1.279   .     A
C1211  O1265   1.266   .     A
C1212  C1217   1.384   .     A
C1212  H1251   1.083   .     S
C1212  C548    1.386   1_556 S
C1213  O1261   1.275   .     A
C1213  O1259   1.273   .     A
C1213  C1216   1.447   .     S
C1214  O1262   1.287   .     A
C1214  O1260   1.286   .     A
C1217  H1249   1.084   .     S
C1218  H1253   1.110   .     S
C1218  N1254   1.448   .     S
C1218  H1231   1.111   .     S
C1218  H1307   1.111   .     S
C1219  H1236   1.108   .     S
C1219  H1235   1.111   .     S
C1220  O1263   1.221   .     D
C1220  H1237   1.085   .     S
C1221  N1256   1.450   .     S
C1221  H1239   1.105   .     S
C1221  H1240   1.111   .     S
C1221  H1242   1.110   .     S
C1222  N1257   1.446   .     S
C1222  H1244   1.110   .     S
C1222  H1245   1.111   .     S
C1223  H1250   1.079   .     S
C1224  C1225   1.425   .     A
C1224  C548    1.414   1_556 S
C1224  C551    1.422   1_556 S
C1225  C1229   1.426   .     A
C1227  C1228   1.391   .     A
C1227  C551    1.416   1_556 S
C1227  C540    1.398   1_556 S
C1228  H1247   1.082   .     S
C1228  C1229   1.402   .     A
C1229  N1256   1.436   .     S
H1233  N1255   1.030   .     S
H1234  C769    1.110   1_565 S
H1238  N1256   1.032   .     S
H1243  N1257   1.031   .     S
H1246  C1297   1.111   .     S
H1248  C540    1.084   1_556 S
H1252  N1254   1.032   .     S
N1254  C1282   1.433   .     S
N1255  C759    1.442   1_565 S
N1255  C769    1.451   1_565 S
O1258  Zn1275  1.929   .     S
O1258  Zn1274  1.948   .     S
O1258  Zn1272  1.977   .     S
O1258  Zn1273  1.939   .     S
O1259  Zn1273  1.939   .     S
O1260  Zn1275  1.950   .     S
O1261  Zn1274  1.935   .     S
O1262  Zn1272  1.926   .     S
O1264  Zn1272  1.927   .     S
O1265  Zn1275  1.939   .     S
O1266  Zn1273  1.936   .     S
O1267  Zn1274  1.949   .     S
O1268  Zn1275  1.941   .     S
O1269  Zn1272  1.934   .     S
O1270  Zn1273  1.946   .     S
O1271  Zn1274  1.930   .     S
C1276  O1343   1.266   .     A
C1276  O1341   1.260   .     A
C1276  C1282   1.440   .     S
C1277  C1291   1.413   .     A
C1277  C1295   1.494   .     S
C1277  C1301   1.421   .     A
C1278  H1305   1.084   .     S
C1278  C1290   1.385   .     A
C1278  C1291   1.396   .     A
C1279  O1344   1.281   .     A
C1279  C1281   1.467   .     S
C1279  O1342   1.296   .     A
C1280  C1292   1.404   .     A
C1280  C1289   1.473   .     S
C1280  C1300   1.426   .     A
C1281  C1132   1.359   1_655 S
C1281  N1182   1.427   1_655 S
C1283  C1286   1.454   .     S
C1283  C834    1.347   1_565 S
C1283  H866    1.088   1_565 S
C1284  C1285   1.439   .     S
C1285  O1345   1.267   .     A
C1285  O1339   1.290   .     A
C1286  O1346   1.279   .     A
C1286  O1340   1.266   .     A
C1287  C1292   1.384   .     A
C1287  H1326   1.083   .     S
C1287  C623    1.386   1_556 S
C1288  O1336   1.275   .     A
C1288  O1334   1.273   .     A
C1288  C1291   1.447   .     S
C1289  O1337   1.287   .     A
C1289  O1335   1.286   .     A
C1292  H1324   1.084   .     S
C1293  H1328   1.110   .     S
C1293  N1329   1.448   .     S
C1293  H1306   1.111   .     S
C1293  H1157   1.111   1_655 S
C1294  H1311   1.108   .     S
C1294  H1310   1.111   .     S
C1295  O1338   1.221   .     D
C1295  H1312   1.085   .     S
C1296  N1331   1.450   .     S
C1296  H1314   1.105   .     S
C1296  H1315   1.111   .     S
C1296  H1317   1.110   .     S
C1297  N1332   1.446   .     S
C1297  H1319   1.110   .     S
C1297  H1320   1.111   .     S
C1298  H1325   1.079   .     S
C1299  C1300   1.425   .     A
C1299  C623    1.414   1_556 S
C1299  C626    1.422   1_556 S
C1300  C1304   1.426   .     A
C1302  C1303   1.391   .     A
C1302  C626    1.416   1_556 S
C1302  C615    1.398   1_556 S
C1303  H1322   1.082   .     S
C1303  C1304   1.402   .     A
C1304  N1331   1.436   .     S
H1308  N1330   1.030   .     S
H1309  C844    1.110   1_565 S
H1313  N1331   1.032   .     S
H1318  N1332   1.031   .     S
H1321  C1147   1.111   1_655 S
H1323  C615    1.084   1_556 S
H1327  N1329   1.032   .     S
N1329  C1132   1.433   1_655 S
N1330  C834    1.442   1_565 S
N1330  C844    1.451   1_565 S
O1333  Zn1350  1.929   .     S
O1333  Zn1349  1.948   .     S
O1333  Zn1347  1.977   .     S
O1333  Zn1348  1.939   .     S
O1334  Zn1348  1.939   .     S
O1335  Zn1350  1.950   .     S
O1336  Zn1349  1.935   .     S
O1337  Zn1347  1.926   .     S
O1339  Zn1347  1.927   .     S
O1340  Zn1350  1.939   .     S
O1341  Zn1348  1.936   .     S
O1342  Zn1349  1.949   .     S
O1343  Zn1350  1.941   .     S
O1344  Zn1347  1.934   .     S
O1345  Zn1348  1.946   .     S
O1346  Zn1349  1.930   .     S
