data_str_m1_o10_o16_pcu_sym.67
_audit_creation_date              2020-01-03
_audit_creation_method            'Materials Studio'
_symmetry_space_group_name_H-M    'P1'
_symmetry_Int_Tables_number       1
_symmetry_cell_setting            triclinic
loop_
_symmetry_equiv_pos_as_xyz
  x,y,z
_cell_length_a                    32.6364
_cell_length_b                    32.6548
_cell_length_c                    31.0523
_cell_angle_alpha                 96.8595
_cell_angle_beta                  74.8144
_cell_angle_gamma                 98.4898
loop_
_atom_site_label
_atom_site_type_symbol
_atom_site_fract_x
_atom_site_fract_y
_atom_site_fract_z
_atom_site_U_iso_or_equiv
_atom_site_adp_type
_atom_site_occupancy
Br1    Br    0.23342   0.07030   0.08666   0.00000  Uiso   1.00
Br2    Br    0.22986   0.01395   0.19587   0.00000  Uiso   1.00
Br3    Br    0.09853   0.32675   0.30633   0.00000  Uiso   1.00
Br4    Br    0.17687   0.04277   0.43027   0.00000  Uiso   1.00
Br5    Br    0.13345   0.20376   0.09826   0.00000  Uiso   1.00
C6     C     0.05306   0.16007   0.25940   0.00000  Uiso   1.00
C7     C     0.17090   0.16547   0.06037   0.00000  Uiso   1.00
C8     C     0.20685   0.10483   0.05878   0.00000  Uiso   1.00
C9     C     0.28063   0.17368   0.24021   0.00000  Uiso   1.00
C10    C     0.14425   0.19545   0.41890   0.00000  Uiso   1.00
C11    C     0.32626   0.17586   0.23688   0.00000  Uiso   1.00
C12    C     0.00757   0.15661   0.26479   0.00000  Uiso   1.00
C13    C     0.18028   0.32251   0.23797   0.00000  Uiso   1.00
C14    C     0.15085   0.01249   0.26411   0.00000  Uiso   1.00
C15    C     0.15623   0.05611   0.25997   0.00000  Uiso   1.00
C16    C     0.17636   0.27787   0.24043   0.00000  Uiso   1.00
C17    C     0.15370   0.25292   0.47369   0.00000  Uiso   1.00
C18    C     0.18517   0.14794   0.12951   0.00000  Uiso   1.00
C19    C     0.14815   0.18433   0.37088   0.00000  Uiso   1.00
C20    C     0.20079   0.09142   0.01648   0.00000  Uiso   1.00
C21    C     0.19018   0.14080   0.08150   0.00000  Uiso   1.00
C22    C     0.14303   0.23762   0.43396   0.00000  Uiso   1.00
C23    C     0.16483   0.22628   0.49923   0.00000  Uiso   1.00
C24    C     0.16104   0.18288   0.48812   0.00000  Uiso   1.00
C25    C     0.15081   0.16712   0.44711   0.00000  Uiso   1.00
C26    C     0.17104   0.15526   0.01469   0.00000  Uiso   1.00
C27    C     0.18077   0.11515   0.49500   0.00000  Uiso   1.00
C28    C     0.16818   0.09889   0.45569   0.00000  Uiso   1.00
C29    C     0.14839   0.12375   0.43497   0.00000  Uiso   1.00
H30    H     0.21111   0.06192   0.00133   0.00000  Uiso   1.00
H31    H     0.13788   0.25958   0.41292   0.00000  Uiso   1.00
H32    H     0.17832   0.24039   0.02648   0.00000  Uiso   1.00
H33    H     0.15597   0.28600   0.48332   0.00000  Uiso   1.00
H34    H     0.01519   0.19350   0.21107   0.00000  Uiso   1.00
H35    H     0.33127   0.12272   0.31471   0.00000  Uiso   1.00
H36    H     0.11874   0.07644   0.40585   0.00000  Uiso   1.00
O37    O     0.16667   0.16667   0.25000   0.00000  Uiso   1.00
O38    O     0.15451   0.12637   0.15458   0.00000  Uiso   1.00
O39    O     0.12940   0.20391   0.34968   0.00000  Uiso   1.00
O40    O     0.20824   0.17759   0.14606   0.00000  Uiso   1.00
O41    O     0.17451   0.15880   0.34968   0.00000  Uiso   1.00
O42    O     0.31374   0.13410   0.29831   0.00000  Uiso   1.00
O43    O     0.12608   0.10670   0.40356   0.00000  Uiso   1.00
O44    O     0.17930   0.08019   0.28213   0.00000  Uiso   1.00
O45    O     0.14632   0.26085   0.27013   0.00000  Uiso   1.00
O46    O     0.07412   0.13291   0.23413   0.00000  Uiso   1.00
O47    O     0.26693   0.19272   0.21360   0.00000  Uiso   1.00
O48    O     0.07071   0.18878   0.28213   0.00000  Uiso   1.00
O49    O     0.25491   0.15226   0.27013   0.00000  Uiso   1.00
O50    O     0.13760   0.06944   0.23413   0.00000  Uiso   1.00
O51    O     0.20345   0.25620   0.21360   0.00000  Uiso   1.00
Zn52   Zn    0.19338   0.13994   0.28734   0.00000  Uiso   1.00
Zn53   Zn    0.13379   0.12458   0.21875   0.00000  Uiso   1.00
Zn54   Zn    0.21056   0.19775   0.20657   0.00000  Uiso   1.00
Zn55   Zn    0.12893   0.20439   0.28733   0.00000  Uiso   1.00
Br56   Br    0.56675   0.07030   0.08666   0.00000  Uiso   1.00
Br57   Br    0.56319   0.01395   0.19587   0.00000  Uiso   1.00
Br58   Br    0.43187   0.32675   0.30633   0.00000  Uiso   1.00
Br59   Br    0.51021   0.04277   0.43027   0.00000  Uiso   1.00
Br60   Br    0.46678   0.20376   0.09826   0.00000  Uiso   1.00
C61    C     0.38639   0.16007   0.25940   0.00000  Uiso   1.00
C62    C     0.50423   0.16547   0.06037   0.00000  Uiso   1.00
C63    C     0.54018   0.10483   0.05878   0.00000  Uiso   1.00
C64    C     0.61397   0.17368   0.24021   0.00000  Uiso   1.00
C65    C     0.47758   0.19545   0.41890   0.00000  Uiso   1.00
C66    C     0.65959   0.17586   0.23688   0.00000  Uiso   1.00
C67    C     0.34090   0.15661   0.26479   0.00000  Uiso   1.00
C68    C     0.51362   0.32251   0.23797   0.00000  Uiso   1.00
C69    C     0.48418   0.01249   0.26411   0.00000  Uiso   1.00
C70    C     0.48956   0.05611   0.25997   0.00000  Uiso   1.00
C71    C     0.50970   0.27787   0.24043   0.00000  Uiso   1.00
C72    C     0.48704   0.25292   0.47369   0.00000  Uiso   1.00
C73    C     0.51850   0.14794   0.12951   0.00000  Uiso   1.00
C74    C     0.48148   0.18433   0.37088   0.00000  Uiso   1.00
C75    C     0.53412   0.09142   0.01648   0.00000  Uiso   1.00
C76    C     0.52352   0.14080   0.08150   0.00000  Uiso   1.00
C77    C     0.47636   0.23762   0.43396   0.00000  Uiso   1.00
C78    C     0.49816   0.22628   0.49923   0.00000  Uiso   1.00
C79    C     0.49437   0.18288   0.48812   0.00000  Uiso   1.00
C80    C     0.48415   0.16712   0.44711   0.00000  Uiso   1.00
C81    C     0.50437   0.15526   0.01469   0.00000  Uiso   1.00
C82    C     0.51410   0.11515   0.49500   0.00000  Uiso   1.00
C83    C     0.50151   0.09889   0.45569   0.00000  Uiso   1.00
C84    C     0.48172   0.12375   0.43497   0.00000  Uiso   1.00
H85    H     0.54445   0.06192   0.00133   0.00000  Uiso   1.00
H86    H     0.47122   0.25958   0.41292   0.00000  Uiso   1.00
H87    H     0.51165   0.24039   0.02648   0.00000  Uiso   1.00
H88    H     0.48930   0.28600   0.48332   0.00000  Uiso   1.00
H89    H     0.34853   0.19350   0.21107   0.00000  Uiso   1.00
H90    H     0.66460   0.12272   0.31471   0.00000  Uiso   1.00
H91    H     0.45207   0.07644   0.40585   0.00000  Uiso   1.00
O92    O     0.50000   0.16667   0.25000   0.00000  Uiso   1.00
O93    O     0.48784   0.12637   0.15458   0.00000  Uiso   1.00
O94    O     0.46274   0.20391   0.34968   0.00000  Uiso   1.00
O95    O     0.54157   0.17759   0.14606   0.00000  Uiso   1.00
O96    O     0.50785   0.15880   0.34968   0.00000  Uiso   1.00
O97    O     0.64708   0.13410   0.29831   0.00000  Uiso   1.00
O98    O     0.45941   0.10670   0.40356   0.00000  Uiso   1.00
O99    O     0.51264   0.08019   0.28213   0.00000  Uiso   1.00
O100   O     0.47965   0.26085   0.27013   0.00000  Uiso   1.00
O101   O     0.40745   0.13291   0.23413   0.00000  Uiso   1.00
O102   O     0.60026   0.19272   0.21360   0.00000  Uiso   1.00
O103   O     0.40405   0.18878   0.28213   0.00000  Uiso   1.00
O104   O     0.58824   0.15226   0.27013   0.00000  Uiso   1.00
O105   O     0.47093   0.06944   0.23413   0.00000  Uiso   1.00
O106   O     0.53678   0.25620   0.21360   0.00000  Uiso   1.00
Zn107  Zn    0.52672   0.13994   0.28734   0.00000  Uiso   1.00
Zn108  Zn    0.46713   0.12458   0.21875   0.00000  Uiso   1.00
Zn109  Zn    0.54389   0.19775   0.20657   0.00000  Uiso   1.00
Zn110  Zn    0.46226   0.20439   0.28733   0.00000  Uiso   1.00
Br111  Br    0.90008   0.07030   0.08666   0.00000  Uiso   1.00
Br112  Br    0.89652   0.01395   0.19587   0.00000  Uiso   1.00
Br113  Br    0.76520   0.32675   0.30633   0.00000  Uiso   1.00
Br114  Br    0.84354   0.04277   0.43027   0.00000  Uiso   1.00
Br115  Br    0.80012   0.20376   0.09826   0.00000  Uiso   1.00
C116   C     0.71972   0.16007   0.25940   0.00000  Uiso   1.00
C117   C     0.83757   0.16547   0.06037   0.00000  Uiso   1.00
C118   C     0.87351   0.10483   0.05878   0.00000  Uiso   1.00
C119   C     0.94730   0.17368   0.24021   0.00000  Uiso   1.00
C120   C     0.81091   0.19545   0.41890   0.00000  Uiso   1.00
C121   C     0.99293   0.17586   0.23688   0.00000  Uiso   1.00
C122   C     0.67423   0.15661   0.26479   0.00000  Uiso   1.00
C123   C     0.84695   0.32251   0.23797   0.00000  Uiso   1.00
C124   C     0.81752   0.01249   0.26411   0.00000  Uiso   1.00
C125   C     0.82290   0.05611   0.25997   0.00000  Uiso   1.00
C126   C     0.84303   0.27787   0.24043   0.00000  Uiso   1.00
C127   C     0.82037   0.25292   0.47369   0.00000  Uiso   1.00
C128   C     0.85184   0.14794   0.12951   0.00000  Uiso   1.00
C129   C     0.81481   0.18433   0.37088   0.00000  Uiso   1.00
C130   C     0.86745   0.09142   0.01648   0.00000  Uiso   1.00
C131   C     0.85685   0.14080   0.08150   0.00000  Uiso   1.00
C132   C     0.80970   0.23762   0.43396   0.00000  Uiso   1.00
C133   C     0.83149   0.22628   0.49923   0.00000  Uiso   1.00
C134   C     0.82771   0.18288   0.48812   0.00000  Uiso   1.00
C135   C     0.81748   0.16712   0.44711   0.00000  Uiso   1.00
C136   C     0.83770   0.15526   0.01469   0.00000  Uiso   1.00
C137   C     0.84743   0.11515   0.49500   0.00000  Uiso   1.00
C138   C     0.83485   0.09889   0.45569   0.00000  Uiso   1.00
C139   C     0.81506   0.12375   0.43497   0.00000  Uiso   1.00
H140   H     0.87778   0.06192   0.00133   0.00000  Uiso   1.00
H141   H     0.80455   0.25958   0.41292   0.00000  Uiso   1.00
H142   H     0.84499   0.24039   0.02648   0.00000  Uiso   1.00
H143   H     0.82263   0.28600   0.48332   0.00000  Uiso   1.00
H144   H     0.68186   0.19350   0.21107   0.00000  Uiso   1.00
H145   H     0.99793   0.12272   0.31471   0.00000  Uiso   1.00
H146   H     0.78540   0.07644   0.40585   0.00000  Uiso   1.00
O147   O     0.83333   0.16667   0.25000   0.00000  Uiso   1.00
O148   O     0.82118   0.12637   0.15458   0.00000  Uiso   1.00
O149   O     0.79607   0.20391   0.34968   0.00000  Uiso   1.00
O150   O     0.87491   0.17759   0.14606   0.00000  Uiso   1.00
O151   O     0.84118   0.15880   0.34968   0.00000  Uiso   1.00
O152   O     0.98041   0.13410   0.29831   0.00000  Uiso   1.00
O153   O     0.79274   0.10670   0.40356   0.00000  Uiso   1.00
O154   O     0.84597   0.08019   0.28213   0.00000  Uiso   1.00
O155   O     0.81298   0.26085   0.27013   0.00000  Uiso   1.00
O156   O     0.74078   0.13291   0.23413   0.00000  Uiso   1.00
O157   O     0.93360   0.19272   0.21360   0.00000  Uiso   1.00
O158   O     0.73738   0.18878   0.28213   0.00000  Uiso   1.00
O159   O     0.92158   0.15226   0.27013   0.00000  Uiso   1.00
O160   O     0.80426   0.06944   0.23413   0.00000  Uiso   1.00
O161   O     0.87012   0.25620   0.21360   0.00000  Uiso   1.00
Zn162  Zn    0.86005   0.13994   0.28734   0.00000  Uiso   1.00
Zn163  Zn    0.80046   0.12458   0.21875   0.00000  Uiso   1.00
Zn164  Zn    0.87723   0.19775   0.20657   0.00000  Uiso   1.00
Zn165  Zn    0.79560   0.20439   0.28733   0.00000  Uiso   1.00
Br166  Br    0.23342   0.40363   0.08666   0.00000  Uiso   1.00
Br167  Br    0.22986   0.34728   0.19587   0.00000  Uiso   1.00
Br168  Br    0.09853   0.66008   0.30633   0.00000  Uiso   1.00
Br169  Br    0.17687   0.37610   0.43027   0.00000  Uiso   1.00
Br170  Br    0.13345   0.53710   0.09826   0.00000  Uiso   1.00
C171   C     0.05306   0.49340   0.25940   0.00000  Uiso   1.00
C172   C     0.17090   0.49881   0.06037   0.00000  Uiso   1.00
C173   C     0.20685   0.43816   0.05878   0.00000  Uiso   1.00
C174   C     0.28063   0.50701   0.24021   0.00000  Uiso   1.00
C175   C     0.14425   0.52878   0.41890   0.00000  Uiso   1.00
C176   C     0.32626   0.50919   0.23688   0.00000  Uiso   1.00
C177   C     0.00757   0.48994   0.26479   0.00000  Uiso   1.00
C178   C     0.18028   0.65585   0.23797   0.00000  Uiso   1.00
C179   C     0.15085   0.34582   0.26411   0.00000  Uiso   1.00
C180   C     0.15623   0.38944   0.25997   0.00000  Uiso   1.00
C181   C     0.17636   0.61120   0.24043   0.00000  Uiso   1.00
C182   C     0.15370   0.58625   0.47369   0.00000  Uiso   1.00
C183   C     0.18517   0.48128   0.12951   0.00000  Uiso   1.00
C184   C     0.14815   0.51766   0.37088   0.00000  Uiso   1.00
C185   C     0.20079   0.42476   0.01648   0.00000  Uiso   1.00
C186   C     0.19018   0.47413   0.08150   0.00000  Uiso   1.00
C187   C     0.14303   0.57095   0.43396   0.00000  Uiso   1.00
C188   C     0.16483   0.55961   0.49923   0.00000  Uiso   1.00
C189   C     0.16104   0.51622   0.48812   0.00000  Uiso   1.00
C190   C     0.15081   0.50045   0.44711   0.00000  Uiso   1.00
C191   C     0.17104   0.48859   0.01469   0.00000  Uiso   1.00
C192   C     0.18077   0.44848   0.49500   0.00000  Uiso   1.00
C193   C     0.16818   0.43222   0.45569   0.00000  Uiso   1.00
C194   C     0.14839   0.45708   0.43497   0.00000  Uiso   1.00
H195   H     0.21111   0.39525   0.00133   0.00000  Uiso   1.00
H196   H     0.13788   0.59292   0.41292   0.00000  Uiso   1.00
H197   H     0.17832   0.57372   0.02648   0.00000  Uiso   1.00
H198   H     0.15597   0.61933   0.48332   0.00000  Uiso   1.00
H199   H     0.01519   0.52683   0.21107   0.00000  Uiso   1.00
H200   H     0.33127   0.45605   0.31471   0.00000  Uiso   1.00
H201   H     0.11874   0.40977   0.40585   0.00000  Uiso   1.00
O202   O     0.16667   0.50000   0.25000   0.00000  Uiso   1.00
O203   O     0.15451   0.45970   0.15458   0.00000  Uiso   1.00
O204   O     0.12940   0.53724   0.34968   0.00000  Uiso   1.00
O205   O     0.20824   0.51092   0.14606   0.00000  Uiso   1.00
O206   O     0.17451   0.49213   0.34968   0.00000  Uiso   1.00
O207   O     0.31374   0.46743   0.29831   0.00000  Uiso   1.00
O208   O     0.12608   0.44003   0.40356   0.00000  Uiso   1.00
O209   O     0.17930   0.41352   0.28213   0.00000  Uiso   1.00
O210   O     0.14632   0.59418   0.27013   0.00000  Uiso   1.00
O211   O     0.07412   0.46625   0.23413   0.00000  Uiso   1.00
O212   O     0.26693   0.52605   0.21360   0.00000  Uiso   1.00
O213   O     0.07071   0.52211   0.28213   0.00000  Uiso   1.00
O214   O     0.25491   0.48559   0.27013   0.00000  Uiso   1.00
O215   O     0.13760   0.40277   0.23413   0.00000  Uiso   1.00
O216   O     0.20345   0.58953   0.21360   0.00000  Uiso   1.00
Zn217  Zn    0.19338   0.47327   0.28734   0.00000  Uiso   1.00
Zn218  Zn    0.13379   0.45791   0.21875   0.00000  Uiso   1.00
Zn219  Zn    0.21056   0.53109   0.20657   0.00000  Uiso   1.00
Zn220  Zn    0.12893   0.53773   0.28733   0.00000  Uiso   1.00
Br221  Br    0.56675   0.40363   0.08666   0.00000  Uiso   1.00
Br222  Br    0.56319   0.34728   0.19587   0.00000  Uiso   1.00
Br223  Br    0.43187   0.66008   0.30633   0.00000  Uiso   1.00
Br224  Br    0.51021   0.37610   0.43027   0.00000  Uiso   1.00
Br225  Br    0.46678   0.53710   0.09826   0.00000  Uiso   1.00
C226   C     0.38639   0.49340   0.25940   0.00000  Uiso   1.00
C227   C     0.50423   0.49881   0.06037   0.00000  Uiso   1.00
C228   C     0.54018   0.43816   0.05878   0.00000  Uiso   1.00
C229   C     0.61397   0.50701   0.24021   0.00000  Uiso   1.00
C230   C     0.47758   0.52878   0.41890   0.00000  Uiso   1.00
C231   C     0.65959   0.50919   0.23688   0.00000  Uiso   1.00
C232   C     0.34090   0.48994   0.26479   0.00000  Uiso   1.00
C233   C     0.51362   0.65585   0.23797   0.00000  Uiso   1.00
C234   C     0.48418   0.34582   0.26411   0.00000  Uiso   1.00
C235   C     0.48956   0.38944   0.25997   0.00000  Uiso   1.00
C236   C     0.50970   0.61120   0.24043   0.00000  Uiso   1.00
C237   C     0.48704   0.58625   0.47369   0.00000  Uiso   1.00
C238   C     0.51850   0.48128   0.12951   0.00000  Uiso   1.00
C239   C     0.48148   0.51766   0.37088   0.00000  Uiso   1.00
C240   C     0.53412   0.42476   0.01648   0.00000  Uiso   1.00
C241   C     0.52352   0.47413   0.08150   0.00000  Uiso   1.00
C242   C     0.47636   0.57095   0.43396   0.00000  Uiso   1.00
C243   C     0.49816   0.55961   0.49923   0.00000  Uiso   1.00
C244   C     0.49437   0.51622   0.48812   0.00000  Uiso   1.00
C245   C     0.48415   0.50045   0.44711   0.00000  Uiso   1.00
C246   C     0.50437   0.48859   0.01469   0.00000  Uiso   1.00
C247   C     0.51410   0.44848   0.49500   0.00000  Uiso   1.00
C248   C     0.50151   0.43222   0.45569   0.00000  Uiso   1.00
C249   C     0.48172   0.45708   0.43497   0.00000  Uiso   1.00
H250   H     0.54445   0.39525   0.00133   0.00000  Uiso   1.00
H251   H     0.47122   0.59292   0.41292   0.00000  Uiso   1.00
H252   H     0.51165   0.57372   0.02648   0.00000  Uiso   1.00
H253   H     0.48930   0.61933   0.48332   0.00000  Uiso   1.00
H254   H     0.34853   0.52683   0.21107   0.00000  Uiso   1.00
H255   H     0.66460   0.45605   0.31471   0.00000  Uiso   1.00
H256   H     0.45207   0.40977   0.40585   0.00000  Uiso   1.00
O257   O     0.50000   0.50000   0.25000   0.00000  Uiso   1.00
O258   O     0.48784   0.45970   0.15458   0.00000  Uiso   1.00
O259   O     0.46274   0.53724   0.34968   0.00000  Uiso   1.00
O260   O     0.54157   0.51092   0.14606   0.00000  Uiso   1.00
O261   O     0.50785   0.49213   0.34968   0.00000  Uiso   1.00
O262   O     0.64708   0.46743   0.29831   0.00000  Uiso   1.00
O263   O     0.45941   0.44003   0.40356   0.00000  Uiso   1.00
O264   O     0.51264   0.41352   0.28213   0.00000  Uiso   1.00
O265   O     0.47965   0.59418   0.27013   0.00000  Uiso   1.00
O266   O     0.40745   0.46625   0.23413   0.00000  Uiso   1.00
O267   O     0.60026   0.52605   0.21360   0.00000  Uiso   1.00
O268   O     0.40405   0.52211   0.28213   0.00000  Uiso   1.00
O269   O     0.58824   0.48559   0.27013   0.00000  Uiso   1.00
O270   O     0.47093   0.40277   0.23413   0.00000  Uiso   1.00
O271   O     0.53678   0.58953   0.21360   0.00000  Uiso   1.00
Zn272  Zn    0.52672   0.47327   0.28734   0.00000  Uiso   1.00
Zn273  Zn    0.46713   0.45791   0.21875   0.00000  Uiso   1.00
Zn274  Zn    0.54389   0.53109   0.20657   0.00000  Uiso   1.00
Zn275  Zn    0.46226   0.53773   0.28733   0.00000  Uiso   1.00
Br276  Br    0.90008   0.40363   0.08666   0.00000  Uiso   1.00
Br277  Br    0.89652   0.34728   0.19587   0.00000  Uiso   1.00
Br278  Br    0.76520   0.66008   0.30633   0.00000  Uiso   1.00
Br279  Br    0.84354   0.37610   0.43027   0.00000  Uiso   1.00
Br280  Br    0.80012   0.53710   0.09826   0.00000  Uiso   1.00
C281   C     0.71972   0.49340   0.25940   0.00000  Uiso   1.00
C282   C     0.83757   0.49881   0.06037   0.00000  Uiso   1.00
C283   C     0.87351   0.43816   0.05878   0.00000  Uiso   1.00
C284   C     0.94730   0.50701   0.24021   0.00000  Uiso   1.00
C285   C     0.81091   0.52878   0.41890   0.00000  Uiso   1.00
C286   C     0.99293   0.50919   0.23688   0.00000  Uiso   1.00
C287   C     0.67423   0.48994   0.26479   0.00000  Uiso   1.00
C288   C     0.84695   0.65585   0.23797   0.00000  Uiso   1.00
C289   C     0.81752   0.34582   0.26411   0.00000  Uiso   1.00
C290   C     0.82290   0.38944   0.25997   0.00000  Uiso   1.00
C291   C     0.84303   0.61120   0.24043   0.00000  Uiso   1.00
C292   C     0.82037   0.58625   0.47369   0.00000  Uiso   1.00
C293   C     0.85184   0.48128   0.12951   0.00000  Uiso   1.00
C294   C     0.81481   0.51766   0.37088   0.00000  Uiso   1.00
C295   C     0.86745   0.42476   0.01648   0.00000  Uiso   1.00
C296   C     0.85685   0.47413   0.08150   0.00000  Uiso   1.00
C297   C     0.80970   0.57095   0.43396   0.00000  Uiso   1.00
C298   C     0.83149   0.55961   0.49923   0.00000  Uiso   1.00
C299   C     0.82771   0.51622   0.48812   0.00000  Uiso   1.00
C300   C     0.81748   0.50045   0.44711   0.00000  Uiso   1.00
C301   C     0.83770   0.48859   0.01469   0.00000  Uiso   1.00
C302   C     0.84743   0.44848   0.49500   0.00000  Uiso   1.00
C303   C     0.83485   0.43222   0.45569   0.00000  Uiso   1.00
C304   C     0.81506   0.45708   0.43497   0.00000  Uiso   1.00
H305   H     0.87778   0.39525   0.00133   0.00000  Uiso   1.00
H306   H     0.80455   0.59292   0.41292   0.00000  Uiso   1.00
H307   H     0.84499   0.57372   0.02648   0.00000  Uiso   1.00
H308   H     0.82263   0.61933   0.48332   0.00000  Uiso   1.00
H309   H     0.68186   0.52683   0.21107   0.00000  Uiso   1.00
H310   H     0.99793   0.45605   0.31471   0.00000  Uiso   1.00
H311   H     0.78540   0.40977   0.40585   0.00000  Uiso   1.00
O312   O     0.83333   0.50000   0.25000   0.00000  Uiso   1.00
O313   O     0.82118   0.45970   0.15458   0.00000  Uiso   1.00
O314   O     0.79607   0.53724   0.34968   0.00000  Uiso   1.00
O315   O     0.87491   0.51092   0.14606   0.00000  Uiso   1.00
O316   O     0.84118   0.49213   0.34968   0.00000  Uiso   1.00
O317   O     0.98041   0.46743   0.29831   0.00000  Uiso   1.00
O318   O     0.79274   0.44003   0.40356   0.00000  Uiso   1.00
O319   O     0.84597   0.41352   0.28213   0.00000  Uiso   1.00
O320   O     0.81298   0.59418   0.27013   0.00000  Uiso   1.00
O321   O     0.74078   0.46625   0.23413   0.00000  Uiso   1.00
O322   O     0.93360   0.52605   0.21360   0.00000  Uiso   1.00
O323   O     0.73738   0.52211   0.28213   0.00000  Uiso   1.00
O324   O     0.92158   0.48559   0.27013   0.00000  Uiso   1.00
O325   O     0.80426   0.40277   0.23413   0.00000  Uiso   1.00
O326   O     0.87012   0.58953   0.21360   0.00000  Uiso   1.00
Zn327  Zn    0.86005   0.47327   0.28734   0.00000  Uiso   1.00
Zn328  Zn    0.80046   0.45791   0.21875   0.00000  Uiso   1.00
Zn329  Zn    0.87723   0.53109   0.20657   0.00000  Uiso   1.00
Zn330  Zn    0.79560   0.53773   0.28733   0.00000  Uiso   1.00
Br331  Br    0.23342   0.73696   0.08666   0.00000  Uiso   1.00
Br332  Br    0.22986   0.68062   0.19587   0.00000  Uiso   1.00
Br333  Br    0.09853   0.99341   0.30633   0.00000  Uiso   1.00
Br334  Br    0.17687   0.70943   0.43027   0.00000  Uiso   1.00
Br335  Br    0.13345   0.87043   0.09826   0.00000  Uiso   1.00
C336   C     0.05306   0.82673   0.25940   0.00000  Uiso   1.00
C337   C     0.17090   0.83214   0.06037   0.00000  Uiso   1.00
C338   C     0.20685   0.77149   0.05878   0.00000  Uiso   1.00
C339   C     0.28063   0.84034   0.24021   0.00000  Uiso   1.00
C340   C     0.14425   0.86212   0.41890   0.00000  Uiso   1.00
C341   C     0.32626   0.84253   0.23688   0.00000  Uiso   1.00
C342   C     0.00757   0.82327   0.26479   0.00000  Uiso   1.00
C343   C     0.18028   0.98918   0.23797   0.00000  Uiso   1.00
C344   C     0.15085   0.67916   0.26411   0.00000  Uiso   1.00
C345   C     0.15623   0.72278   0.25997   0.00000  Uiso   1.00
C346   C     0.17636   0.94454   0.24043   0.00000  Uiso   1.00
C347   C     0.15370   0.91959   0.47369   0.00000  Uiso   1.00
C348   C     0.18517   0.81461   0.12951   0.00000  Uiso   1.00
C349   C     0.14815   0.85100   0.37088   0.00000  Uiso   1.00
C350   C     0.20079   0.75809   0.01648   0.00000  Uiso   1.00
C351   C     0.19018   0.80747   0.08150   0.00000  Uiso   1.00
C352   C     0.14303   0.90428   0.43396   0.00000  Uiso   1.00
C353   C     0.16483   0.89294   0.49923   0.00000  Uiso   1.00
C354   C     0.16104   0.84955   0.48812   0.00000  Uiso   1.00
C355   C     0.15081   0.83378   0.44711   0.00000  Uiso   1.00
C356   C     0.17104   0.82192   0.01469   0.00000  Uiso   1.00
C357   C     0.18077   0.78181   0.49500   0.00000  Uiso   1.00
C358   C     0.16818   0.76556   0.45569   0.00000  Uiso   1.00
C359   C     0.14839   0.79042   0.43497   0.00000  Uiso   1.00
H360   H     0.21111   0.72859   0.00133   0.00000  Uiso   1.00
H361   H     0.13788   0.92625   0.41292   0.00000  Uiso   1.00
H362   H     0.17832   0.90705   0.02648   0.00000  Uiso   1.00
H363   H     0.15597   0.95266   0.48332   0.00000  Uiso   1.00
H364   H     0.01519   0.86016   0.21107   0.00000  Uiso   1.00
H365   H     0.33127   0.78939   0.31471   0.00000  Uiso   1.00
H366   H     0.11874   0.74310   0.40585   0.00000  Uiso   1.00
O367   O     0.16667   0.83333   0.25000   0.00000  Uiso   1.00
O368   O     0.15451   0.79304   0.15458   0.00000  Uiso   1.00
O369   O     0.12940   0.87058   0.34968   0.00000  Uiso   1.00
O370   O     0.20824   0.84425   0.14606   0.00000  Uiso   1.00
O371   O     0.17451   0.82546   0.34968   0.00000  Uiso   1.00
O372   O     0.31374   0.80077   0.29831   0.00000  Uiso   1.00
O373   O     0.12608   0.77337   0.40356   0.00000  Uiso   1.00
O374   O     0.17930   0.74686   0.28213   0.00000  Uiso   1.00
O375   O     0.14632   0.92751   0.27013   0.00000  Uiso   1.00
O376   O     0.07412   0.79958   0.23413   0.00000  Uiso   1.00
O377   O     0.26693   0.85939   0.21360   0.00000  Uiso   1.00
O378   O     0.07071   0.85544   0.28213   0.00000  Uiso   1.00
O379   O     0.25491   0.81892   0.27013   0.00000  Uiso   1.00
O380   O     0.13760   0.73610   0.23413   0.00000  Uiso   1.00
O381   O     0.20345   0.92286   0.21360   0.00000  Uiso   1.00
Zn382  Zn    0.19338   0.80661   0.28734   0.00000  Uiso   1.00
Zn383  Zn    0.13379   0.79124   0.21875   0.00000  Uiso   1.00
Zn384  Zn    0.21056   0.86442   0.20657   0.00000  Uiso   1.00
Zn385  Zn    0.12893   0.87106   0.28733   0.00000  Uiso   1.00
Br386  Br    0.56675   0.73696   0.08666   0.00000  Uiso   1.00
Br387  Br    0.56319   0.68062   0.19587   0.00000  Uiso   1.00
Br388  Br    0.43187   0.99341   0.30633   0.00000  Uiso   1.00
Br389  Br    0.51021   0.70943   0.43027   0.00000  Uiso   1.00
Br390  Br    0.46678   0.87043   0.09826   0.00000  Uiso   1.00
C391   C     0.38639   0.82673   0.25940   0.00000  Uiso   1.00
C392   C     0.50423   0.83214   0.06037   0.00000  Uiso   1.00
C393   C     0.54018   0.77149   0.05878   0.00000  Uiso   1.00
C394   C     0.61397   0.84034   0.24021   0.00000  Uiso   1.00
C395   C     0.47758   0.86212   0.41890   0.00000  Uiso   1.00
C396   C     0.65959   0.84253   0.23688   0.00000  Uiso   1.00
C397   C     0.34090   0.82327   0.26479   0.00000  Uiso   1.00
C398   C     0.51362   0.98918   0.23797   0.00000  Uiso   1.00
C399   C     0.48418   0.67916   0.26411   0.00000  Uiso   1.00
C400   C     0.48956   0.72278   0.25997   0.00000  Uiso   1.00
C401   C     0.50970   0.94454   0.24043   0.00000  Uiso   1.00
C402   C     0.48704   0.91959   0.47369   0.00000  Uiso   1.00
C403   C     0.51850   0.81461   0.12951   0.00000  Uiso   1.00
C404   C     0.48148   0.85100   0.37088   0.00000  Uiso   1.00
C405   C     0.53412   0.75809   0.01648   0.00000  Uiso   1.00
C406   C     0.52352   0.80747   0.08150   0.00000  Uiso   1.00
C407   C     0.47636   0.90428   0.43396   0.00000  Uiso   1.00
C408   C     0.49816   0.89294   0.49923   0.00000  Uiso   1.00
C409   C     0.49437   0.84955   0.48812   0.00000  Uiso   1.00
C410   C     0.48415   0.83378   0.44711   0.00000  Uiso   1.00
C411   C     0.50437   0.82192   0.01469   0.00000  Uiso   1.00
C412   C     0.51410   0.78181   0.49500   0.00000  Uiso   1.00
C413   C     0.50151   0.76556   0.45569   0.00000  Uiso   1.00
C414   C     0.48172   0.79042   0.43497   0.00000  Uiso   1.00
H415   H     0.54445   0.72859   0.00133   0.00000  Uiso   1.00
H416   H     0.47122   0.92625   0.41292   0.00000  Uiso   1.00
H417   H     0.51165   0.90705   0.02648   0.00000  Uiso   1.00
H418   H     0.48930   0.95266   0.48332   0.00000  Uiso   1.00
H419   H     0.34853   0.86016   0.21107   0.00000  Uiso   1.00
H420   H     0.66460   0.78939   0.31471   0.00000  Uiso   1.00
H421   H     0.45207   0.74310   0.40585   0.00000  Uiso   1.00
O422   O     0.50000   0.83333   0.25000   0.00000  Uiso   1.00
O423   O     0.48784   0.79304   0.15458   0.00000  Uiso   1.00
O424   O     0.46274   0.87058   0.34968   0.00000  Uiso   1.00
O425   O     0.54157   0.84425   0.14606   0.00000  Uiso   1.00
O426   O     0.50785   0.82546   0.34968   0.00000  Uiso   1.00
O427   O     0.64708   0.80077   0.29831   0.00000  Uiso   1.00
O428   O     0.45941   0.77337   0.40356   0.00000  Uiso   1.00
O429   O     0.51264   0.74686   0.28213   0.00000  Uiso   1.00
O430   O     0.47965   0.92751   0.27013   0.00000  Uiso   1.00
O431   O     0.40745   0.79958   0.23413   0.00000  Uiso   1.00
O432   O     0.60026   0.85939   0.21360   0.00000  Uiso   1.00
O433   O     0.40405   0.85544   0.28213   0.00000  Uiso   1.00
O434   O     0.58824   0.81892   0.27013   0.00000  Uiso   1.00
O435   O     0.47093   0.73610   0.23413   0.00000  Uiso   1.00
O436   O     0.53678   0.92286   0.21360   0.00000  Uiso   1.00
Zn437  Zn    0.52672   0.80661   0.28734   0.00000  Uiso   1.00
Zn438  Zn    0.46713   0.79124   0.21875   0.00000  Uiso   1.00
Zn439  Zn    0.54389   0.86442   0.20657   0.00000  Uiso   1.00
Zn440  Zn    0.46226   0.87106   0.28733   0.00000  Uiso   1.00
Br441  Br    0.90008   0.73696   0.08666   0.00000  Uiso   1.00
Br442  Br    0.89652   0.68062   0.19587   0.00000  Uiso   1.00
Br443  Br    0.76520   0.99341   0.30633   0.00000  Uiso   1.00
Br444  Br    0.84354   0.70943   0.43027   0.00000  Uiso   1.00
Br445  Br    0.80012   0.87043   0.09826   0.00000  Uiso   1.00
C446   C     0.71972   0.82673   0.25940   0.00000  Uiso   1.00
C447   C     0.83757   0.83214   0.06037   0.00000  Uiso   1.00
C448   C     0.87351   0.77149   0.05878   0.00000  Uiso   1.00
C449   C     0.94730   0.84034   0.24021   0.00000  Uiso   1.00
C450   C     0.81091   0.86212   0.41890   0.00000  Uiso   1.00
C451   C     0.99293   0.84253   0.23688   0.00000  Uiso   1.00
C452   C     0.67423   0.82327   0.26479   0.00000  Uiso   1.00
C453   C     0.84695   0.98918   0.23797   0.00000  Uiso   1.00
C454   C     0.81752   0.67916   0.26411   0.00000  Uiso   1.00
C455   C     0.82290   0.72278   0.25997   0.00000  Uiso   1.00
C456   C     0.84303   0.94454   0.24043   0.00000  Uiso   1.00
C457   C     0.82037   0.91959   0.47369   0.00000  Uiso   1.00
C458   C     0.85184   0.81461   0.12951   0.00000  Uiso   1.00
C459   C     0.81481   0.85100   0.37088   0.00000  Uiso   1.00
C460   C     0.86745   0.75809   0.01648   0.00000  Uiso   1.00
C461   C     0.85685   0.80747   0.08150   0.00000  Uiso   1.00
C462   C     0.80970   0.90428   0.43396   0.00000  Uiso   1.00
C463   C     0.83149   0.89294   0.49923   0.00000  Uiso   1.00
C464   C     0.82771   0.84955   0.48812   0.00000  Uiso   1.00
C465   C     0.81748   0.83378   0.44711   0.00000  Uiso   1.00
C466   C     0.83770   0.82192   0.01469   0.00000  Uiso   1.00
C467   C     0.84743   0.78181   0.49500   0.00000  Uiso   1.00
C468   C     0.83485   0.76556   0.45569   0.00000  Uiso   1.00
C469   C     0.81506   0.79042   0.43497   0.00000  Uiso   1.00
H470   H     0.87778   0.72859   0.00133   0.00000  Uiso   1.00
H471   H     0.80455   0.92625   0.41292   0.00000  Uiso   1.00
H472   H     0.84499   0.90705   0.02648   0.00000  Uiso   1.00
H473   H     0.82263   0.95266   0.48332   0.00000  Uiso   1.00
H474   H     0.68186   0.86016   0.21107   0.00000  Uiso   1.00
H475   H     0.99793   0.78939   0.31471   0.00000  Uiso   1.00
H476   H     0.78540   0.74310   0.40585   0.00000  Uiso   1.00
O477   O     0.83333   0.83333   0.25000   0.00000  Uiso   1.00
O478   O     0.82118   0.79304   0.15458   0.00000  Uiso   1.00
O479   O     0.79607   0.87058   0.34968   0.00000  Uiso   1.00
O480   O     0.87491   0.84425   0.14606   0.00000  Uiso   1.00
O481   O     0.84118   0.82546   0.34968   0.00000  Uiso   1.00
O482   O     0.98041   0.80077   0.29831   0.00000  Uiso   1.00
O483   O     0.79274   0.77337   0.40356   0.00000  Uiso   1.00
O484   O     0.84597   0.74686   0.28213   0.00000  Uiso   1.00
O485   O     0.81298   0.92751   0.27013   0.00000  Uiso   1.00
O486   O     0.74078   0.79958   0.23413   0.00000  Uiso   1.00
O487   O     0.93360   0.85939   0.21360   0.00000  Uiso   1.00
O488   O     0.73738   0.85544   0.28213   0.00000  Uiso   1.00
O489   O     0.92158   0.81892   0.27013   0.00000  Uiso   1.00
O490   O     0.80426   0.73610   0.23413   0.00000  Uiso   1.00
O491   O     0.87012   0.92286   0.21360   0.00000  Uiso   1.00
Zn492  Zn    0.86005   0.80661   0.28734   0.00000  Uiso   1.00
Zn493  Zn    0.80046   0.79124   0.21875   0.00000  Uiso   1.00
Zn494  Zn    0.87723   0.86442   0.20657   0.00000  Uiso   1.00
Zn495  Zn    0.79560   0.87106   0.28733   0.00000  Uiso   1.00
Br496  Br    0.23342   0.07030   0.58666   0.00000  Uiso   1.00
Br497  Br    0.22986   0.01395   0.69587   0.00000  Uiso   1.00
Br498  Br    0.09853   0.32675   0.80633   0.00000  Uiso   1.00
Br499  Br    0.17687   0.04277   0.93027   0.00000  Uiso   1.00
Br500  Br    0.13345   0.20376   0.59826   0.00000  Uiso   1.00
C501   C     0.05306   0.16007   0.75940   0.00000  Uiso   1.00
C502   C     0.17090   0.16547   0.56037   0.00000  Uiso   1.00
C503   C     0.20685   0.10483   0.55878   0.00000  Uiso   1.00
C504   C     0.28063   0.17368   0.74021   0.00000  Uiso   1.00
C505   C     0.14425   0.19545   0.91890   0.00000  Uiso   1.00
C506   C     0.32626   0.17586   0.73688   0.00000  Uiso   1.00
C507   C     0.00757   0.15661   0.76479   0.00000  Uiso   1.00
C508   C     0.18028   0.32251   0.73797   0.00000  Uiso   1.00
C509   C     0.15085   0.01249   0.76411   0.00000  Uiso   1.00
C510   C     0.15623   0.05611   0.75997   0.00000  Uiso   1.00
C511   C     0.17636   0.27787   0.74043   0.00000  Uiso   1.00
C512   C     0.15370   0.25292   0.97369   0.00000  Uiso   1.00
C513   C     0.18517   0.14794   0.62951   0.00000  Uiso   1.00
C514   C     0.14815   0.18433   0.87088   0.00000  Uiso   1.00
C515   C     0.20079   0.09142   0.51648   0.00000  Uiso   1.00
C516   C     0.19018   0.14080   0.58150   0.00000  Uiso   1.00
C517   C     0.14303   0.23762   0.93396   0.00000  Uiso   1.00
C518   C     0.16483   0.22628   0.99923   0.00000  Uiso   1.00
C519   C     0.16104   0.18288   0.98812   0.00000  Uiso   1.00
C520   C     0.15081   0.16712   0.94711   0.00000  Uiso   1.00
C521   C     0.17104   0.15526   0.51469   0.00000  Uiso   1.00
C522   C     0.18077   0.11515   0.99500   0.00000  Uiso   1.00
C523   C     0.16818   0.09889   0.95569   0.00000  Uiso   1.00
C524   C     0.14839   0.12375   0.93497   0.00000  Uiso   1.00
H525   H     0.21111   0.06192   0.50133   0.00000  Uiso   1.00
H526   H     0.13788   0.25958   0.91292   0.00000  Uiso   1.00
H527   H     0.17832   0.24039   0.52648   0.00000  Uiso   1.00
H528   H     0.15597   0.28600   0.98332   0.00000  Uiso   1.00
H529   H     0.01519   0.19350   0.71107   0.00000  Uiso   1.00
H530   H     0.33127   0.12272   0.81471   0.00000  Uiso   1.00
H531   H     0.11874   0.07644   0.90585   0.00000  Uiso   1.00
O532   O     0.16667   0.16667   0.75000   0.00000  Uiso   1.00
O533   O     0.15451   0.12637   0.65458   0.00000  Uiso   1.00
O534   O     0.12940   0.20391   0.84968   0.00000  Uiso   1.00
O535   O     0.20824   0.17759   0.64606   0.00000  Uiso   1.00
O536   O     0.17451   0.15880   0.84968   0.00000  Uiso   1.00
O537   O     0.31374   0.13410   0.79831   0.00000  Uiso   1.00
O538   O     0.12608   0.10670   0.90356   0.00000  Uiso   1.00
O539   O     0.17930   0.08019   0.78213   0.00000  Uiso   1.00
O540   O     0.14632   0.26085   0.77013   0.00000  Uiso   1.00
O541   O     0.07412   0.13291   0.73413   0.00000  Uiso   1.00
O542   O     0.26693   0.19272   0.71360   0.00000  Uiso   1.00
O543   O     0.07071   0.18878   0.78213   0.00000  Uiso   1.00
O544   O     0.25491   0.15226   0.77013   0.00000  Uiso   1.00
O545   O     0.13760   0.06944   0.73413   0.00000  Uiso   1.00
O546   O     0.20345   0.25620   0.71360   0.00000  Uiso   1.00
Zn547  Zn    0.19338   0.13994   0.78734   0.00000  Uiso   1.00
Zn548  Zn    0.13379   0.12458   0.71875   0.00000  Uiso   1.00
Zn549  Zn    0.21056   0.19775   0.70657   0.00000  Uiso   1.00
Zn550  Zn    0.12893   0.20439   0.78733   0.00000  Uiso   1.00
Br551  Br    0.56675   0.07030   0.58666   0.00000  Uiso   1.00
Br552  Br    0.56319   0.01395   0.69587   0.00000  Uiso   1.00
Br553  Br    0.43187   0.32675   0.80633   0.00000  Uiso   1.00
Br554  Br    0.51021   0.04277   0.93027   0.00000  Uiso   1.00
Br555  Br    0.46678   0.20376   0.59826   0.00000  Uiso   1.00
C556   C     0.38639   0.16007   0.75940   0.00000  Uiso   1.00
C557   C     0.50423   0.16547   0.56037   0.00000  Uiso   1.00
C558   C     0.54018   0.10483   0.55878   0.00000  Uiso   1.00
C559   C     0.61397   0.17368   0.74021   0.00000  Uiso   1.00
C560   C     0.47758   0.19545   0.91890   0.00000  Uiso   1.00
C561   C     0.65959   0.17586   0.73688   0.00000  Uiso   1.00
C562   C     0.34090   0.15661   0.76479   0.00000  Uiso   1.00
C563   C     0.51362   0.32251   0.73797   0.00000  Uiso   1.00
C564   C     0.48418   0.01249   0.76411   0.00000  Uiso   1.00
C565   C     0.48956   0.05611   0.75997   0.00000  Uiso   1.00
C566   C     0.50970   0.27787   0.74043   0.00000  Uiso   1.00
C567   C     0.48704   0.25292   0.97369   0.00000  Uiso   1.00
C568   C     0.51850   0.14794   0.62951   0.00000  Uiso   1.00
C569   C     0.48148   0.18433   0.87088   0.00000  Uiso   1.00
C570   C     0.53412   0.09142   0.51648   0.00000  Uiso   1.00
C571   C     0.52352   0.14080   0.58150   0.00000  Uiso   1.00
C572   C     0.47636   0.23762   0.93396   0.00000  Uiso   1.00
C573   C     0.49816   0.22628   0.99923   0.00000  Uiso   1.00
C574   C     0.49437   0.18288   0.98812   0.00000  Uiso   1.00
C575   C     0.48415   0.16712   0.94711   0.00000  Uiso   1.00
C576   C     0.50437   0.15526   0.51469   0.00000  Uiso   1.00
C577   C     0.51410   0.11515   0.99500   0.00000  Uiso   1.00
C578   C     0.50151   0.09889   0.95569   0.00000  Uiso   1.00
C579   C     0.48172   0.12375   0.93497   0.00000  Uiso   1.00
H580   H     0.54445   0.06192   0.50133   0.00000  Uiso   1.00
H581   H     0.47122   0.25958   0.91292   0.00000  Uiso   1.00
H582   H     0.51165   0.24039   0.52648   0.00000  Uiso   1.00
H583   H     0.48930   0.28600   0.98332   0.00000  Uiso   1.00
H584   H     0.34853   0.19350   0.71107   0.00000  Uiso   1.00
H585   H     0.66460   0.12272   0.81471   0.00000  Uiso   1.00
H586   H     0.45207   0.07644   0.90585   0.00000  Uiso   1.00
O587   O     0.50000   0.16667   0.75000   0.00000  Uiso   1.00
O588   O     0.48784   0.12637   0.65458   0.00000  Uiso   1.00
O589   O     0.46274   0.20391   0.84968   0.00000  Uiso   1.00
O590   O     0.54157   0.17759   0.64606   0.00000  Uiso   1.00
O591   O     0.50785   0.15880   0.84968   0.00000  Uiso   1.00
O592   O     0.64708   0.13410   0.79831   0.00000  Uiso   1.00
O593   O     0.45941   0.10670   0.90356   0.00000  Uiso   1.00
O594   O     0.51264   0.08019   0.78213   0.00000  Uiso   1.00
O595   O     0.47965   0.26085   0.77013   0.00000  Uiso   1.00
O596   O     0.40745   0.13291   0.73413   0.00000  Uiso   1.00
O597   O     0.60026   0.19272   0.71360   0.00000  Uiso   1.00
O598   O     0.40405   0.18878   0.78213   0.00000  Uiso   1.00
O599   O     0.58824   0.15226   0.77013   0.00000  Uiso   1.00
O600   O     0.47093   0.06944   0.73413   0.00000  Uiso   1.00
O601   O     0.53678   0.25620   0.71360   0.00000  Uiso   1.00
Zn602  Zn    0.52672   0.13994   0.78734   0.00000  Uiso   1.00
Zn603  Zn    0.46713   0.12458   0.71875   0.00000  Uiso   1.00
Zn604  Zn    0.54389   0.19775   0.70657   0.00000  Uiso   1.00
Zn605  Zn    0.46226   0.20439   0.78733   0.00000  Uiso   1.00
Br606  Br    0.90008   0.07030   0.58666   0.00000  Uiso   1.00
Br607  Br    0.89652   0.01395   0.69587   0.00000  Uiso   1.00
Br608  Br    0.76520   0.32675   0.80633   0.00000  Uiso   1.00
Br609  Br    0.84354   0.04277   0.93027   0.00000  Uiso   1.00
Br610  Br    0.80012   0.20376   0.59826   0.00000  Uiso   1.00
C611   C     0.71972   0.16007   0.75940   0.00000  Uiso   1.00
C612   C     0.83757   0.16547   0.56037   0.00000  Uiso   1.00
C613   C     0.87351   0.10483   0.55878   0.00000  Uiso   1.00
C614   C     0.94730   0.17368   0.74021   0.00000  Uiso   1.00
C615   C     0.81091   0.19545   0.91890   0.00000  Uiso   1.00
C616   C     0.99293   0.17586   0.73688   0.00000  Uiso   1.00
C617   C     0.67423   0.15661   0.76479   0.00000  Uiso   1.00
C618   C     0.84695   0.32251   0.73797   0.00000  Uiso   1.00
C619   C     0.81752   0.01249   0.76411   0.00000  Uiso   1.00
C620   C     0.82290   0.05611   0.75997   0.00000  Uiso   1.00
C621   C     0.84303   0.27787   0.74043   0.00000  Uiso   1.00
C622   C     0.82037   0.25292   0.97369   0.00000  Uiso   1.00
C623   C     0.85184   0.14794   0.62951   0.00000  Uiso   1.00
C624   C     0.81481   0.18433   0.87088   0.00000  Uiso   1.00
C625   C     0.86745   0.09142   0.51648   0.00000  Uiso   1.00
C626   C     0.85685   0.14080   0.58150   0.00000  Uiso   1.00
C627   C     0.80970   0.23762   0.93396   0.00000  Uiso   1.00
C628   C     0.83149   0.22628   0.99923   0.00000  Uiso   1.00
C629   C     0.82771   0.18288   0.98812   0.00000  Uiso   1.00
C630   C     0.81748   0.16712   0.94711   0.00000  Uiso   1.00
C631   C     0.83770   0.15526   0.51469   0.00000  Uiso   1.00
C632   C     0.84743   0.11515   0.99500   0.00000  Uiso   1.00
C633   C     0.83485   0.09889   0.95569   0.00000  Uiso   1.00
C634   C     0.81506   0.12375   0.93497   0.00000  Uiso   1.00
H635   H     0.87778   0.06192   0.50133   0.00000  Uiso   1.00
H636   H     0.80455   0.25958   0.91292   0.00000  Uiso   1.00
H637   H     0.84499   0.24039   0.52648   0.00000  Uiso   1.00
H638   H     0.82263   0.28600   0.98332   0.00000  Uiso   1.00
H639   H     0.68186   0.19350   0.71107   0.00000  Uiso   1.00
H640   H     0.99793   0.12272   0.81471   0.00000  Uiso   1.00
H641   H     0.78540   0.07644   0.90585   0.00000  Uiso   1.00
O642   O     0.83333   0.16667   0.75000   0.00000  Uiso   1.00
O643   O     0.82118   0.12637   0.65458   0.00000  Uiso   1.00
O644   O     0.79607   0.20391   0.84968   0.00000  Uiso   1.00
O645   O     0.87491   0.17759   0.64606   0.00000  Uiso   1.00
O646   O     0.84118   0.15880   0.84968   0.00000  Uiso   1.00
O647   O     0.98041   0.13410   0.79831   0.00000  Uiso   1.00
O648   O     0.79274   0.10670   0.90356   0.00000  Uiso   1.00
O649   O     0.84597   0.08019   0.78213   0.00000  Uiso   1.00
O650   O     0.81298   0.26085   0.77013   0.00000  Uiso   1.00
O651   O     0.74078   0.13291   0.73413   0.00000  Uiso   1.00
O652   O     0.93360   0.19272   0.71360   0.00000  Uiso   1.00
O653   O     0.73738   0.18878   0.78213   0.00000  Uiso   1.00
O654   O     0.92158   0.15226   0.77013   0.00000  Uiso   1.00
O655   O     0.80426   0.06944   0.73413   0.00000  Uiso   1.00
O656   O     0.87012   0.25620   0.71360   0.00000  Uiso   1.00
Zn657  Zn    0.86005   0.13994   0.78734   0.00000  Uiso   1.00
Zn658  Zn    0.80046   0.12458   0.71875   0.00000  Uiso   1.00
Zn659  Zn    0.87723   0.19775   0.70657   0.00000  Uiso   1.00
Zn660  Zn    0.79560   0.20439   0.78733   0.00000  Uiso   1.00
Br661  Br    0.23342   0.40363   0.58666   0.00000  Uiso   1.00
Br662  Br    0.22986   0.34728   0.69587   0.00000  Uiso   1.00
Br663  Br    0.09853   0.66008   0.80633   0.00000  Uiso   1.00
Br664  Br    0.17687   0.37610   0.93027   0.00000  Uiso   1.00
Br665  Br    0.13345   0.53710   0.59826   0.00000  Uiso   1.00
C666   C     0.05306   0.49340   0.75940   0.00000  Uiso   1.00
C667   C     0.17090   0.49881   0.56037   0.00000  Uiso   1.00
C668   C     0.20685   0.43816   0.55878   0.00000  Uiso   1.00
C669   C     0.28063   0.50701   0.74021   0.00000  Uiso   1.00
C670   C     0.14425   0.52878   0.91890   0.00000  Uiso   1.00
C671   C     0.32626   0.50919   0.73688   0.00000  Uiso   1.00
C672   C     0.00757   0.48994   0.76479   0.00000  Uiso   1.00
C673   C     0.18028   0.65585   0.73797   0.00000  Uiso   1.00
C674   C     0.15085   0.34582   0.76411   0.00000  Uiso   1.00
C675   C     0.15623   0.38944   0.75997   0.00000  Uiso   1.00
C676   C     0.17636   0.61120   0.74043   0.00000  Uiso   1.00
C677   C     0.15370   0.58625   0.97369   0.00000  Uiso   1.00
C678   C     0.18517   0.48128   0.62951   0.00000  Uiso   1.00
C679   C     0.14815   0.51766   0.87088   0.00000  Uiso   1.00
C680   C     0.20079   0.42476   0.51648   0.00000  Uiso   1.00
C681   C     0.19018   0.47413   0.58150   0.00000  Uiso   1.00
C682   C     0.14303   0.57095   0.93396   0.00000  Uiso   1.00
C683   C     0.16483   0.55961   0.99923   0.00000  Uiso   1.00
C684   C     0.16104   0.51622   0.98812   0.00000  Uiso   1.00
C685   C     0.15081   0.50045   0.94711   0.00000  Uiso   1.00
C686   C     0.17104   0.48859   0.51469   0.00000  Uiso   1.00
C687   C     0.18077   0.44848   0.99500   0.00000  Uiso   1.00
C688   C     0.16818   0.43222   0.95569   0.00000  Uiso   1.00
C689   C     0.14839   0.45708   0.93497   0.00000  Uiso   1.00
H690   H     0.21111   0.39525   0.50133   0.00000  Uiso   1.00
H691   H     0.13788   0.59292   0.91292   0.00000  Uiso   1.00
H692   H     0.17832   0.57372   0.52648   0.00000  Uiso   1.00
H693   H     0.15597   0.61933   0.98332   0.00000  Uiso   1.00
H694   H     0.01519   0.52683   0.71107   0.00000  Uiso   1.00
H695   H     0.33127   0.45605   0.81471   0.00000  Uiso   1.00
H696   H     0.11874   0.40977   0.90585   0.00000  Uiso   1.00
O697   O     0.16667   0.50000   0.75000   0.00000  Uiso   1.00
O698   O     0.15451   0.45970   0.65458   0.00000  Uiso   1.00
O699   O     0.12940   0.53724   0.84968   0.00000  Uiso   1.00
O700   O     0.20824   0.51092   0.64606   0.00000  Uiso   1.00
O701   O     0.17451   0.49213   0.84968   0.00000  Uiso   1.00
O702   O     0.31374   0.46743   0.79831   0.00000  Uiso   1.00
O703   O     0.12608   0.44003   0.90356   0.00000  Uiso   1.00
O704   O     0.17930   0.41352   0.78213   0.00000  Uiso   1.00
O705   O     0.14632   0.59418   0.77013   0.00000  Uiso   1.00
O706   O     0.07412   0.46625   0.73413   0.00000  Uiso   1.00
O707   O     0.26693   0.52605   0.71360   0.00000  Uiso   1.00
O708   O     0.07071   0.52211   0.78213   0.00000  Uiso   1.00
O709   O     0.25491   0.48559   0.77013   0.00000  Uiso   1.00
O710   O     0.13760   0.40277   0.73413   0.00000  Uiso   1.00
O711   O     0.20345   0.58953   0.71360   0.00000  Uiso   1.00
Zn712  Zn    0.19338   0.47327   0.78734   0.00000  Uiso   1.00
Zn713  Zn    0.13379   0.45791   0.71875   0.00000  Uiso   1.00
Zn714  Zn    0.21056   0.53109   0.70657   0.00000  Uiso   1.00
Zn715  Zn    0.12893   0.53773   0.78733   0.00000  Uiso   1.00
Br716  Br    0.56675   0.40363   0.58666   0.00000  Uiso   1.00
Br717  Br    0.56319   0.34728   0.69587   0.00000  Uiso   1.00
Br718  Br    0.43187   0.66008   0.80633   0.00000  Uiso   1.00
Br719  Br    0.51021   0.37610   0.93027   0.00000  Uiso   1.00
Br720  Br    0.46678   0.53710   0.59826   0.00000  Uiso   1.00
C721   C     0.38639   0.49340   0.75940   0.00000  Uiso   1.00
C722   C     0.50423   0.49881   0.56037   0.00000  Uiso   1.00
C723   C     0.54018   0.43816   0.55878   0.00000  Uiso   1.00
C724   C     0.61397   0.50701   0.74021   0.00000  Uiso   1.00
C725   C     0.47758   0.52878   0.91890   0.00000  Uiso   1.00
C726   C     0.65959   0.50919   0.73688   0.00000  Uiso   1.00
C727   C     0.34090   0.48994   0.76479   0.00000  Uiso   1.00
C728   C     0.51362   0.65585   0.73797   0.00000  Uiso   1.00
C729   C     0.48418   0.34582   0.76411   0.00000  Uiso   1.00
C730   C     0.48956   0.38944   0.75997   0.00000  Uiso   1.00
C731   C     0.50970   0.61120   0.74043   0.00000  Uiso   1.00
C732   C     0.48704   0.58625   0.97369   0.00000  Uiso   1.00
C733   C     0.51850   0.48128   0.62951   0.00000  Uiso   1.00
C734   C     0.48148   0.51766   0.87088   0.00000  Uiso   1.00
C735   C     0.53412   0.42476   0.51648   0.00000  Uiso   1.00
C736   C     0.52352   0.47413   0.58150   0.00000  Uiso   1.00
C737   C     0.47636   0.57095   0.93396   0.00000  Uiso   1.00
C738   C     0.49816   0.55961   0.99923   0.00000  Uiso   1.00
C739   C     0.49437   0.51622   0.98812   0.00000  Uiso   1.00
C740   C     0.48415   0.50045   0.94711   0.00000  Uiso   1.00
C741   C     0.50437   0.48859   0.51469   0.00000  Uiso   1.00
C742   C     0.51410   0.44848   0.99500   0.00000  Uiso   1.00
C743   C     0.50151   0.43222   0.95569   0.00000  Uiso   1.00
C744   C     0.48172   0.45708   0.93497   0.00000  Uiso   1.00
H745   H     0.54445   0.39525   0.50133   0.00000  Uiso   1.00
H746   H     0.47122   0.59292   0.91292   0.00000  Uiso   1.00
H747   H     0.51165   0.57372   0.52648   0.00000  Uiso   1.00
H748   H     0.48930   0.61933   0.98332   0.00000  Uiso   1.00
H749   H     0.34853   0.52683   0.71107   0.00000  Uiso   1.00
H750   H     0.66460   0.45605   0.81471   0.00000  Uiso   1.00
H751   H     0.45207   0.40977   0.90585   0.00000  Uiso   1.00
O752   O     0.50000   0.50000   0.75000   0.00000  Uiso   1.00
O753   O     0.48784   0.45970   0.65458   0.00000  Uiso   1.00
O754   O     0.46274   0.53724   0.84968   0.00000  Uiso   1.00
O755   O     0.54157   0.51092   0.64606   0.00000  Uiso   1.00
O756   O     0.50785   0.49213   0.84968   0.00000  Uiso   1.00
O757   O     0.64708   0.46743   0.79831   0.00000  Uiso   1.00
O758   O     0.45941   0.44003   0.90356   0.00000  Uiso   1.00
O759   O     0.51264   0.41352   0.78213   0.00000  Uiso   1.00
O760   O     0.47965   0.59418   0.77013   0.00000  Uiso   1.00
O761   O     0.40745   0.46625   0.73413   0.00000  Uiso   1.00
O762   O     0.60026   0.52605   0.71360   0.00000  Uiso   1.00
O763   O     0.40405   0.52211   0.78213   0.00000  Uiso   1.00
O764   O     0.58824   0.48559   0.77013   0.00000  Uiso   1.00
O765   O     0.47093   0.40277   0.73413   0.00000  Uiso   1.00
O766   O     0.53678   0.58953   0.71360   0.00000  Uiso   1.00
Zn767  Zn    0.52672   0.47327   0.78734   0.00000  Uiso   1.00
Zn768  Zn    0.46713   0.45791   0.71875   0.00000  Uiso   1.00
Zn769  Zn    0.54389   0.53109   0.70657   0.00000  Uiso   1.00
Zn770  Zn    0.46226   0.53773   0.78733   0.00000  Uiso   1.00
Br771  Br    0.90008   0.40363   0.58666   0.00000  Uiso   1.00
Br772  Br    0.89652   0.34728   0.69587   0.00000  Uiso   1.00
Br773  Br    0.76520   0.66008   0.80633   0.00000  Uiso   1.00
Br774  Br    0.84354   0.37610   0.93027   0.00000  Uiso   1.00
Br775  Br    0.80012   0.53710   0.59826   0.00000  Uiso   1.00
C776   C     0.71972   0.49340   0.75940   0.00000  Uiso   1.00
C777   C     0.83757   0.49881   0.56037   0.00000  Uiso   1.00
C778   C     0.87351   0.43816   0.55878   0.00000  Uiso   1.00
C779   C     0.94730   0.50701   0.74021   0.00000  Uiso   1.00
C780   C     0.81091   0.52878   0.91890   0.00000  Uiso   1.00
C781   C     0.99293   0.50919   0.73688   0.00000  Uiso   1.00
C782   C     0.67423   0.48994   0.76479   0.00000  Uiso   1.00
C783   C     0.84695   0.65585   0.73797   0.00000  Uiso   1.00
C784   C     0.81752   0.34582   0.76411   0.00000  Uiso   1.00
C785   C     0.82290   0.38944   0.75997   0.00000  Uiso   1.00
C786   C     0.84303   0.61120   0.74043   0.00000  Uiso   1.00
C787   C     0.82037   0.58625   0.97369   0.00000  Uiso   1.00
C788   C     0.85184   0.48128   0.62951   0.00000  Uiso   1.00
C789   C     0.81481   0.51766   0.87088   0.00000  Uiso   1.00
C790   C     0.86745   0.42476   0.51648   0.00000  Uiso   1.00
C791   C     0.85685   0.47413   0.58150   0.00000  Uiso   1.00
C792   C     0.80970   0.57095   0.93396   0.00000  Uiso   1.00
C793   C     0.83149   0.55961   0.99923   0.00000  Uiso   1.00
C794   C     0.82771   0.51622   0.98812   0.00000  Uiso   1.00
C795   C     0.81748   0.50045   0.94711   0.00000  Uiso   1.00
C796   C     0.83770   0.48859   0.51469   0.00000  Uiso   1.00
C797   C     0.84743   0.44848   0.99500   0.00000  Uiso   1.00
C798   C     0.83485   0.43222   0.95569   0.00000  Uiso   1.00
C799   C     0.81506   0.45708   0.93497   0.00000  Uiso   1.00
H800   H     0.87778   0.39525   0.50133   0.00000  Uiso   1.00
H801   H     0.80455   0.59292   0.91292   0.00000  Uiso   1.00
H802   H     0.84499   0.57372   0.52648   0.00000  Uiso   1.00
H803   H     0.82263   0.61933   0.98332   0.00000  Uiso   1.00
H804   H     0.68186   0.52683   0.71107   0.00000  Uiso   1.00
H805   H     0.99793   0.45605   0.81471   0.00000  Uiso   1.00
H806   H     0.78540   0.40977   0.90585   0.00000  Uiso   1.00
O807   O     0.83333   0.50000   0.75000   0.00000  Uiso   1.00
O808   O     0.82118   0.45970   0.65458   0.00000  Uiso   1.00
O809   O     0.79607   0.53724   0.84968   0.00000  Uiso   1.00
O810   O     0.87491   0.51092   0.64606   0.00000  Uiso   1.00
O811   O     0.84118   0.49213   0.84968   0.00000  Uiso   1.00
O812   O     0.98041   0.46743   0.79831   0.00000  Uiso   1.00
O813   O     0.79274   0.44003   0.90356   0.00000  Uiso   1.00
O814   O     0.84597   0.41352   0.78213   0.00000  Uiso   1.00
O815   O     0.81298   0.59418   0.77013   0.00000  Uiso   1.00
O816   O     0.74078   0.46625   0.73413   0.00000  Uiso   1.00
O817   O     0.93360   0.52605   0.71360   0.00000  Uiso   1.00
O818   O     0.73738   0.52211   0.78213   0.00000  Uiso   1.00
O819   O     0.92158   0.48559   0.77013   0.00000  Uiso   1.00
O820   O     0.80426   0.40277   0.73413   0.00000  Uiso   1.00
O821   O     0.87012   0.58953   0.71360   0.00000  Uiso   1.00
Zn822  Zn    0.86005   0.47327   0.78734   0.00000  Uiso   1.00
Zn823  Zn    0.80046   0.45791   0.71875   0.00000  Uiso   1.00
Zn824  Zn    0.87723   0.53109   0.70657   0.00000  Uiso   1.00
Zn825  Zn    0.79560   0.53773   0.78733   0.00000  Uiso   1.00
Br826  Br    0.23342   0.73696   0.58666   0.00000  Uiso   1.00
Br827  Br    0.22986   0.68062   0.69587   0.00000  Uiso   1.00
Br828  Br    0.09853   0.99341   0.80633   0.00000  Uiso   1.00
Br829  Br    0.17687   0.70943   0.93027   0.00000  Uiso   1.00
Br830  Br    0.13345   0.87043   0.59826   0.00000  Uiso   1.00
C831   C     0.05306   0.82673   0.75940   0.00000  Uiso   1.00
C832   C     0.17090   0.83214   0.56037   0.00000  Uiso   1.00
C833   C     0.20685   0.77149   0.55878   0.00000  Uiso   1.00
C834   C     0.28063   0.84034   0.74021   0.00000  Uiso   1.00
C835   C     0.14425   0.86212   0.91890   0.00000  Uiso   1.00
C836   C     0.32626   0.84253   0.73688   0.00000  Uiso   1.00
C837   C     0.00757   0.82327   0.76479   0.00000  Uiso   1.00
C838   C     0.18028   0.98918   0.73797   0.00000  Uiso   1.00
C839   C     0.15085   0.67916   0.76411   0.00000  Uiso   1.00
C840   C     0.15623   0.72278   0.75997   0.00000  Uiso   1.00
C841   C     0.17636   0.94454   0.74043   0.00000  Uiso   1.00
C842   C     0.15370   0.91959   0.97369   0.00000  Uiso   1.00
C843   C     0.18517   0.81461   0.62951   0.00000  Uiso   1.00
C844   C     0.14815   0.85100   0.87088   0.00000  Uiso   1.00
C845   C     0.20079   0.75809   0.51648   0.00000  Uiso   1.00
C846   C     0.19018   0.80747   0.58150   0.00000  Uiso   1.00
C847   C     0.14303   0.90428   0.93396   0.00000  Uiso   1.00
C848   C     0.16483   0.89294   0.99923   0.00000  Uiso   1.00
C849   C     0.16104   0.84955   0.98812   0.00000  Uiso   1.00
C850   C     0.15081   0.83378   0.94711   0.00000  Uiso   1.00
C851   C     0.17104   0.82192   0.51469   0.00000  Uiso   1.00
C852   C     0.18077   0.78181   0.99500   0.00000  Uiso   1.00
C853   C     0.16818   0.76556   0.95569   0.00000  Uiso   1.00
C854   C     0.14839   0.79042   0.93497   0.00000  Uiso   1.00
H855   H     0.21111   0.72859   0.50133   0.00000  Uiso   1.00
H856   H     0.13788   0.92625   0.91292   0.00000  Uiso   1.00
H857   H     0.17832   0.90705   0.52648   0.00000  Uiso   1.00
H858   H     0.15597   0.95266   0.98332   0.00000  Uiso   1.00
H859   H     0.01519   0.86016   0.71107   0.00000  Uiso   1.00
H860   H     0.33127   0.78939   0.81471   0.00000  Uiso   1.00
H861   H     0.11874   0.74310   0.90585   0.00000  Uiso   1.00
O862   O     0.16667   0.83333   0.75000   0.00000  Uiso   1.00
O863   O     0.15451   0.79304   0.65458   0.00000  Uiso   1.00
O864   O     0.12940   0.87058   0.84968   0.00000  Uiso   1.00
O865   O     0.20824   0.84425   0.64606   0.00000  Uiso   1.00
O866   O     0.17451   0.82546   0.84968   0.00000  Uiso   1.00
O867   O     0.31374   0.80077   0.79831   0.00000  Uiso   1.00
O868   O     0.12608   0.77337   0.90356   0.00000  Uiso   1.00
O869   O     0.17930   0.74686   0.78213   0.00000  Uiso   1.00
O870   O     0.14632   0.92751   0.77013   0.00000  Uiso   1.00
O871   O     0.07412   0.79958   0.73413   0.00000  Uiso   1.00
O872   O     0.26693   0.85939   0.71360   0.00000  Uiso   1.00
O873   O     0.07071   0.85544   0.78213   0.00000  Uiso   1.00
O874   O     0.25491   0.81892   0.77013   0.00000  Uiso   1.00
O875   O     0.13760   0.73610   0.73413   0.00000  Uiso   1.00
O876   O     0.20345   0.92286   0.71360   0.00000  Uiso   1.00
Zn877  Zn    0.19338   0.80661   0.78734   0.00000  Uiso   1.00
Zn878  Zn    0.13379   0.79124   0.71875   0.00000  Uiso   1.00
Zn879  Zn    0.21056   0.86442   0.70657   0.00000  Uiso   1.00
Zn880  Zn    0.12893   0.87106   0.78733   0.00000  Uiso   1.00
Br881  Br    0.56675   0.73696   0.58666   0.00000  Uiso   1.00
Br882  Br    0.56319   0.68062   0.69587   0.00000  Uiso   1.00
Br883  Br    0.43187   0.99341   0.80633   0.00000  Uiso   1.00
Br884  Br    0.51021   0.70943   0.93027   0.00000  Uiso   1.00
Br885  Br    0.46678   0.87043   0.59826   0.00000  Uiso   1.00
C886   C     0.38639   0.82673   0.75940   0.00000  Uiso   1.00
C887   C     0.50423   0.83214   0.56037   0.00000  Uiso   1.00
C888   C     0.54018   0.77149   0.55878   0.00000  Uiso   1.00
C889   C     0.61397   0.84034   0.74021   0.00000  Uiso   1.00
C890   C     0.47758   0.86212   0.91890   0.00000  Uiso   1.00
C891   C     0.65959   0.84253   0.73688   0.00000  Uiso   1.00
C892   C     0.34090   0.82327   0.76479   0.00000  Uiso   1.00
C893   C     0.51362   0.98918   0.73797   0.00000  Uiso   1.00
C894   C     0.48418   0.67916   0.76411   0.00000  Uiso   1.00
C895   C     0.48956   0.72278   0.75997   0.00000  Uiso   1.00
C896   C     0.50970   0.94454   0.74043   0.00000  Uiso   1.00
C897   C     0.48704   0.91959   0.97369   0.00000  Uiso   1.00
C898   C     0.51850   0.81461   0.62951   0.00000  Uiso   1.00
C899   C     0.48148   0.85100   0.87088   0.00000  Uiso   1.00
C900   C     0.53412   0.75809   0.51648   0.00000  Uiso   1.00
C901   C     0.52352   0.80747   0.58150   0.00000  Uiso   1.00
C902   C     0.47636   0.90428   0.93396   0.00000  Uiso   1.00
C903   C     0.49816   0.89294   0.99923   0.00000  Uiso   1.00
C904   C     0.49437   0.84955   0.98812   0.00000  Uiso   1.00
C905   C     0.48415   0.83378   0.94711   0.00000  Uiso   1.00
C906   C     0.50437   0.82192   0.51469   0.00000  Uiso   1.00
C907   C     0.51410   0.78181   0.99500   0.00000  Uiso   1.00
C908   C     0.50151   0.76556   0.95569   0.00000  Uiso   1.00
C909   C     0.48172   0.79042   0.93497   0.00000  Uiso   1.00
H910   H     0.54445   0.72859   0.50133   0.00000  Uiso   1.00
H911   H     0.47122   0.92625   0.91292   0.00000  Uiso   1.00
H912   H     0.51165   0.90705   0.52648   0.00000  Uiso   1.00
H913   H     0.48930   0.95266   0.98332   0.00000  Uiso   1.00
H914   H     0.34853   0.86016   0.71107   0.00000  Uiso   1.00
H915   H     0.66460   0.78939   0.81471   0.00000  Uiso   1.00
H916   H     0.45207   0.74310   0.90585   0.00000  Uiso   1.00
O917   O     0.50000   0.83333   0.75000   0.00000  Uiso   1.00
O918   O     0.48784   0.79304   0.65458   0.00000  Uiso   1.00
O919   O     0.46274   0.87058   0.84968   0.00000  Uiso   1.00
O920   O     0.54157   0.84425   0.64606   0.00000  Uiso   1.00
O921   O     0.50785   0.82546   0.84968   0.00000  Uiso   1.00
O922   O     0.64708   0.80077   0.79831   0.00000  Uiso   1.00
O923   O     0.45941   0.77337   0.90356   0.00000  Uiso   1.00
O924   O     0.51264   0.74686   0.78213   0.00000  Uiso   1.00
O925   O     0.47965   0.92751   0.77013   0.00000  Uiso   1.00
O926   O     0.40745   0.79958   0.73413   0.00000  Uiso   1.00
O927   O     0.60026   0.85939   0.71360   0.00000  Uiso   1.00
O928   O     0.40405   0.85544   0.78213   0.00000  Uiso   1.00
O929   O     0.58824   0.81892   0.77013   0.00000  Uiso   1.00
O930   O     0.47093   0.73610   0.73413   0.00000  Uiso   1.00
O931   O     0.53678   0.92286   0.71360   0.00000  Uiso   1.00
Zn932  Zn    0.52672   0.80661   0.78734   0.00000  Uiso   1.00
Zn933  Zn    0.46713   0.79124   0.71875   0.00000  Uiso   1.00
Zn934  Zn    0.54389   0.86442   0.70657   0.00000  Uiso   1.00
Zn935  Zn    0.46226   0.87106   0.78733   0.00000  Uiso   1.00
Br936  Br    0.90008   0.73696   0.58666   0.00000  Uiso   1.00
Br937  Br    0.89652   0.68062   0.69587   0.00000  Uiso   1.00
Br938  Br    0.76520   0.99341   0.80633   0.00000  Uiso   1.00
Br939  Br    0.84354   0.70943   0.93027   0.00000  Uiso   1.00
Br940  Br    0.80012   0.87043   0.59826   0.00000  Uiso   1.00
C941   C     0.71972   0.82673   0.75940   0.00000  Uiso   1.00
C942   C     0.83757   0.83214   0.56037   0.00000  Uiso   1.00
C943   C     0.87351   0.77149   0.55878   0.00000  Uiso   1.00
C944   C     0.94730   0.84034   0.74021   0.00000  Uiso   1.00
C945   C     0.81091   0.86212   0.91890   0.00000  Uiso   1.00
C946   C     0.99293   0.84253   0.73688   0.00000  Uiso   1.00
C947   C     0.67423   0.82327   0.76479   0.00000  Uiso   1.00
C948   C     0.84695   0.98918   0.73797   0.00000  Uiso   1.00
C949   C     0.81752   0.67916   0.76411   0.00000  Uiso   1.00
C950   C     0.82290   0.72278   0.75997   0.00000  Uiso   1.00
C951   C     0.84303   0.94454   0.74043   0.00000  Uiso   1.00
C952   C     0.82037   0.91959   0.97369   0.00000  Uiso   1.00
C953   C     0.85184   0.81461   0.62951   0.00000  Uiso   1.00
C954   C     0.81481   0.85100   0.87088   0.00000  Uiso   1.00
C955   C     0.86745   0.75809   0.51648   0.00000  Uiso   1.00
C956   C     0.85685   0.80747   0.58150   0.00000  Uiso   1.00
C957   C     0.80970   0.90428   0.93396   0.00000  Uiso   1.00
C958   C     0.83149   0.89294   0.99923   0.00000  Uiso   1.00
C959   C     0.82771   0.84955   0.98812   0.00000  Uiso   1.00
C960   C     0.81748   0.83378   0.94711   0.00000  Uiso   1.00
C961   C     0.83770   0.82192   0.51469   0.00000  Uiso   1.00
C962   C     0.84743   0.78181   0.99500   0.00000  Uiso   1.00
C963   C     0.83485   0.76556   0.95569   0.00000  Uiso   1.00
C964   C     0.81506   0.79042   0.93497   0.00000  Uiso   1.00
H965   H     0.87778   0.72859   0.50133   0.00000  Uiso   1.00
H966   H     0.80455   0.92625   0.91292   0.00000  Uiso   1.00
H967   H     0.84499   0.90705   0.52648   0.00000  Uiso   1.00
H968   H     0.82263   0.95266   0.98332   0.00000  Uiso   1.00
H969   H     0.68186   0.86016   0.71107   0.00000  Uiso   1.00
H970   H     0.99793   0.78939   0.81471   0.00000  Uiso   1.00
H971   H     0.78540   0.74310   0.90585   0.00000  Uiso   1.00
O972   O     0.83333   0.83333   0.75000   0.00000  Uiso   1.00
O973   O     0.82118   0.79304   0.65458   0.00000  Uiso   1.00
O974   O     0.79607   0.87058   0.84968   0.00000  Uiso   1.00
O975   O     0.87491   0.84425   0.64606   0.00000  Uiso   1.00
O976   O     0.84118   0.82546   0.84968   0.00000  Uiso   1.00
O977   O     0.98041   0.80077   0.79831   0.00000  Uiso   1.00
O978   O     0.79274   0.77337   0.90356   0.00000  Uiso   1.00
O979   O     0.84597   0.74686   0.78213   0.00000  Uiso   1.00
O980   O     0.81298   0.92751   0.77013   0.00000  Uiso   1.00
O981   O     0.74078   0.79958   0.73413   0.00000  Uiso   1.00
O982   O     0.93360   0.85939   0.71360   0.00000  Uiso   1.00
O983   O     0.73738   0.85544   0.78213   0.00000  Uiso   1.00
O984   O     0.92158   0.81892   0.77013   0.00000  Uiso   1.00
O985   O     0.80426   0.73610   0.73413   0.00000  Uiso   1.00
O986   O     0.87012   0.92286   0.71360   0.00000  Uiso   1.00
Zn987  Zn    0.86005   0.80661   0.78734   0.00000  Uiso   1.00
Zn988  Zn    0.80046   0.79124   0.71875   0.00000  Uiso   1.00
Zn989  Zn    0.87723   0.86442   0.70657   0.00000  Uiso   1.00
Zn990  Zn    0.79560   0.87106   0.78733   0.00000  Uiso   1.00
loop_
_geom_bond_atom_site_label_1
_geom_bond_atom_site_label_2
_geom_bond_distance
_geom_bond_site_symmetry_2
_ccdc_geom_bond_type
Br1    C8      1.921   .     S
Br2    C343    1.934   1_545 S
Br3    C179    1.931   .     S
Br4    C28     1.937   .     S
Br5    C7      1.946   .     S
C6     C12     1.439   .     S
C6     O46     1.267   .     A
C6     O48     1.267   .     A
C7     C26     1.417   .     A
C7     C21     1.403   .     A
C8     C21     1.401   .     A
C8     C20     1.389   .     A
C9     C11     1.457   .     S
C9     O47     1.291   .     A
C9     O49     1.277   .     A
C10    C19     1.469   .     S
C10    C22     1.403   .     A
C10    C25     1.421   .     A
C11    C67     1.345   .     S
C11    H89     1.088   .     S
C12    C121    1.345   1_455 S
C12    O152    1.384   1_455 S
C13    C16     1.454   .     S
C13    Br167   1.934   .     S
C13    C179    1.349   .     S
C14    C15     1.426   .     S
C14    Br333   1.931   1_545 S
C14    C343    1.349   1_545 S
C15    O44     1.275   .     A
C15    O50     1.273   .     A
C16    O45     1.269   .     A
C16    O51     1.278   .     A
C17    C22     1.385   .     A
C17    C23     1.388   .     A
C17    H33     1.083   .     S
C18    C21     1.451   .     S
C18    O38     1.272   .     A
C18    O40     1.279   .     A
C19    O39     1.282   .     A
C19    O41     1.286   .     A
C20    H30     1.081   .     S
C20    C522    1.405   1_554 S
C22    H31     1.084   .     S
C23    C24     1.413   .     A
C23    H527    1.079   .     S
C24    C25     1.419   .     A
C24    C521    1.417   .     S
C25    C29     1.417   .     A
C26    C519    1.417   1_554 S
C26    C522    1.421   1_554 S
C27    C28     1.409   .     A
C27    C521    1.421   .     S
C27    C515    1.405   .     S
C28    C29     1.410   .     A
C29    O43     1.384   .     S
H32    C518    1.079   1_554 S
H34    C121    1.088   1_455 S
H35    O42     0.992   .     S
H36    O43     0.988   .     S
O37    Zn53    1.942   .     S
O37    Zn54    1.946   .     S
O37    Zn52    1.965   .     S
O37    Zn55    1.933   .     S
O38    Zn53    1.934   .     S
O39    Zn55    1.942   .     S
O40    Zn54    1.932   .     S
O41    Zn52    1.926   .     S
O42    C67     1.384   .     S
O44    Zn52    1.935   .     S
O45    Zn55    1.942   .     S
O46    Zn53    1.932   .     S
O47    Zn54    1.941   .     S
O48    Zn55    1.937   .     S
O49    Zn52    1.931   .     S
O50    Zn53    1.946   .     S
O51    Zn54    1.936   .     S
Br56   C63     1.921   .     S
Br57   C398    1.934   1_545 S
Br58   C234    1.931   .     S
Br59   C83     1.937   .     S
Br60   C62     1.946   .     S
C61    C67     1.439   .     S
C61    O101    1.267   .     A
C61    O103    1.267   .     A
C62    C81     1.417   .     A
C62    C76     1.403   .     A
C63    C76     1.401   .     A
C63    C75     1.389   .     A
C64    C66     1.457   .     S
C64    O102    1.291   .     A
C64    O104    1.277   .     A
C65    C74     1.469   .     S
C65    C77     1.403   .     A
C65    C80     1.421   .     A
C66    C122    1.345   .     S
C66    H144    1.088   .     S
C68    C71     1.454   .     S
C68    Br222   1.934   .     S
C68    C234    1.349   .     S
C69    C70     1.426   .     S
C69    Br388   1.931   1_545 S
C69    C398    1.349   1_545 S
C70    O99     1.275   .     A
C70    O105    1.273   .     A
C71    O100    1.269   .     A
C71    O106    1.278   .     A
C72    C77     1.385   .     A
C72    C78     1.388   .     A
C72    H88     1.083   .     S
C73    C76     1.451   .     S
C73    O93     1.272   .     A
C73    O95     1.279   .     A
C74    O94     1.282   .     A
C74    O96     1.286   .     A
C75    H85     1.081   .     S
C75    C577    1.405   1_554 S
C77    H86     1.084   .     S
C78    C79     1.413   .     A
C78    H582    1.079   .     S
C79    C80     1.419   .     A
C79    C576    1.417   .     S
C80    C84     1.417   .     A
C81    C574    1.417   1_554 S
C81    C577    1.421   1_554 S
C82    C83     1.409   .     A
C82    C576    1.421   .     S
C82    C570    1.405   .     S
C83    C84     1.410   .     A
C84    O98     1.384   .     S
H87    C573    1.079   1_554 S
H90    O97     0.992   .     S
H91    O98     0.988   .     S
O92    Zn108   1.942   .     S
O92    Zn109   1.946   .     S
O92    Zn107   1.965   .     S
O92    Zn110   1.933   .     S
O93    Zn108   1.934   .     S
O94    Zn110   1.942   .     S
O95    Zn109   1.932   .     S
O96    Zn107   1.926   .     S
O97    C122    1.384   .     S
O99    Zn107   1.935   .     S
O100   Zn110   1.942   .     S
O101   Zn108   1.932   .     S
O102   Zn109   1.941   .     S
O103   Zn110   1.937   .     S
O104   Zn107   1.931   .     S
O105   Zn108   1.946   .     S
O106   Zn109   1.936   .     S
Br111  C118    1.921   .     S
Br112  C453    1.934   1_545 S
Br113  C289    1.931   .     S
Br114  C138    1.937   .     S
Br115  C117    1.946   .     S
C116   C122    1.439   .     S
C116   O156    1.267   .     A
C116   O158    1.267   .     A
C117   C136    1.417   .     A
C117   C131    1.403   .     A
C118   C131    1.401   .     A
C118   C130    1.389   .     A
C119   C121    1.457   .     S
C119   O157    1.291   .     A
C119   O159    1.277   .     A
C120   C129    1.469   .     S
C120   C132    1.403   .     A
C120   C135    1.421   .     A
C121   C12     1.345   1_655 S
C121   H34     1.088   1_655 S
C123   C126    1.454   .     S
C123   Br277   1.934   .     S
C123   C289    1.349   .     S
C124   C125    1.426   .     S
C124   Br443   1.931   1_545 S
C124   C453    1.349   1_545 S
C125   O154    1.275   .     A
C125   O160    1.273   .     A
C126   O155    1.269   .     A
C126   O161    1.278   .     A
C127   C132    1.385   .     A
C127   C133    1.388   .     A
C127   H143    1.083   .     S
C128   C131    1.451   .     S
C128   O148    1.272   .     A
C128   O150    1.279   .     A
C129   O149    1.282   .     A
C129   O151    1.286   .     A
C130   H140    1.081   .     S
C130   C632    1.405   1_554 S
C132   H141    1.084   .     S
C133   C134    1.413   .     A
C133   H637    1.079   .     S
C134   C135    1.419   .     A
C134   C631    1.417   .     S
C135   C139    1.417   .     A
C136   C629    1.417   1_554 S
C136   C632    1.421   1_554 S
C137   C138    1.409   .     A
C137   C631    1.421   .     S
C137   C625    1.405   .     S
C138   C139    1.410   .     A
C139   O153    1.384   .     S
H142   C628    1.079   1_554 S
H145   O152    0.992   .     S
H146   O153    0.988   .     S
O147   Zn163   1.942   .     S
O147   Zn164   1.946   .     S
O147   Zn162   1.965   .     S
O147   Zn165   1.933   .     S
O148   Zn163   1.934   .     S
O149   Zn165   1.942   .     S
O150   Zn164   1.932   .     S
O151   Zn162   1.926   .     S
O152   C12     1.384   1_655 S
O154   Zn162   1.935   .     S
O155   Zn165   1.942   .     S
O156   Zn163   1.932   .     S
O157   Zn164   1.941   .     S
O158   Zn165   1.937   .     S
O159   Zn162   1.931   .     S
O160   Zn163   1.946   .     S
O161   Zn164   1.936   .     S
Br166  C173    1.921   .     S
Br168  C344    1.931   .     S
Br169  C193    1.937   .     S
Br170  C172    1.946   .     S
C171   C177    1.439   .     S
C171   O211    1.267   .     A
C171   O213    1.267   .     A
C172   C191    1.417   .     A
C172   C186    1.403   .     A
C173   C186    1.401   .     A
C173   C185    1.389   .     A
C174   C176    1.457   .     S
C174   O212    1.291   .     A
C174   O214    1.277   .     A
C175   C184    1.469   .     S
C175   C187    1.403   .     A
C175   C190    1.421   .     A
C176   C232    1.345   .     S
C176   H254    1.088   .     S
C177   C286    1.345   1_455 S
C177   O317    1.384   1_455 S
C178   C181    1.454   .     S
C178   Br332   1.934   .     S
C178   C344    1.349   .     S
C179   C180    1.426   .     S
C180   O209    1.275   .     A
C180   O215    1.273   .     A
C181   O210    1.269   .     A
C181   O216    1.278   .     A
C182   C187    1.385   .     A
C182   C188    1.388   .     A
C182   H198    1.083   .     S
C183   C186    1.451   .     S
C183   O203    1.272   .     A
C183   O205    1.279   .     A
C184   O204    1.282   .     A
C184   O206    1.286   .     A
C185   H195    1.081   .     S
C185   C687    1.405   1_554 S
C187   H196    1.084   .     S
C188   C189    1.413   .     A
C188   H692    1.079   .     S
C189   C190    1.419   .     A
C189   C686    1.417   .     S
C190   C194    1.417   .     A
C191   C684    1.417   1_554 S
C191   C687    1.421   1_554 S
C192   C193    1.409   .     A
C192   C686    1.421   .     S
C192   C680    1.405   .     S
C193   C194    1.410   .     A
C194   O208    1.384   .     S
H197   C683    1.079   1_554 S
H199   C286    1.088   1_455 S
H200   O207    0.992   .     S
H201   O208    0.988   .     S
O202   Zn218   1.942   .     S
O202   Zn219   1.946   .     S
O202   Zn217   1.965   .     S
O202   Zn220   1.933   .     S
O203   Zn218   1.934   .     S
O204   Zn220   1.942   .     S
O205   Zn219   1.932   .     S
O206   Zn217   1.926   .     S
O207   C232    1.384   .     S
O209   Zn217   1.935   .     S
O210   Zn220   1.942   .     S
O211   Zn218   1.932   .     S
O212   Zn219   1.941   .     S
O213   Zn220   1.937   .     S
O214   Zn217   1.931   .     S
O215   Zn218   1.946   .     S
O216   Zn219   1.936   .     S
Br221  C228    1.921   .     S
Br223  C399    1.931   .     S
Br224  C248    1.937   .     S
Br225  C227    1.946   .     S
C226   C232    1.439   .     S
C226   O266    1.267   .     A
C226   O268    1.267   .     A
C227   C246    1.417   .     A
C227   C241    1.403   .     A
C228   C241    1.401   .     A
C228   C240    1.389   .     A
C229   C231    1.457   .     S
C229   O267    1.291   .     A
C229   O269    1.277   .     A
C230   C239    1.469   .     S
C230   C242    1.403   .     A
C230   C245    1.421   .     A
C231   C287    1.345   .     S
C231   H309    1.088   .     S
C233   C236    1.454   .     S
C233   Br387   1.934   .     S
C233   C399    1.349   .     S
C234   C235    1.426   .     S
C235   O264    1.275   .     A
C235   O270    1.273   .     A
C236   O265    1.269   .     A
C236   O271    1.278   .     A
C237   C242    1.385   .     A
C237   C243    1.388   .     A
C237   H253    1.083   .     S
C238   C241    1.451   .     S
C238   O258    1.272   .     A
C238   O260    1.279   .     A
C239   O259    1.282   .     A
C239   O261    1.286   .     A
C240   H250    1.081   .     S
C240   C742    1.405   1_554 S
C242   H251    1.084   .     S
C243   C244    1.413   .     A
C243   H747    1.079   .     S
C244   C245    1.419   .     A
C244   C741    1.417   .     S
C245   C249    1.417   .     A
C246   C739    1.417   1_554 S
C246   C742    1.421   1_554 S
C247   C248    1.409   .     A
C247   C741    1.421   .     S
C247   C735    1.405   .     S
C248   C249    1.410   .     A
C249   O263    1.384   .     S
H252   C738    1.079   1_554 S
H255   O262    0.992   .     S
H256   O263    0.988   .     S
O257   Zn273   1.942   .     S
O257   Zn274   1.946   .     S
O257   Zn272   1.965   .     S
O257   Zn275   1.933   .     S
O258   Zn273   1.934   .     S
O259   Zn275   1.942   .     S
O260   Zn274   1.932   .     S
O261   Zn272   1.926   .     S
O262   C287    1.384   .     S
O264   Zn272   1.935   .     S
O265   Zn275   1.942   .     S
O266   Zn273   1.932   .     S
O267   Zn274   1.941   .     S
O268   Zn275   1.937   .     S
O269   Zn272   1.931   .     S
O270   Zn273   1.946   .     S
O271   Zn274   1.936   .     S
Br276  C283    1.921   .     S
Br278  C454    1.931   .     S
Br279  C303    1.937   .     S
Br280  C282    1.946   .     S
C281   C287    1.439   .     S
C281   O321    1.267   .     A
C281   O323    1.267   .     A
C282   C301    1.417   .     A
C282   C296    1.403   .     A
C283   C296    1.401   .     A
C283   C295    1.389   .     A
C284   C286    1.457   .     S
C284   O322    1.291   .     A
C284   O324    1.277   .     A
C285   C294    1.469   .     S
C285   C297    1.403   .     A
C285   C300    1.421   .     A
C286   C177    1.345   1_655 S
C286   H199    1.088   1_655 S
C288   C291    1.454   .     S
C288   Br442   1.934   .     S
C288   C454    1.349   .     S
C289   C290    1.426   .     S
C290   O319    1.275   .     A
C290   O325    1.273   .     A
C291   O320    1.269   .     A
C291   O326    1.278   .     A
C292   C297    1.385   .     A
C292   C298    1.388   .     A
C292   H308    1.083   .     S
C293   C296    1.451   .     S
C293   O313    1.272   .     A
C293   O315    1.279   .     A
C294   O314    1.282   .     A
C294   O316    1.286   .     A
C295   H305    1.081   .     S
C295   C797    1.405   1_554 S
C297   H306    1.084   .     S
C298   C299    1.413   .     A
C298   H802    1.079   .     S
C299   C300    1.419   .     A
C299   C796    1.417   .     S
C300   C304    1.417   .     A
C301   C794    1.417   1_554 S
C301   C797    1.421   1_554 S
C302   C303    1.409   .     A
C302   C796    1.421   .     S
C302   C790    1.405   .     S
C303   C304    1.410   .     A
C304   O318    1.384   .     S
H307   C793    1.079   1_554 S
H310   O317    0.992   .     S
H311   O318    0.988   .     S
O312   Zn328   1.942   .     S
O312   Zn329   1.946   .     S
O312   Zn327   1.965   .     S
O312   Zn330   1.933   .     S
O313   Zn328   1.934   .     S
O314   Zn330   1.942   .     S
O315   Zn329   1.932   .     S
O316   Zn327   1.926   .     S
O317   C177    1.384   1_655 S
O319   Zn327   1.935   .     S
O320   Zn330   1.942   .     S
O321   Zn328   1.932   .     S
O322   Zn329   1.941   .     S
O323   Zn330   1.937   .     S
O324   Zn327   1.931   .     S
O325   Zn328   1.946   .     S
O326   Zn329   1.936   .     S
Br331  C338    1.921   .     S
Br333  C14     1.931   1_565 S
Br334  C358    1.937   .     S
Br335  C337    1.946   .     S
C336   C342    1.439   .     S
C336   O376    1.267   .     A
C336   O378    1.267   .     A
C337   C356    1.417   .     A
C337   C351    1.403   .     A
C338   C351    1.401   .     A
C338   C350    1.389   .     A
C339   C341    1.457   .     S
C339   O377    1.291   .     A
C339   O379    1.277   .     A
C340   C349    1.469   .     S
C340   C352    1.403   .     A
C340   C355    1.421   .     A
C341   C397    1.345   .     S
C341   H419    1.088   .     S
C342   C451    1.345   1_455 S
C342   O482    1.384   1_455 S
C343   C346    1.454   .     S
C343   Br2     1.934   1_565 S
C343   C14     1.349   1_565 S
C344   C345    1.426   .     S
C345   O374    1.275   .     A
C345   O380    1.273   .     A
C346   O375    1.269   .     A
C346   O381    1.278   .     A
C347   C352    1.385   .     A
C347   C353    1.388   .     A
C347   H363    1.083   .     S
C348   C351    1.451   .     S
C348   O368    1.272   .     A
C348   O370    1.279   .     A
C349   O369    1.282   .     A
C349   O371    1.286   .     A
C350   H360    1.081   .     S
C350   C852    1.405   1_554 S
C352   H361    1.084   .     S
C353   C354    1.413   .     A
C353   H857    1.079   .     S
C354   C355    1.419   .     A
C354   C851    1.417   .     S
C355   C359    1.417   .     A
C356   C849    1.417   1_554 S
C356   C852    1.421   1_554 S
C357   C358    1.409   .     A
C357   C851    1.421   .     S
C357   C845    1.405   .     S
C358   C359    1.410   .     A
C359   O373    1.384   .     S
H362   C848    1.079   1_554 S
H364   C451    1.088   1_455 S
H365   O372    0.992   .     S
H366   O373    0.988   .     S
O367   Zn383   1.942   .     S
O367   Zn384   1.946   .     S
O367   Zn382   1.965   .     S
O367   Zn385   1.933   .     S
O368   Zn383   1.934   .     S
O369   Zn385   1.942   .     S
O370   Zn384   1.932   .     S
O371   Zn382   1.926   .     S
O372   C397    1.384   .     S
O374   Zn382   1.935   .     S
O375   Zn385   1.942   .     S
O376   Zn383   1.932   .     S
O377   Zn384   1.941   .     S
O378   Zn385   1.937   .     S
O379   Zn382   1.931   .     S
O380   Zn383   1.946   .     S
O381   Zn384   1.936   .     S
Br386  C393    1.921   .     S
Br388  C69     1.931   1_565 S
Br389  C413    1.937   .     S
Br390  C392    1.946   .     S
C391   C397    1.439   .     S
C391   O431    1.267   .     A
C391   O433    1.267   .     A
C392   C411    1.417   .     A
C392   C406    1.403   .     A
C393   C406    1.401   .     A
C393   C405    1.389   .     A
C394   C396    1.457   .     S
C394   O432    1.291   .     A
C394   O434    1.277   .     A
C395   C404    1.469   .     S
C395   C407    1.403   .     A
C395   C410    1.421   .     A
C396   C452    1.345   .     S
C396   H474    1.088   .     S
C398   C401    1.454   .     S
C398   Br57    1.934   1_565 S
C398   C69     1.349   1_565 S
C399   C400    1.426   .     S
C400   O429    1.275   .     A
C400   O435    1.273   .     A
C401   O430    1.269   .     A
C401   O436    1.278   .     A
C402   C407    1.385   .     A
C402   C408    1.388   .     A
C402   H418    1.083   .     S
C403   C406    1.451   .     S
C403   O423    1.272   .     A
C403   O425    1.279   .     A
C404   O424    1.282   .     A
C404   O426    1.286   .     A
C405   H415    1.081   .     S
C405   C907    1.405   1_554 S
C407   H416    1.084   .     S
C408   C409    1.413   .     A
C408   H912    1.079   .     S
C409   C410    1.419   .     A
C409   C906    1.417   .     S
C410   C414    1.417   .     A
C411   C904    1.417   1_554 S
C411   C907    1.421   1_554 S
C412   C413    1.409   .     A
C412   C906    1.421   .     S
C412   C900    1.405   .     S
C413   C414    1.410   .     A
C414   O428    1.384   .     S
H417   C903    1.079   1_554 S
H420   O427    0.992   .     S
H421   O428    0.988   .     S
O422   Zn438   1.942   .     S
O422   Zn439   1.946   .     S
O422   Zn437   1.965   .     S
O422   Zn440   1.933   .     S
O423   Zn438   1.934   .     S
O424   Zn440   1.942   .     S
O425   Zn439   1.932   .     S
O426   Zn437   1.926   .     S
O427   C452    1.384   .     S
O429   Zn437   1.935   .     S
O430   Zn440   1.942   .     S
O431   Zn438   1.932   .     S
O432   Zn439   1.941   .     S
O433   Zn440   1.937   .     S
O434   Zn437   1.931   .     S
O435   Zn438   1.946   .     S
O436   Zn439   1.936   .     S
Br441  C448    1.921   .     S
Br443  C124    1.931   1_565 S
Br444  C468    1.937   .     S
Br445  C447    1.946   .     S
C446   C452    1.439   .     S
C446   O486    1.267   .     A
C446   O488    1.267   .     A
C447   C466    1.417   .     A
C447   C461    1.403   .     A
C448   C461    1.401   .     A
C448   C460    1.389   .     A
C449   C451    1.457   .     S
C449   O487    1.291   .     A
C449   O489    1.277   .     A
C450   C459    1.469   .     S
C450   C462    1.403   .     A
C450   C465    1.421   .     A
C451   C342    1.345   1_655 S
C451   H364    1.088   1_655 S
C453   C456    1.454   .     S
C453   Br112   1.934   1_565 S
C453   C124    1.349   1_565 S
C454   C455    1.426   .     S
C455   O484    1.275   .     A
C455   O490    1.273   .     A
C456   O485    1.269   .     A
C456   O491    1.278   .     A
C457   C462    1.385   .     A
C457   C463    1.388   .     A
C457   H473    1.083   .     S
C458   C461    1.451   .     S
C458   O478    1.272   .     A
C458   O480    1.279   .     A
C459   O479    1.282   .     A
C459   O481    1.286   .     A
C460   H470    1.081   .     S
C460   C962    1.405   1_554 S
C462   H471    1.084   .     S
C463   C464    1.413   .     A
C463   H967    1.079   .     S
C464   C465    1.419   .     A
C464   C961    1.417   .     S
C465   C469    1.417   .     A
C466   C959    1.417   1_554 S
C466   C962    1.421   1_554 S
C467   C468    1.409   .     A
C467   C961    1.421   .     S
C467   C955    1.405   .     S
C468   C469    1.410   .     A
C469   O483    1.384   .     S
H472   C958    1.079   1_554 S
H475   O482    0.992   .     S
H476   O483    0.988   .     S
O477   Zn493   1.942   .     S
O477   Zn494   1.946   .     S
O477   Zn492   1.965   .     S
O477   Zn495   1.933   .     S
O478   Zn493   1.934   .     S
O479   Zn495   1.942   .     S
O480   Zn494   1.932   .     S
O481   Zn492   1.926   .     S
O482   C342    1.384   1_655 S
O484   Zn492   1.935   .     S
O485   Zn495   1.942   .     S
O486   Zn493   1.932   .     S
O487   Zn494   1.941   .     S
O488   Zn495   1.937   .     S
O489   Zn492   1.931   .     S
O490   Zn493   1.946   .     S
O491   Zn494   1.936   .     S
Br496  C503    1.921   .     S
Br497  C838    1.934   1_545 S
Br498  C674    1.931   .     S
Br499  C523    1.937   .     S
Br500  C502    1.946   .     S
C501   C507    1.439   .     S
C501   O541    1.267   .     A
C501   O543    1.267   .     A
C502   C521    1.417   .     A
C502   C516    1.403   .     A
C503   C516    1.401   .     A
C503   C515    1.389   .     A
C504   C506    1.457   .     S
C504   O542    1.291   .     A
C504   O544    1.277   .     A
C505   C514    1.469   .     S
C505   C517    1.403   .     A
C505   C520    1.421   .     A
C506   C562    1.345   .     S
C506   H584    1.088   .     S
C507   C616    1.345   1_455 S
C507   O647    1.384   1_455 S
C508   C511    1.454   .     S
C508   Br662   1.934   .     S
C508   C674    1.349   .     S
C509   C510    1.426   .     S
C509   Br828   1.931   1_545 S
C509   C838    1.349   1_545 S
C510   O539    1.275   .     A
C510   O545    1.273   .     A
C511   O540    1.269   .     A
C511   O546    1.278   .     A
C512   C517    1.385   .     A
C512   C518    1.388   .     A
C512   H528    1.083   .     S
C513   C516    1.451   .     S
C513   O533    1.272   .     A
C513   O535    1.279   .     A
C514   O534    1.282   .     A
C514   O536    1.286   .     A
C515   H525    1.081   .     S
C517   H526    1.084   .     S
C518   C519    1.413   .     A
C518   H32     1.079   1_556 S
C519   C520    1.419   .     A
C519   C26     1.417   1_556 S
C520   C524    1.417   .     A
C522   C523    1.409   .     A
C522   C26     1.421   1_556 S
C522   C20     1.405   1_556 S
C523   C524    1.410   .     A
C524   O538    1.384   .     S
H529   C616    1.088   1_455 S
H530   O537    0.992   .     S
H531   O538    0.988   .     S
O532   Zn548   1.942   .     S
O532   Zn549   1.946   .     S
O532   Zn547   1.965   .     S
O532   Zn550   1.933   .     S
O533   Zn548   1.934   .     S
O534   Zn550   1.942   .     S
O535   Zn549   1.932   .     S
O536   Zn547   1.926   .     S
O537   C562    1.384   .     S
O539   Zn547   1.935   .     S
O540   Zn550   1.942   .     S
O541   Zn548   1.932   .     S
O542   Zn549   1.941   .     S
O543   Zn550   1.937   .     S
O544   Zn547   1.931   .     S
O545   Zn548   1.946   .     S
O546   Zn549   1.936   .     S
Br551  C558    1.921   .     S
Br552  C893    1.934   1_545 S
Br553  C729    1.931   .     S
Br554  C578    1.937   .     S
Br555  C557    1.946   .     S
C556   C562    1.439   .     S
C556   O596    1.267   .     A
C556   O598    1.267   .     A
C557   C576    1.417   .     A
C557   C571    1.403   .     A
C558   C571    1.401   .     A
C558   C570    1.389   .     A
C559   C561    1.457   .     S
C559   O597    1.291   .     A
C559   O599    1.277   .     A
C560   C569    1.469   .     S
C560   C572    1.403   .     A
C560   C575    1.421   .     A
C561   C617    1.345   .     S
C561   H639    1.088   .     S
C563   C566    1.454   .     S
C563   Br717   1.934   .     S
C563   C729    1.349   .     S
C564   C565    1.426   .     S
C564   Br883   1.931   1_545 S
C564   C893    1.349   1_545 S
C565   O594    1.275   .     A
C565   O600    1.273   .     A
C566   O595    1.269   .     A
C566   O601    1.278   .     A
C567   C572    1.385   .     A
C567   C573    1.388   .     A
C567   H583    1.083   .     S
C568   C571    1.451   .     S
C568   O588    1.272   .     A
C568   O590    1.279   .     A
C569   O589    1.282   .     A
C569   O591    1.286   .     A
C570   H580    1.081   .     S
C572   H581    1.084   .     S
C573   C574    1.413   .     A
C573   H87     1.079   1_556 S
C574   C575    1.419   .     A
C574   C81     1.417   1_556 S
C575   C579    1.417   .     A
C577   C578    1.409   .     A
C577   C81     1.421   1_556 S
C577   C75     1.405   1_556 S
C578   C579    1.410   .     A
C579   O593    1.384   .     S
H585   O592    0.992   .     S
H586   O593    0.988   .     S
O587   Zn603   1.942   .     S
O587   Zn604   1.946   .     S
O587   Zn602   1.965   .     S
O587   Zn605   1.933   .     S
O588   Zn603   1.934   .     S
O589   Zn605   1.942   .     S
O590   Zn604   1.932   .     S
O591   Zn602   1.926   .     S
O592   C617    1.384   .     S
O594   Zn602   1.935   .     S
O595   Zn605   1.942   .     S
O596   Zn603   1.932   .     S
O597   Zn604   1.941   .     S
O598   Zn605   1.937   .     S
O599   Zn602   1.931   .     S
O600   Zn603   1.946   .     S
O601   Zn604   1.936   .     S
Br606  C613    1.921   .     S
Br607  C948    1.934   1_545 S
Br608  C784    1.931   .     S
Br609  C633    1.937   .     S
Br610  C612    1.946   .     S
C611   C617    1.439   .     S
C611   O651    1.267   .     A
C611   O653    1.267   .     A
C612   C631    1.417   .     A
C612   C626    1.403   .     A
C613   C626    1.401   .     A
C613   C625    1.389   .     A
C614   C616    1.457   .     S
C614   O652    1.291   .     A
C614   O654    1.277   .     A
C615   C624    1.469   .     S
C615   C627    1.403   .     A
C615   C630    1.421   .     A
C616   C507    1.345   1_655 S
C616   H529    1.088   1_655 S
C618   C621    1.454   .     S
C618   Br772   1.934   .     S
C618   C784    1.349   .     S
C619   C620    1.426   .     S
C619   Br938   1.931   1_545 S
C619   C948    1.349   1_545 S
C620   O649    1.275   .     A
C620   O655    1.273   .     A
C621   O650    1.269   .     A
C621   O656    1.278   .     A
C622   C627    1.385   .     A
C622   C628    1.388   .     A
C622   H638    1.083   .     S
C623   C626    1.451   .     S
C623   O643    1.272   .     A
C623   O645    1.279   .     A
C624   O644    1.282   .     A
C624   O646    1.286   .     A
C625   H635    1.081   .     S
C627   H636    1.084   .     S
C628   C629    1.413   .     A
C628   H142    1.079   1_556 S
C629   C630    1.419   .     A
C629   C136    1.417   1_556 S
C630   C634    1.417   .     A
C632   C633    1.409   .     A
C632   C136    1.421   1_556 S
C632   C130    1.405   1_556 S
C633   C634    1.410   .     A
C634   O648    1.384   .     S
H640   O647    0.992   .     S
H641   O648    0.988   .     S
O642   Zn658   1.942   .     S
O642   Zn659   1.946   .     S
O642   Zn657   1.965   .     S
O642   Zn660   1.933   .     S
O643   Zn658   1.934   .     S
O644   Zn660   1.942   .     S
O645   Zn659   1.932   .     S
O646   Zn657   1.926   .     S
O647   C507    1.384   1_655 S
O649   Zn657   1.935   .     S
O650   Zn660   1.942   .     S
O651   Zn658   1.932   .     S
O652   Zn659   1.941   .     S
O653   Zn660   1.937   .     S
O654   Zn657   1.931   .     S
O655   Zn658   1.946   .     S
O656   Zn659   1.936   .     S
Br661  C668    1.921   .     S
Br663  C839    1.931   .     S
Br664  C688    1.937   .     S
Br665  C667    1.946   .     S
C666   C672    1.439   .     S
C666   O706    1.267   .     A
C666   O708    1.267   .     A
C667   C686    1.417   .     A
C667   C681    1.403   .     A
C668   C681    1.401   .     A
C668   C680    1.389   .     A
C669   C671    1.457   .     S
C669   O707    1.291   .     A
C669   O709    1.277   .     A
C670   C679    1.469   .     S
C670   C682    1.403   .     A
C670   C685    1.421   .     A
C671   C727    1.345   .     S
C671   H749    1.088   .     S
C672   C781    1.345   1_455 S
C672   O812    1.384   1_455 S
C673   C676    1.454   .     S
C673   Br827   1.934   .     S
C673   C839    1.349   .     S
C674   C675    1.426   .     S
C675   O704    1.275   .     A
C675   O710    1.273   .     A
C676   O705    1.269   .     A
C676   O711    1.278   .     A
C677   C682    1.385   .     A
C677   C683    1.388   .     A
C677   H693    1.083   .     S
C678   C681    1.451   .     S
C678   O698    1.272   .     A
C678   O700    1.279   .     A
C679   O699    1.282   .     A
C679   O701    1.286   .     A
C680   H690    1.081   .     S
C682   H691    1.084   .     S
C683   C684    1.413   .     A
C683   H197    1.079   1_556 S
C684   C685    1.419   .     A
C684   C191    1.417   1_556 S
C685   C689    1.417   .     A
C687   C688    1.409   .     A
C687   C191    1.421   1_556 S
C687   C185    1.405   1_556 S
C688   C689    1.410   .     A
C689   O703    1.384   .     S
H694   C781    1.088   1_455 S
H695   O702    0.992   .     S
H696   O703    0.988   .     S
O697   Zn713   1.942   .     S
O697   Zn714   1.946   .     S
O697   Zn712   1.965   .     S
O697   Zn715   1.933   .     S
O698   Zn713   1.934   .     S
O699   Zn715   1.942   .     S
O700   Zn714   1.932   .     S
O701   Zn712   1.926   .     S
O702   C727    1.384   .     S
O704   Zn712   1.935   .     S
O705   Zn715   1.942   .     S
O706   Zn713   1.932   .     S
O707   Zn714   1.941   .     S
O708   Zn715   1.937   .     S
O709   Zn712   1.931   .     S
O710   Zn713   1.946   .     S
O711   Zn714   1.936   .     S
Br716  C723    1.921   .     S
Br718  C894    1.931   .     S
Br719  C743    1.937   .     S
Br720  C722    1.946   .     S
C721   C727    1.439   .     S
C721   O761    1.267   .     A
C721   O763    1.267   .     A
C722   C741    1.417   .     A
C722   C736    1.403   .     A
C723   C736    1.401   .     A
C723   C735    1.389   .     A
C724   C726    1.457   .     S
C724   O762    1.291   .     A
C724   O764    1.277   .     A
C725   C734    1.469   .     S
C725   C737    1.403   .     A
C725   C740    1.421   .     A
C726   C782    1.345   .     S
C726   H804    1.088   .     S
C728   C731    1.454   .     S
C728   Br882   1.934   .     S
C728   C894    1.349   .     S
C729   C730    1.426   .     S
C730   O759    1.275   .     A
C730   O765    1.273   .     A
C731   O760    1.269   .     A
C731   O766    1.278   .     A
C732   C737    1.385   .     A
C732   C738    1.388   .     A
C732   H748    1.083   .     S
C733   C736    1.451   .     S
C733   O753    1.272   .     A
C733   O755    1.279   .     A
C734   O754    1.282   .     A
C734   O756    1.286   .     A
C735   H745    1.081   .     S
C737   H746    1.084   .     S
C738   C739    1.413   .     A
C738   H252    1.079   1_556 S
C739   C740    1.419   .     A
C739   C246    1.417   1_556 S
C740   C744    1.417   .     A
C742   C743    1.409   .     A
C742   C246    1.421   1_556 S
C742   C240    1.405   1_556 S
C743   C744    1.410   .     A
C744   O758    1.384   .     S
H750   O757    0.992   .     S
H751   O758    0.988   .     S
O752   Zn768   1.942   .     S
O752   Zn769   1.946   .     S
O752   Zn767   1.965   .     S
O752   Zn770   1.933   .     S
O753   Zn768   1.934   .     S
O754   Zn770   1.942   .     S
O755   Zn769   1.932   .     S
O756   Zn767   1.926   .     S
O757   C782    1.384   .     S
O759   Zn767   1.935   .     S
O760   Zn770   1.942   .     S
O761   Zn768   1.932   .     S
O762   Zn769   1.941   .     S
O763   Zn770   1.937   .     S
O764   Zn767   1.931   .     S
O765   Zn768   1.946   .     S
O766   Zn769   1.936   .     S
Br771  C778    1.921   .     S
Br773  C949    1.931   .     S
Br774  C798    1.937   .     S
Br775  C777    1.946   .     S
C776   C782    1.439   .     S
C776   O816    1.267   .     A
C776   O818    1.267   .     A
C777   C796    1.417   .     A
C777   C791    1.403   .     A
C778   C791    1.401   .     A
C778   C790    1.389   .     A
C779   C781    1.457   .     S
C779   O817    1.291   .     A
C779   O819    1.277   .     A
C780   C789    1.469   .     S
C780   C792    1.403   .     A
C780   C795    1.421   .     A
C781   C672    1.345   1_655 S
C781   H694    1.088   1_655 S
C783   C786    1.454   .     S
C783   Br937   1.934   .     S
C783   C949    1.349   .     S
C784   C785    1.426   .     S
C785   O814    1.275   .     A
C785   O820    1.273   .     A
C786   O815    1.269   .     A
C786   O821    1.278   .     A
C787   C792    1.385   .     A
C787   C793    1.388   .     A
C787   H803    1.083   .     S
C788   C791    1.451   .     S
C788   O808    1.272   .     A
C788   O810    1.279   .     A
C789   O809    1.282   .     A
C789   O811    1.286   .     A
C790   H800    1.081   .     S
C792   H801    1.084   .     S
C793   C794    1.413   .     A
C793   H307    1.079   1_556 S
C794   C795    1.419   .     A
C794   C301    1.417   1_556 S
C795   C799    1.417   .     A
C797   C798    1.409   .     A
C797   C301    1.421   1_556 S
C797   C295    1.405   1_556 S
C798   C799    1.410   .     A
C799   O813    1.384   .     S
H805   O812    0.992   .     S
H806   O813    0.988   .     S
O807   Zn823   1.942   .     S
O807   Zn824   1.946   .     S
O807   Zn822   1.965   .     S
O807   Zn825   1.933   .     S
O808   Zn823   1.934   .     S
O809   Zn825   1.942   .     S
O810   Zn824   1.932   .     S
O811   Zn822   1.926   .     S
O812   C672    1.384   1_655 S
O814   Zn822   1.935   .     S
O815   Zn825   1.942   .     S
O816   Zn823   1.932   .     S
O817   Zn824   1.941   .     S
O818   Zn825   1.937   .     S
O819   Zn822   1.931   .     S
O820   Zn823   1.946   .     S
O821   Zn824   1.936   .     S
Br826  C833    1.921   .     S
Br828  C509    1.931   1_565 S
Br829  C853    1.937   .     S
Br830  C832    1.946   .     S
C831   C837    1.439   .     S
C831   O871    1.267   .     A
C831   O873    1.267   .     A
C832   C851    1.417   .     A
C832   C846    1.403   .     A
C833   C846    1.401   .     A
C833   C845    1.389   .     A
C834   C836    1.457   .     S
C834   O872    1.291   .     A
C834   O874    1.277   .     A
C835   C844    1.469   .     S
C835   C847    1.403   .     A
C835   C850    1.421   .     A
C836   C892    1.345   .     S
C836   H914    1.088   .     S
C837   C946    1.345   1_455 S
C837   O977    1.384   1_455 S
C838   C841    1.454   .     S
C838   Br497   1.934   1_565 S
C838   C509    1.349   1_565 S
C839   C840    1.426   .     S
C840   O869    1.275   .     A
C840   O875    1.273   .     A
C841   O870    1.269   .     A
C841   O876    1.278   .     A
C842   C847    1.385   .     A
C842   C848    1.388   .     A
C842   H858    1.083   .     S
C843   C846    1.451   .     S
C843   O863    1.272   .     A
C843   O865    1.279   .     A
C844   O864    1.282   .     A
C844   O866    1.286   .     A
C845   H855    1.081   .     S
C847   H856    1.084   .     S
C848   C849    1.413   .     A
C848   H362    1.079   1_556 S
C849   C850    1.419   .     A
C849   C356    1.417   1_556 S
C850   C854    1.417   .     A
C852   C853    1.409   .     A
C852   C356    1.421   1_556 S
C852   C350    1.405   1_556 S
C853   C854    1.410   .     A
C854   O868    1.384   .     S
H859   C946    1.088   1_455 S
H860   O867    0.992   .     S
H861   O868    0.988   .     S
O862   Zn878   1.942   .     S
O862   Zn879   1.946   .     S
O862   Zn877   1.965   .     S
O862   Zn880   1.933   .     S
O863   Zn878   1.934   .     S
O864   Zn880   1.942   .     S
O865   Zn879   1.932   .     S
O866   Zn877   1.926   .     S
O867   C892    1.384   .     S
O869   Zn877   1.935   .     S
O870   Zn880   1.942   .     S
O871   Zn878   1.932   .     S
O872   Zn879   1.941   .     S
O873   Zn880   1.937   .     S
O874   Zn877   1.931   .     S
O875   Zn878   1.946   .     S
O876   Zn879   1.936   .     S
Br881  C888    1.921   .     S
Br883  C564    1.931   1_565 S
Br884  C908    1.937   .     S
Br885  C887    1.946   .     S
C886   C892    1.439   .     S
C886   O926    1.267   .     A
C886   O928    1.267   .     A
C887   C906    1.417   .     A
C887   C901    1.403   .     A
C888   C901    1.401   .     A
C888   C900    1.389   .     A
C889   C891    1.457   .     S
C889   O927    1.291   .     A
C889   O929    1.277   .     A
C890   C899    1.469   .     S
C890   C902    1.403   .     A
C890   C905    1.421   .     A
C891   C947    1.345   .     S
C891   H969    1.088   .     S
C893   C896    1.454   .     S
C893   Br552   1.934   1_565 S
C893   C564    1.349   1_565 S
C894   C895    1.426   .     S
C895   O924    1.275   .     A
C895   O930    1.273   .     A
C896   O925    1.269   .     A
C896   O931    1.278   .     A
C897   C902    1.385   .     A
C897   C903    1.388   .     A
C897   H913    1.083   .     S
C898   C901    1.451   .     S
C898   O918    1.272   .     A
C898   O920    1.279   .     A
C899   O919    1.282   .     A
C899   O921    1.286   .     A
C900   H910    1.081   .     S
C902   H911    1.084   .     S
C903   C904    1.413   .     A
C903   H417    1.079   1_556 S
C904   C905    1.419   .     A
C904   C411    1.417   1_556 S
C905   C909    1.417   .     A
C907   C908    1.409   .     A
C907   C411    1.421   1_556 S
C907   C405    1.405   1_556 S
C908   C909    1.410   .     A
C909   O923    1.384   .     S
H915   O922    0.992   .     S
H916   O923    0.988   .     S
O917   Zn933   1.942   .     S
O917   Zn934   1.946   .     S
O917   Zn932   1.965   .     S
O917   Zn935   1.933   .     S
O918   Zn933   1.934   .     S
O919   Zn935   1.942   .     S
O920   Zn934   1.932   .     S
O921   Zn932   1.926   .     S
O922   C947    1.384   .     S
O924   Zn932   1.935   .     S
O925   Zn935   1.942   .     S
O926   Zn933   1.932   .     S
O927   Zn934   1.941   .     S
O928   Zn935   1.937   .     S
O929   Zn932   1.931   .     S
O930   Zn933   1.946   .     S
O931   Zn934   1.936   .     S
Br936  C943    1.921   .     S
Br938  C619    1.931   1_565 S
Br939  C963    1.937   .     S
Br940  C942    1.946   .     S
C941   C947    1.439   .     S
C941   O981    1.267   .     A
C941   O983    1.267   .     A
C942   C961    1.417   .     A
C942   C956    1.403   .     A
C943   C956    1.401   .     A
C943   C955    1.389   .     A
C944   C946    1.457   .     S
C944   O982    1.291   .     A
C944   O984    1.277   .     A
C945   C954    1.469   .     S
C945   C957    1.403   .     A
C945   C960    1.421   .     A
C946   C837    1.345   1_655 S
C946   H859    1.088   1_655 S
C948   C951    1.454   .     S
C948   Br607   1.934   1_565 S
C948   C619    1.349   1_565 S
C949   C950    1.426   .     S
C950   O979    1.275   .     A
C950   O985    1.273   .     A
C951   O980    1.269   .     A
C951   O986    1.278   .     A
C952   C957    1.385   .     A
C952   C958    1.388   .     A
C952   H968    1.083   .     S
C953   C956    1.451   .     S
C953   O973    1.272   .     A
C953   O975    1.279   .     A
C954   O974    1.282   .     A
C954   O976    1.286   .     A
C955   H965    1.081   .     S
C957   H966    1.084   .     S
C958   C959    1.413   .     A
C958   H472    1.079   1_556 S
C959   C960    1.419   .     A
C959   C466    1.417   1_556 S
C960   C964    1.417   .     A
C962   C963    1.409   .     A
C962   C466    1.421   1_556 S
C962   C460    1.405   1_556 S
C963   C964    1.410   .     A
C964   O978    1.384   .     S
H970   O977    0.992   .     S
H971   O978    0.988   .     S
O972   Zn988   1.942   .     S
O972   Zn989   1.946   .     S
O972   Zn987   1.965   .     S
O972   Zn990   1.933   .     S
O973   Zn988   1.934   .     S
O974   Zn990   1.942   .     S
O975   Zn989   1.932   .     S
O976   Zn987   1.926   .     S
O977   C837    1.384   1_655 S
O979   Zn987   1.935   .     S
O980   Zn990   1.942   .     S
O981   Zn988   1.932   .     S
O982   Zn989   1.941   .     S
O983   Zn990   1.937   .     S
O984   Zn987   1.931   .     S
O985   Zn988   1.946   .     S
O986   Zn989   1.936   .     S
