data_str_m1_o1_o17_pcu_sym.25
_audit_creation_date              2020-01-03
_audit_creation_method            'Materials Studio'
_symmetry_space_group_name_H-M    'P1'
_symmetry_Int_Tables_number       1
_symmetry_cell_setting            triclinic
loop_
_symmetry_equiv_pos_as_xyz
  x,y,z
_cell_length_a                    37.0436
_cell_length_b                    36.7927
_cell_length_c                    34.2396
_cell_angle_alpha                 89.9674
_cell_angle_beta                  90.0714
_cell_angle_gamma                 89.7853
loop_
_atom_site_label
_atom_site_type_symbol
_atom_site_fract_x
_atom_site_fract_y
_atom_site_fract_z
_atom_site_U_iso_or_equiv
_atom_site_adp_type
_atom_site_occupancy
C1     C     0.49260   0.28112   0.41794   0.00000  Uiso   1.00
C2     C     0.24070   0.46797   0.08212   0.00000  Uiso   1.00
C3     C     0.21639   0.00468   0.54080   0.00000  Uiso   1.00
C4     C     0.49736   0.28203   0.45871   0.00000  Uiso   1.00
C5     C     0.49543   0.21560   0.54132   0.00000  Uiso   1.00
C6     C     0.21646   0.00233   0.45823   0.00000  Uiso   1.00
C7     C     0.28215   0.49564   0.54083   0.00000  Uiso   1.00
C8     C     0.25388   0.46700   0.95901   0.00000  Uiso   1.00
C9     C     0.25413   0.03333   0.04139   0.00000  Uiso   1.00
C10    C     0.03410   0.25184   0.95836   0.00000  Uiso   1.00
C11    C     0.46775   0.25349   0.04067   0.00000  Uiso   1.00
C12    C     0.24726   0.03366   0.95900   0.00000  Uiso   1.00
C13    C     0.46814   0.24479   0.91747   0.00000  Uiso   1.00
C14    C     0.24578   0.46687   0.04124   0.00000  Uiso   1.00
C15    C     0.46754   0.24922   0.95832   0.00000  Uiso   1.00
C16    C     0.03398   0.24704   0.04088   0.00000  Uiso   1.00
C17    C     0.09816   0.34808   0.24998   0.00000  Uiso   1.00
C18    C     0.40120   0.15243   0.75124   0.00000  Uiso   1.00
C19    C     0.15247   0.09893   0.24909   0.00000  Uiso   1.00
C20    C     0.35052   0.40475   0.74549   0.00000  Uiso   1.00
C21    C     0.40298   0.15081   0.25141   0.00000  Uiso   1.00
C22    C     0.09722   0.34926   0.74861   0.00000  Uiso   1.00
C23    C     0.34815   0.40177   0.25005   0.00000  Uiso   1.00
C24    C     0.03294   0.24234   0.08184   0.00000  Uiso   1.00
C25    C     0.15203   0.09823   0.75002   0.00000  Uiso   1.00
C26    C     0.09833   0.15198   0.75030   0.00000  Uiso   1.00
C27    C     0.40189   0.34803   0.24993   0.00000  Uiso   1.00
C28    C     0.15153   0.40234   0.74919   0.00000  Uiso   1.00
C29    C     0.34942   0.09707   0.25157   0.00000  Uiso   1.00
C30    C     0.40414   0.35076   0.74623   0.00000  Uiso   1.00
C31    C     0.09814   0.15208   0.24967   0.00000  Uiso   1.00
C32    C     0.34750   0.09873   0.75118   0.00000  Uiso   1.00
C33    C     0.15210   0.40151   0.24976   0.00000  Uiso   1.00
C34    C     0.49986   0.24869   0.47938   0.00000  Uiso   1.00
C35    C     0.25905   0.46821   0.91819   0.00000  Uiso   1.00
C36    C     0.49940   0.24879   0.52058   0.00000  Uiso   1.00
C37    C     0.24969   0.00166   0.47899   0.00000  Uiso   1.00
C38    C     0.24942   0.00092   0.52018   0.00000  Uiso   1.00
C39    C     0.25026   0.00026   0.97957   0.00000  Uiso   1.00
C40    C     0.25000   0.00016   0.02076   0.00000  Uiso   1.00
C41    C     0.00085   0.25024   0.97895   0.00000  Uiso   1.00
C42    C     0.00086   0.25014   0.02017   0.00000  Uiso   1.00
C43    C     0.46370   0.13585   0.45609   0.00000  Uiso   1.00
C44    C     0.46313   0.09522   0.46550   0.00000  Uiso   1.00
C45    C     0.42678   0.07827   0.45538   0.00000  Uiso   1.00
C46    C     0.25895   0.03204   0.08227   0.00000  Uiso   1.00
C47    C     0.46442   0.36196   0.54078   0.00000  Uiso   1.00
C48    C     0.46505   0.40097   0.55601   0.00000  Uiso   1.00
C49    C     0.42723   0.41750   0.55653   0.00000  Uiso   1.00
C50    C     0.36313   0.46573   0.45635   0.00000  Uiso   1.00
C51    C     0.40251   0.46869   0.44356   0.00000  Uiso   1.00
C52    C     0.41733   0.43207   0.43023   0.00000  Uiso   1.00
C53    C     0.13173   0.47156   0.53141   0.00000  Uiso   1.00
C54    C     0.10281   0.46585   0.56262   0.00000  Uiso   1.00
C55    C     0.07791   0.43433   0.55215   0.00000  Uiso   1.00
C56    C     0.03525   0.36089   0.45704   0.00000  Uiso   1.00
C57    C     0.03333   0.25617   0.91741   0.00000  Uiso   1.00
C58    C     0.03498   0.39916   0.43975   0.00000  Uiso   1.00
C59    C     0.07328   0.41300   0.43330   0.00000  Uiso   1.00
C60    C     0.02692   0.13470   0.54700   0.00000  Uiso   1.00
C61    C     0.02277   0.09795   0.56736   0.00000  Uiso   1.00
C62    C     0.05858   0.08456   0.58406   0.00000  Uiso   1.00
C63    C     0.14758   0.05207   0.45400   0.00000  Uiso   1.00
C64    C     0.13019   0.07044   0.48960   0.00000  Uiso   1.00
C65    C     0.11819   0.10922   0.48051   0.00000  Uiso   1.00
C66    C     0.36172   0.02961   0.54602   0.00000  Uiso   1.00
C67    C     0.40054   0.02674   0.56089   0.00000  Uiso   1.00
C68    C     0.46875   0.25802   0.08154   0.00000  Uiso   1.00
C69    C     0.41524   0.06383   0.57260   0.00000  Uiso   1.00
C70    C     0.22083   0.38640   0.95295   0.00000  Uiso   1.00
C71    C     0.22511   0.34752   0.93789   0.00000  Uiso   1.00
C72    C     0.18966   0.33290   0.92170   0.00000  Uiso   1.00
C73    C     0.22222   0.11448   0.04660   0.00000  Uiso   1.00
C74    C     0.22665   0.15306   0.06229   0.00000  Uiso   1.00
C75    C     0.19070   0.16879   0.07589   0.00000  Uiso   1.00
C76    C     0.11419   0.21337   0.95853   0.00000  Uiso   1.00
C77    C     0.15465   0.21471   0.96739   0.00000  Uiso   1.00
C78    C     0.17271   0.17795   0.96039   0.00000  Uiso   1.00
C79    C     0.00024   0.24884   0.39782   0.00000  Uiso   1.00
C80    C     0.38663   0.21898   0.03991   0.00000  Uiso   1.00
C81    C     0.34877   0.22158   0.05737   0.00000  Uiso   1.00
C82    C     0.33104   0.18431   0.05987   0.00000  Uiso   1.00
C83    C     0.28354   0.11312   0.95483   0.00000  Uiso   1.00
C84    C     0.28124   0.15265   0.94138   0.00000  Uiso   1.00
C85    C     0.31804   0.16677   0.92868   0.00000  Uiso   1.00
C86    C     0.27880   0.38652   0.04757   0.00000  Uiso   1.00
C87    C     0.27490   0.34820   0.06426   0.00000  Uiso   1.00
C88    C     0.31087   0.33371   0.07956   0.00000  Uiso   1.00
C89    C     0.39611   0.29360   0.94977   0.00000  Uiso   1.00
C90    C     0.49977   0.24925   0.60215   0.00000  Uiso   1.00
C91    C     0.37748   0.31463   0.98278   0.00000  Uiso   1.00
C92    C     0.36436   0.35179   0.96882   0.00000  Uiso   1.00
C93    C     0.10788   0.28598   0.05085   0.00000  Uiso   1.00
C94    C     0.12670   0.30771   0.01859   0.00000  Uiso   1.00
C95    C     0.14007   0.34416   0.03404   0.00000  Uiso   1.00
C96    C     0.09718   0.45717   0.20183   0.00000  Uiso   1.00
C97    C     0.07665   0.46628   0.16435   0.00000  Uiso   1.00
C98    C     0.04964   0.49691   0.17078   0.00000  Uiso   1.00
C99    C     0.36479   0.07263   0.83912   0.00000  Uiso   1.00
C100   C     0.36491   0.03647   0.86140   0.00000  Uiso   1.00
C101   C     0.25017   0.00065   0.39763   0.00000  Uiso   1.00
C102   C     0.34807   0.03998   0.90182   0.00000  Uiso   1.00
C103   C     0.03414   0.10098   0.24316   0.00000  Uiso   1.00
C104   C     0.02388   0.06099   0.24061   0.00000  Uiso   1.00
C105   C     0.49604   0.05107   0.27166   0.00000  Uiso   1.00
C106   C     0.43138   0.38164   0.82782   0.00000  Uiso   1.00
C107   C     0.46603   0.38295   0.85207   0.00000  Uiso   1.00
C108   C     0.46006   0.36856   0.89330   0.00000  Uiso   1.00
C109   C     0.40384   0.04225   0.20272   0.00000  Uiso   1.00
C110   C     0.42435   0.03358   0.16516   0.00000  Uiso   1.00
C111   C     0.45108   0.00258   0.17109   0.00000  Uiso   1.00
C112   C     0.49109   0.21689   0.58238   0.00000  Uiso   1.00
C113   C     0.24951   0.49957   0.60187   0.00000  Uiso   1.00
C114   C     0.13316   0.42515   0.83815   0.00000  Uiso   1.00
C115   C     0.13035   0.45903   0.86387   0.00000  Uiso   1.00
C116   C     0.14945   0.45388   0.90296   0.00000  Uiso   1.00
C117   C     0.46382   0.40169   0.25117   0.00000  Uiso   1.00
C118   C     0.48815   0.43358   0.24070   0.00000  Uiso   1.00
C119   C     0.01441   0.44204   0.27388   0.00000  Uiso   1.00
C120   C     0.07749   0.12998   0.83689   0.00000  Uiso   1.00
C121   C     0.04594   0.12774   0.86548   0.00000  Uiso   1.00
C122   C     0.05469   0.14559   0.90454   0.00000  Uiso   1.00
C123   C     0.10044   0.03425   0.75699   0.00000  Uiso   1.00
C124   C     0.25026   0.00032   0.89799   0.00000  Uiso   1.00
C125   C     0.05937   0.03285   0.75247   0.00000  Uiso   1.00
C126   C     0.04847   0.01379   0.71476   0.00000  Uiso   1.00
C127   C     0.36971   0.42452   0.16496   0.00000  Uiso   1.00
C128   C     0.37058   0.45695   0.13707   0.00000  Uiso   1.00
C129   C     0.34875   0.45009   0.10007   0.00000  Uiso   1.00
C130   C     0.04288   0.41202   0.78350   0.00000  Uiso   1.00
C131   C     0.01868   0.39799   0.75062   0.00000  Uiso   1.00
C132   C     0.49403   0.42767   0.73520   0.00000  Uiso   1.00
C133   C     0.42711   0.13384   0.16266   0.00000  Uiso   1.00
C134   C     0.46260   0.13454   0.13969   0.00000  Uiso   1.00
C135   C     0.24985   0.49997   0.10224   0.00000  Uiso   1.00
C136   C     0.45765   0.15014   0.09877   0.00000  Uiso   1.00
C137   C     0.39077   0.47569   0.74818   0.00000  Uiso   1.00
C138   C     0.42721   0.49037   0.73473   0.00000  Uiso   1.00
C139   C     0.42335   0.02642   0.71282   0.00000  Uiso   1.00
C140   C     0.13135   0.07609   0.16391   0.00000  Uiso   1.00
C141   C     0.13024   0.04367   0.13606   0.00000  Uiso   1.00
C142   C     0.15177   0.05055   0.09890   0.00000  Uiso   1.00
C143   C     0.45607   0.09573   0.79843   0.00000  Uiso   1.00
C144   C     0.46543   0.07561   0.83619   0.00000  Uiso   1.00
C145   C     0.49476   0.04715   0.82977   0.00000  Uiso   1.00
C146   C     0.00073   0.25011   0.89757   0.00000  Uiso   1.00
C147   C     0.07007   0.36677   0.16312   0.00000  Uiso   1.00
C148   C     0.03323   0.36721   0.14264   0.00000  Uiso   1.00
C149   C     0.03480   0.34993   0.10228   0.00000  Uiso   1.00
C150   C     0.34478   0.20995   0.71116   0.00000  Uiso   1.00
C151   C     0.31797   0.21829   0.67837   0.00000  Uiso   1.00
C152   C     0.29577   0.25214   0.68721   0.00000  Uiso   1.00
C153   C     0.11612   0.32181   0.33761   0.00000  Uiso   1.00
C154   C     0.11562   0.28554   0.35969   0.00000  Uiso   1.00
C155   C     0.09788   0.28894   0.39964   0.00000  Uiso   1.00
C156   C     0.29482   0.34092   0.74762   0.00000  Uiso   1.00
C157   C     0.00071   0.25000   0.10185   0.00000  Uiso   1.00
C158   C     0.25602   0.33036   0.73816   0.00000  Uiso   1.00
C159   C     0.23907   0.30949   0.77222   0.00000  Uiso   1.00
C160   C     0.17808   0.13126   0.33449   0.00000  Uiso   1.00
C161   C     0.19340   0.16265   0.35857   0.00000  Uiso   1.00
C162   C     0.18469   0.15844   0.40186   0.00000  Uiso   1.00
C163   C     0.15167   0.29450   0.69973   0.00000  Uiso   1.00
C164   C     0.17203   0.28564   0.66218   0.00000  Uiso   1.00
C165   C     0.19888   0.25483   0.66869   0.00000  Uiso   1.00
C166   C     0.38927   0.17275   0.34150   0.00000  Uiso   1.00
C167   C     0.38610   0.20646   0.36750   0.00000  Uiso   1.00
C168   C     0.49923   0.18220   0.47963   0.00000  Uiso   1.00
C169   C     0.40295   0.20056   0.40766   0.00000  Uiso   1.00
C170   C     0.21648   0.14857   0.74084   0.00000  Uiso   1.00
C171   C     0.22193   0.18959   0.74309   0.00000  Uiso   1.00
C172   C     0.24776   0.19935   0.77619   0.00000  Uiso   1.00
C173   C     0.32578   0.37848   0.33532   0.00000  Uiso   1.00
C174   C     0.29428   0.37468   0.36381   0.00000  Uiso   1.00
C175   C     0.30158   0.39355   0.40264   0.00000  Uiso   1.00
C176   C     0.34953   0.28395   0.25178   0.00000  Uiso   1.00
C177   C     0.31093   0.29051   0.23677   0.00000  Uiso   1.00
C178   C     0.30156   0.26523   0.20288   0.00000  Uiso   1.00
C179   C     0.00041   0.31538   0.52006   0.00000  Uiso   1.00
C180   C     0.11857   0.17380   0.66404   0.00000  Uiso   1.00
C181   C     0.11973   0.20591   0.63572   0.00000  Uiso   1.00
C182   C     0.09823   0.19860   0.59861   0.00000  Uiso   1.00
C183   C     0.30171   0.15373   0.31487   0.00000  Uiso   1.00
C184   C     0.28725   0.17077   0.27672   0.00000  Uiso   1.00
C185   C     0.27080   0.20787   0.28520   0.00000  Uiso   1.00
C186   C     0.16946   0.38781   0.65829   0.00000  Uiso   1.00
C187   C     0.20237   0.38989   0.63140   0.00000  Uiso   1.00
C188   C     0.19229   0.40386   0.59085   0.00000  Uiso   1.00
C189   C     0.14555   0.21877   0.25735   0.00000  Uiso   1.00
C190   C     0.31591   0.49928   0.47989   0.00000  Uiso   1.00
C191   C     0.18519   0.22878   0.25677   0.00000  Uiso   1.00
C192   C     0.19245   0.25894   0.22719   0.00000  Uiso   1.00
C193   C     0.38114   0.32233   0.66310   0.00000  Uiso   1.00
C194   C     0.37787   0.28797   0.63829   0.00000  Uiso   1.00
C195   C     0.39686   0.29194   0.59902   0.00000  Uiso   1.00
C196   C     0.20738   0.34530   0.29623   0.00000  Uiso   1.00
C197   C     0.21585   0.32313   0.33293   0.00000  Uiso   1.00
C198   C     0.24652   0.29622   0.32618   0.00000  Uiso   1.00
C199   C     0.32298   0.11732   0.66352   0.00000  Uiso   1.00
C200   C     0.28779   0.11648   0.64004   0.00000  Uiso   1.00
C201   C     0.18340   0.00456   0.51991   0.00000  Uiso   1.00
C202   C     0.29211   0.09536   0.60203   0.00000  Uiso   1.00
C203   C     0.47563   0.31207   0.39676   0.00000  Uiso   1.00
C204   C     0.49483   0.33236   0.36895   0.00000  Uiso   1.00
C205   C     0.47793   0.36101   0.34924   0.00000  Uiso   1.00
C206   C     0.44177   0.36934   0.35685   0.00000  Uiso   1.00
C207   C     0.42260   0.34924   0.38450   0.00000  Uiso   1.00
C208   C     0.43941   0.32074   0.40439   0.00000  Uiso   1.00
C209   C     0.47418   0.18645   0.60452   0.00000  Uiso   1.00
C210   C     0.49261   0.16834   0.63485   0.00000  Uiso   1.00
C211   C     0.47524   0.14139   0.65661   0.00000  Uiso   1.00
C212   C     0.49928   0.31525   0.47928   0.00000  Uiso   1.00
C213   C     0.43958   0.13204   0.64804   0.00000  Uiso   1.00
C214   C     0.42125   0.14970   0.61776   0.00000  Uiso   1.00
C215   C     0.43831   0.17691   0.59626   0.00000  Uiso   1.00
C216   C     0.18423   0.48871   0.39434   0.00000  Uiso   1.00
C217   C     0.16809   0.01444   0.36940   0.00000  Uiso   1.00
C218   C     0.13979   0.00430   0.34469   0.00000  Uiso   1.00
C219   C     0.12775   0.46834   0.34431   0.00000  Uiso   1.00
C220   C     0.14382   0.44256   0.36886   0.00000  Uiso   1.00
C221   C     0.17181   0.45271   0.39402   0.00000  Uiso   1.00
C222   C     0.30872   0.46716   0.60083   0.00000  Uiso   1.00
C223   C     0.21708   0.49813   0.41730   0.00000  Uiso   1.00
C224   C     0.49598   0.18232   0.52044   0.00000  Uiso   1.00
C225   C     0.33461   0.48259   0.62565   0.00000  Uiso   1.00
C226   C     0.36230   0.46089   0.64085   0.00000  Uiso   1.00
C227   C     0.36328   0.42366   0.63315   0.00000  Uiso   1.00
C228   C     0.33710   0.40810   0.60905   0.00000  Uiso   1.00
C229   C     0.31004   0.42979   0.59277   0.00000  Uiso   1.00
C230   C     0.02276   0.18447   0.39621   0.00000  Uiso   1.00
C231   C     0.00246   0.16693   0.36715   0.00000  Uiso   1.00
C232   C     0.01656   0.13682   0.34749   0.00000  Uiso   1.00
C233   C     0.05125   0.12420   0.35631   0.00000  Uiso   1.00
C234   C     0.07186   0.14177   0.38472   0.00000  Uiso   1.00
C235   C     0.18371   0.00681   0.47900   0.00000  Uiso   1.00
C236   C     0.05774   0.17176   0.40469   0.00000  Uiso   1.00
C237   C     0.02220   0.31324   0.60313   0.00000  Uiso   1.00
C238   C     0.00100   0.33271   0.62995   0.00000  Uiso   1.00
C239   C     0.01496   0.36338   0.64847   0.00000  Uiso   1.00
C240   C     0.05016   0.37477   0.64061   0.00000  Uiso   1.00
C241   C     0.07138   0.35548   0.61398   0.00000  Uiso   1.00
C242   C     0.05759   0.32472   0.59543   0.00000  Uiso   1.00
C243   C     0.31497   0.01899   0.39530   0.00000  Uiso   1.00
C244   C     0.33160   0.49728   0.36659   0.00000  Uiso   1.00
C245   C     0.36057   0.01076   0.34489   0.00000  Uiso   1.00
C246   C     0.31535   0.49649   0.52059   0.00000  Uiso   1.00
C247   C     0.37324   0.04591   0.35168   0.00000  Uiso   1.00
C248   C     0.35692   0.06758   0.38017   0.00000  Uiso   1.00
C249   C     0.32784   0.05433   0.40176   0.00000  Uiso   1.00
C250   C     0.18685   0.02487   0.60383   0.00000  Uiso   1.00
C251   C     0.16819   0.00476   0.63220   0.00000  Uiso   1.00
C252   C     0.13904   0.02025   0.65200   0.00000  Uiso   1.00
C253   C     0.12860   0.05605   0.64404   0.00000  Uiso   1.00
C254   C     0.14710   0.07620   0.61589   0.00000  Uiso   1.00
C255   C     0.17624   0.06080   0.59601   0.00000  Uiso   1.00
C256   C     0.22703   0.06431   0.89632   0.00000  Uiso   1.00
C257   C     0.25189   0.43373   0.97975   0.00000  Uiso   1.00
C258   C     0.24733   0.08263   0.86783   0.00000  Uiso   1.00
C259   C     0.23256   0.11229   0.84789   0.00000  Uiso   1.00
C260   C     0.19736   0.12380   0.85602   0.00000  Uiso   1.00
C261   C     0.17696   0.10565   0.88419   0.00000  Uiso   1.00
C262   C     0.19165   0.07599   0.90424   0.00000  Uiso   1.00
C263   C     0.22355   0.43730   0.10374   0.00000  Uiso   1.00
C264   C     0.24198   0.41850   0.13359   0.00000  Uiso   1.00
C265   C     0.22470   0.39096   0.15452   0.00000  Uiso   1.00
C266   C     0.18904   0.38177   0.14572   0.00000  Uiso   1.00
C267   C     0.17061   0.40018   0.11604   0.00000  Uiso   1.00
C268   C     0.25323   0.06661   0.02060   0.00000  Uiso   1.00
C269   C     0.18768   0.42787   0.09520   0.00000  Uiso   1.00
C270   C     0.43615   0.23152   0.89527   0.00000  Uiso   1.00
C271   C     0.41886   0.25363   0.86734   0.00000  Uiso   1.00
C272   C     0.39110   0.23956   0.84420   0.00000  Uiso   1.00
C273   C     0.38058   0.20335   0.84856   0.00000  Uiso   1.00
C274   C     0.39764   0.18127   0.87627   0.00000  Uiso   1.00
C275   C     0.42519   0.19528   0.89968   0.00000  Uiso   1.00
C276   C     0.06424   0.22707   0.10367   0.00000  Uiso   1.00
C277   C     0.08237   0.24766   0.13209   0.00000  Uiso   1.00
C278   C     0.11187   0.23292   0.15202   0.00000  Uiso   1.00
C279   C     0.06699   0.24935   0.97923   0.00000  Uiso   1.00
C280   C     0.12313   0.19734   0.14429   0.00000  Uiso   1.00
C281   C     0.10500   0.17661   0.11631   0.00000  Uiso   1.00
C282   C     0.07570   0.19138   0.09601   0.00000  Uiso   1.00
C283   C     0.27616   0.43754   0.89671   0.00000  Uiso   1.00
C284   C     0.25681   0.41770   0.86867   0.00000  Uiso   1.00
C285   C     0.27359   0.38948   0.84832   0.00000  Uiso   1.00
C286   C     0.30988   0.38112   0.85534   0.00000  Uiso   1.00
C287   C     0.32942   0.40101   0.88287   0.00000  Uiso   1.00
C288   C     0.31262   0.42903   0.90365   0.00000  Uiso   1.00
C289   C     0.27652   0.06238   0.10394   0.00000  Uiso   1.00
C290   C     0.43472   0.25277   0.01982   0.00000  Uiso   1.00
C291   C     0.25833   0.08163   0.13355   0.00000  Uiso   1.00
C292   C     0.27606   0.10900   0.15433   0.00000  Uiso   1.00
C293   C     0.31189   0.11752   0.14559   0.00000  Uiso   1.00
C294   C     0.33002   0.09859   0.11613   0.00000  Uiso   1.00
C295   C     0.31254   0.07108   0.09550   0.00000  Uiso   1.00
C296   C     0.06482   0.27092   0.89544   0.00000  Uiso   1.00
C297   C     0.08212   0.25061   0.86606   0.00000  Uiso   1.00
C298   C     0.11030   0.26587   0.84450   0.00000  Uiso   1.00
C299   C     0.12148   0.30140   0.85213   0.00000  Uiso   1.00
C300   C     0.10457   0.32164   0.88143   0.00000  Uiso   1.00
C301   C     0.24984   0.06679   0.97987   0.00000  Uiso   1.00
C302   C     0.07633   0.30657   0.90294   0.00000  Uiso   1.00
C303   C     0.43791   0.27424   0.10297   0.00000  Uiso   1.00
C304   C     0.41865   0.25395   0.13057   0.00000  Uiso   1.00
C305   C     0.39015   0.26982   0.15088   0.00000  Uiso   1.00
C306   C     0.38075   0.30615   0.14404   0.00000  Uiso   1.00
C307   C     0.39954   0.32634   0.11618   0.00000  Uiso   1.00
C308   C     0.42814   0.31053   0.09578   0.00000  Uiso   1.00
C309   C     0.24747   0.43367   0.02038   0.00000  Uiso   1.00
C310   C     0.43472   0.25285   0.97906   0.00000  Uiso   1.00
C311   C     0.28071   0.48957   0.58136   0.00000  Uiso   1.00
C312   C     0.06701   0.24886   0.02003   0.00000  Uiso   1.00
C313   C     0.25018   0.00009   0.35550   0.00000  Uiso   1.00
C314   C     0.25028   0.49993   0.64429   0.00000  Uiso   1.00
C315   C     0.00006   0.24935   0.35553   0.00000  Uiso   1.00
C316   C     0.49996   0.24982   0.64446   0.00000  Uiso   1.00
C317   C     0.00046   0.25001   0.85549   0.00000  Uiso   1.00
C318   C     0.00039   0.24999   0.14431   0.00000  Uiso   1.00
C319   C     0.25004   0.00013   0.85559   0.00000  Uiso   1.00
C320   C     0.24996   0.49993   0.14448   0.00000  Uiso   1.00
C321   C     0.18015   0.07031   0.24975   0.00000  Uiso   1.00
C322   C     0.00786   0.21629   0.41790   0.00000  Uiso   1.00
C323   C     0.32044   0.43044   0.74924   0.00000  Uiso   1.00
C324   C     0.43023   0.17968   0.25032   0.00000  Uiso   1.00
C325   C     0.06979   0.32039   0.74964   0.00000  Uiso   1.00
C326   C     0.32004   0.42992   0.25006   0.00000  Uiso   1.00
C327   C     0.18001   0.07005   0.74994   0.00000  Uiso   1.00
C328   C     0.07002   0.32009   0.25002   0.00000  Uiso   1.00
C329   C     0.42975   0.18008   0.75036   0.00000  Uiso   1.00
C330   C     0.17993   0.43001   0.74982   0.00000  Uiso   1.00
C331   C     0.32036   0.06983   0.25041   0.00000  Uiso   1.00
C332   C     0.43051   0.32075   0.74917   0.00000  Uiso   1.00
C333   C     0.00733   0.28143   0.58179   0.00000  Uiso   1.00
C334   C     0.06990   0.17990   0.25006   0.00000  Uiso   1.00
C335   C     0.31990   0.07021   0.75024   0.00000  Uiso   1.00
C336   C     0.18002   0.42981   0.24993   0.00000  Uiso   1.00
C337   C     0.07009   0.17998   0.75013   0.00000  Uiso   1.00
C338   C     0.43006   0.32009   0.25005   0.00000  Uiso   1.00
C339   C     0.12322   0.40357   0.22280   0.00000  Uiso   1.00
C340   C     0.37605   0.09694   0.77862   0.00000  Uiso   1.00
C341   C     0.09243   0.11873   0.23023   0.00000  Uiso   1.00
C342   C     0.40965   0.38420   0.76582   0.00000  Uiso   1.00
C343   C     0.37774   0.09560   0.22397   0.00000  Uiso   1.00
C344   C     0.28284   0.00603   0.41757   0.00000  Uiso   1.00
C345   C     0.12292   0.40431   0.77625   0.00000  Uiso   1.00
C346   C     0.40818   0.38189   0.23181   0.00000  Uiso   1.00
C347   C     0.09484   0.12095   0.77422   0.00000  Uiso   1.00
C348   C     0.11914   0.09233   0.77000   0.00000  Uiso   1.00
C349   C     0.37956   0.40610   0.22715   0.00000  Uiso   1.00
C350   C     0.09484   0.37916   0.77436   0.00000  Uiso   1.00
C351   C     0.40428   0.12245   0.22376   0.00000  Uiso   1.00
C352   C     0.38535   0.41303   0.76045   0.00000  Uiso   1.00
C353   C     0.12107   0.09455   0.22603   0.00000  Uiso   1.00
C354   C     0.40318   0.12330   0.77810   0.00000  Uiso   1.00
C355   C     0.21757   0.00873   0.58190   0.00000  Uiso   1.00
C356   C     0.09633   0.37702   0.22295   0.00000  Uiso   1.00
C357   C     0.37163   0.15505   0.72527   0.00000  Uiso   1.00
C358   C     0.12707   0.34593   0.27692   0.00000  Uiso   1.00
C359   C     0.34444   0.37079   0.72752   0.00000  Uiso   1.00
C360   C     0.15679   0.13081   0.27155   0.00000  Uiso   1.00
C361   C     0.12556   0.34761   0.72113   0.00000  Uiso   1.00
C362   C     0.37578   0.15138   0.28037   0.00000  Uiso   1.00
C363   C     0.15769   0.13144   0.73016   0.00000  Uiso   1.00
C364   C     0.34407   0.37014   0.27289   0.00000  Uiso   1.00
C365   C     0.36816   0.34140   0.26796   0.00000  Uiso   1.00
C366   C     0.24227   0.03269   0.91807   0.00000  Uiso   1.00
C367   C     0.12915   0.15584   0.72634   0.00000  Uiso   1.00
C368   C     0.34889   0.12446   0.28046   0.00000  Uiso   1.00
C369   C     0.15203   0.37465   0.72068   0.00000  Uiso   1.00
C370   C     0.13149   0.15875   0.26837   0.00000  Uiso   1.00
C371   C     0.37281   0.34621   0.72343   0.00000  Uiso   1.00
C372   C     0.15403   0.37240   0.27663   0.00000  Uiso   1.00
C373   C     0.34540   0.12798   0.72467   0.00000  Uiso   1.00
C374   C     0.00261   0.21530   0.45883   0.00000  Uiso   1.00
C375   C     0.00245   0.28222   0.54098   0.00000  Uiso   1.00
C376   C     0.28320   0.00241   0.45863   0.00000  Uiso   1.00
H377   H     0.45550   0.13963   0.42518   0.00000  Uiso   1.00
H378   H     0.47629   0.40125   0.58610   0.00000  Uiso   1.00
H379   H     0.42140   0.30769   0.94099   0.00000  Uiso   1.00
H380   H     0.35402   0.29887   0.99370   0.00000  Uiso   1.00
H381   H     0.39676   0.31877   0.00722   0.00000  Uiso   1.00
H382   H     0.38700   0.36741   0.95591   0.00000  Uiso   1.00
H383   H     0.35347   0.36739   0.99392   0.00000  Uiso   1.00
H384   H     0.34264   0.34855   0.94674   0.00000  Uiso   1.00
H385   H     0.12646   0.28415   0.07627   0.00000  Uiso   1.00
H386   H     0.08352   0.30092   0.06104   0.00000  Uiso   1.00
H387   H     0.15003   0.29198   0.00710   0.00000  Uiso   1.00
H388   H     0.10748   0.31298   0.99431   0.00000  Uiso   1.00
H389   H     0.48271   0.41780   0.53706   0.00000  Uiso   1.00
H390   H     0.11739   0.35989   0.04695   0.00000  Uiso   1.00
H391   H     0.15163   0.36025   0.00974   0.00000  Uiso   1.00
H392   H     0.16132   0.33985   0.05651   0.00000  Uiso   1.00
H393   H     0.11168   0.48181   0.21199   0.00000  Uiso   1.00
H394   H     0.07736   0.44973   0.22491   0.00000  Uiso   1.00
H395   H     0.09592   0.47383   0.14096   0.00000  Uiso   1.00
H396   H     0.06172   0.44215   0.15424   0.00000  Uiso   1.00
H397   H     0.03011   0.48901   0.19372   0.00000  Uiso   1.00
H398   H     0.03481   0.00253   0.14323   0.00000  Uiso   1.00
H399   H     0.06374   0.02195   0.17999   0.00000  Uiso   1.00
H400   H     0.41682   0.42068   0.52631   0.00000  Uiso   1.00
H401   H     0.33642   0.08251   0.83631   0.00000  Uiso   1.00
H402   H     0.38070   0.09289   0.85585   0.00000  Uiso   1.00
H403   H     0.34983   0.01578   0.84441   0.00000  Uiso   1.00
H404   H     0.39303   0.02644   0.86474   0.00000  Uiso   1.00
H405   H     0.36126   0.06203   0.91869   0.00000  Uiso   1.00
H406   H     0.35140   0.01400   0.91797   0.00000  Uiso   1.00
H407   H     0.31884   0.04568   0.89913   0.00000  Uiso   1.00
H408   H     0.00937   0.11746   0.23813   0.00000  Uiso   1.00
H409   H     0.04350   0.10698   0.27343   0.00000  Uiso   1.00
H410   H     0.01237   0.05571   0.21123   0.00000  Uiso   1.00
H411   H     0.42802   0.44466   0.57060   0.00000  Uiso   1.00
H412   H     0.04835   0.04387   0.24481   0.00000  Uiso   1.00
H413   H     0.00801   0.05372   0.30128   0.00000  Uiso   1.00
H414   H     0.48724   0.02254   0.26746   0.00000  Uiso   1.00
H415   H     0.47204   0.06913   0.26946   0.00000  Uiso   1.00
H416   H     0.41942   0.35394   0.83047   0.00000  Uiso   1.00
H417   H     0.41191   0.40198   0.83964   0.00000  Uiso   1.00
H418   H     0.48726   0.36617   0.83776   0.00000  Uiso   1.00
H419   H     0.47566   0.41147   0.85368   0.00000  Uiso   1.00
H420   H     0.43821   0.38408   0.90804   0.00000  Uiso   1.00
H421   H     0.48532   0.37136   0.91053   0.00000  Uiso   1.00
H422   H     0.40867   0.39973   0.57320   0.00000  Uiso   1.00
H423   H     0.45282   0.33936   0.89214   0.00000  Uiso   1.00
H424   H     0.38944   0.01747   0.21266   0.00000  Uiso   1.00
H425   H     0.42375   0.04954   0.22590   0.00000  Uiso   1.00
H426   H     0.40505   0.02662   0.14155   0.00000  Uiso   1.00
H427   H     0.43951   0.05779   0.15561   0.00000  Uiso   1.00
H428   H     0.47105   0.01027   0.19363   0.00000  Uiso   1.00
H429   H     0.46540   0.49683   0.14330   0.00000  Uiso   1.00
H430   H     0.43700   0.47764   0.18069   0.00000  Uiso   1.00
H431   H     0.16200   0.41658   0.83612   0.00000  Uiso   1.00
H432   H     0.11717   0.40302   0.85175   0.00000  Uiso   1.00
H433   H     0.34747   0.45167   0.43327   0.00000  Uiso   1.00
H434   H     0.14263   0.48257   0.84850   0.00000  Uiso   1.00
H435   H     0.10139   0.46536   0.86913   0.00000  Uiso   1.00
H436   H     0.13957   0.42904   0.91793   0.00000  Uiso   1.00
H437   H     0.14417   0.47777   0.92193   0.00000  Uiso   1.00
H438   H     0.17898   0.45178   0.89829   0.00000  Uiso   1.00
H439   H     0.48121   0.37819   0.25909   0.00000  Uiso   1.00
H440   H     0.44793   0.40985   0.27750   0.00000  Uiso   1.00
H441   H     0.00356   0.42731   0.21369   0.00000  Uiso   1.00
H442   H     0.47104   0.45786   0.23551   0.00000  Uiso   1.00
H443   H     0.49951   0.44688   0.30154   0.00000  Uiso   1.00
H444   H     0.36211   0.44922   0.48364   0.00000  Uiso   1.00
H445   H     0.02985   0.46698   0.26684   0.00000  Uiso   1.00
H446   H     0.03365   0.41912   0.27803   0.00000  Uiso   1.00
H447   H     0.08651   0.15882   0.83498   0.00000  Uiso   1.00
H448   H     0.10001   0.11295   0.84840   0.00000  Uiso   1.00
H449   H     0.02188   0.14137   0.85259   0.00000  Uiso   1.00
H450   H     0.03957   0.09874   0.87090   0.00000  Uiso   1.00
H451   H     0.08002   0.13417   0.91698   0.00000  Uiso   1.00
H452   H     0.03232   0.14064   0.92540   0.00000  Uiso   1.00
H453   H     0.05750   0.17535   0.90078   0.00000  Uiso   1.00
H454   H     0.11015   0.00677   0.76560   0.00000  Uiso   1.00
H455   H     0.40468   0.48836   0.41902   0.00000  Uiso   1.00
H456   H     0.11320   0.04012   0.72826   0.00000  Uiso   1.00
H457   H     0.04790   0.01770   0.77757   0.00000  Uiso   1.00
H458   H     0.04792   0.06078   0.75209   0.00000  Uiso   1.00
H459   H     0.05754   0.02973   0.68906   0.00000  Uiso   1.00
H460   H     0.01862   0.01153   0.71350   0.00000  Uiso   1.00
H461   H     0.06067   0.48619   0.71349   0.00000  Uiso   1.00
H462   H     0.34128   0.41488   0.16748   0.00000  Uiso   1.00
H463   H     0.38656   0.40239   0.15239   0.00000  Uiso   1.00
H464   H     0.35936   0.48133   0.15197   0.00000  Uiso   1.00
H465   H     0.39893   0.46226   0.12849   0.00000  Uiso   1.00
H466   H     0.41902   0.47889   0.46835   0.00000  Uiso   1.00
H467   H     0.35743   0.42433   0.08592   0.00000  Uiso   1.00
H468   H     0.35277   0.47285   0.07924   0.00000  Uiso   1.00
H469   H     0.31966   0.44880   0.10730   0.00000  Uiso   1.00
H470   H     0.05823   0.43614   0.77312   0.00000  Uiso   1.00
H471   H     0.02562   0.42185   0.80778   0.00000  Uiso   1.00
H472   H     0.03542   0.38771   0.72617   0.00000  Uiso   1.00
H473   H     0.00193   0.37548   0.76178   0.00000  Uiso   1.00
H474   H     0.48164   0.44262   0.75992   0.00000  Uiso   1.00
H475   H     0.47227   0.41535   0.71732   0.00000  Uiso   1.00
H476   H     0.00943   0.44672   0.71663   0.00000  Uiso   1.00
H477   H     0.41514   0.41158   0.45392   0.00000  Uiso   1.00
H478   H     0.41659   0.16216   0.16537   0.00000  Uiso   1.00
H479   H     0.40721   0.11722   0.14644   0.00000  Uiso   1.00
H480   H     0.48278   0.15104   0.15574   0.00000  Uiso   1.00
H481   H     0.47369   0.10658   0.13714   0.00000  Uiso   1.00
H482   H     0.43674   0.13475   0.08250   0.00000  Uiso   1.00
H483   H     0.48355   0.14833   0.08257   0.00000  Uiso   1.00
H484   H     0.44972   0.17911   0.10045   0.00000  Uiso   1.00
H485   H     0.37642   0.49811   0.76332   0.00000  Uiso   1.00
H486   H     0.37458   0.46854   0.72208   0.00000  Uiso   1.00
H487   H     0.44491   0.49465   0.76050   0.00000  Uiso   1.00
H488   H     0.44323   0.14983   0.47484   0.00000  Uiso   1.00
H489   H     0.44617   0.43487   0.42201   0.00000  Uiso   1.00
H490   H     0.43966   0.47047   0.71459   0.00000  Uiso   1.00
H491   H     0.40806   0.02289   0.68528   0.00000  Uiso   1.00
H492   H     0.45053   0.03712   0.70560   0.00000  Uiso   1.00
H493   H     0.40904   0.04671   0.73096   0.00000  Uiso   1.00
H494   H     0.15988   0.08538   0.16670   0.00000  Uiso   1.00
H495   H     0.11481   0.09844   0.15117   0.00000  Uiso   1.00
H496   H     0.14158   0.01930   0.15092   0.00000  Uiso   1.00
H497   H     0.10180   0.03834   0.12774   0.00000  Uiso   1.00
H498   H     0.14284   0.07622   0.08470   0.00000  Uiso   1.00
H499   H     0.14771   0.02770   0.07820   0.00000  Uiso   1.00
H500   H     0.40194   0.42264   0.40434   0.00000  Uiso   1.00
H501   H     0.18091   0.05204   0.10594   0.00000  Uiso   1.00
H502   H     0.48068   0.10949   0.78735   0.00000  Uiso   1.00
H503   H     0.44775   0.07544   0.77605   0.00000  Uiso   1.00
H504   H     0.47437   0.09536   0.85866   0.00000  Uiso   1.00
H505   H     0.44113   0.06186   0.84752   0.00000  Uiso   1.00
H506   H     0.48575   0.02669   0.80805   0.00000  Uiso   1.00
H507   H     0.00074   0.03306   0.85773   0.00000  Uiso   1.00
H508   H     0.01974   0.06039   0.81928   0.00000  Uiso   1.00
H509   H     0.07993   0.33817   0.16513   0.00000  Uiso   1.00
H510   H     0.08958   0.38277   0.14559   0.00000  Uiso   1.00
H511   H     0.14994   0.44735   0.53115   0.00000  Uiso   1.00
H512   H     0.01324   0.35234   0.16071   0.00000  Uiso   1.00
H513   H     0.02341   0.39561   0.13960   0.00000  Uiso   1.00
H514   H     0.05578   0.36318   0.08410   0.00000  Uiso   1.00
H515   H     0.00824   0.35304   0.08756   0.00000  Uiso   1.00
H516   H     0.04072   0.32055   0.10504   0.00000  Uiso   1.00
H517   H     0.36046   0.23487   0.71790   0.00000  Uiso   1.00
H518   H     0.32938   0.20273   0.73810   0.00000  Uiso   1.00
H519   H     0.33272   0.22212   0.65048   0.00000  Uiso   1.00
H520   H     0.29925   0.19513   0.67461   0.00000  Uiso   1.00
H521   H     0.27928   0.24789   0.71380   0.00000  Uiso   1.00
H522   H     0.11805   0.47380   0.50263   0.00000  Uiso   1.00
H523   H     0.27785   0.25820   0.66206   0.00000  Uiso   1.00
H524   H     0.31344   0.27585   0.69198   0.00000  Uiso   1.00
H525   H     0.08790   0.33223   0.33505   0.00000  Uiso   1.00
H526   H     0.13245   0.34178   0.35437   0.00000  Uiso   1.00
H527   H     0.10078   0.26500   0.34223   0.00000  Uiso   1.00
H528   H     0.14360   0.27531   0.36372   0.00000  Uiso   1.00
H529   H     0.11130   0.31035   0.41724   0.00000  Uiso   1.00
H530   H     0.10004   0.26265   0.41543   0.00000  Uiso   1.00
H531   H     0.06890   0.29558   0.39615   0.00000  Uiso   1.00
H532   H     0.29445   0.35799   0.77437   0.00000  Uiso   1.00
H533   H     0.11597   0.46007   0.59113   0.00000  Uiso   1.00
H534   H     0.31055   0.31562   0.75363   0.00000  Uiso   1.00
H535   H     0.23987   0.35523   0.73216   0.00000  Uiso   1.00
H536   H     0.25574   0.31332   0.71148   0.00000  Uiso   1.00
H537   H     0.25948   0.29277   0.78790   0.00000  Uiso   1.00
H538   H     0.21795   0.29081   0.76147   0.00000  Uiso   1.00
H539   H     0.22658   0.32870   0.79324   0.00000  Uiso   1.00
H540   H     0.19061   0.10544   0.34462   0.00000  Uiso   1.00
H541   H     0.14847   0.12933   0.34044   0.00000  Uiso   1.00
H542   H     0.22309   0.16351   0.35506   0.00000  Uiso   1.00
H543   H     0.18205   0.18884   0.34796   0.00000  Uiso   1.00
H544   H     0.08635   0.49103   0.56567   0.00000  Uiso   1.00
H545   H     0.15511   0.16028   0.40655   0.00000  Uiso   1.00
H546   H     0.19782   0.18059   0.41862   0.00000  Uiso   1.00
H547   H     0.19481   0.13192   0.41298   0.00000  Uiso   1.00
H548   H     0.13764   0.26968   0.71012   0.00000  Uiso   1.00
H549   H     0.17166   0.30229   0.72246   0.00000  Uiso   1.00
H550   H     0.15266   0.27808   0.63883   0.00000  Uiso   1.00
H551   H     0.18700   0.30993   0.65227   0.00000  Uiso   1.00
H552   H     0.21863   0.26272   0.69141   0.00000  Uiso   1.00
H553   H     0.21335   0.24878   0.64107   0.00000  Uiso   1.00
H554   H     0.18480   0.22999   0.67860   0.00000  Uiso   1.00
H555   H     0.06297   0.44038   0.52476   0.00000  Uiso   1.00
H556   H     0.41821   0.16564   0.33746   0.00000  Uiso   1.00
H557   H     0.37535   0.14979   0.35607   0.00000  Uiso   1.00
H558   H     0.39957   0.22982   0.35306   0.00000  Uiso   1.00
H559   H     0.35712   0.21351   0.37131   0.00000  Uiso   1.00
H560   H     0.39119   0.17625   0.42202   0.00000  Uiso   1.00
H561   H     0.39772   0.22470   0.42630   0.00000  Uiso   1.00
H562   H     0.43252   0.19714   0.40497   0.00000  Uiso   1.00
H563   H     0.24247   0.13590   0.73192   0.00000  Uiso   1.00
H564   H     0.21029   0.13781   0.77051   0.00000  Uiso   1.00
H565   H     0.23337   0.19914   0.71499   0.00000  Uiso   1.00
H566   H     0.05796   0.43025   0.57591   0.00000  Uiso   1.00
H567   H     0.19561   0.20339   0.74813   0.00000  Uiso   1.00
H568   H     0.23578   0.19199   0.80483   0.00000  Uiso   1.00
H569   H     0.25286   0.22898   0.77599   0.00000  Uiso   1.00
H570   H     0.27389   0.18483   0.77260   0.00000  Uiso   1.00
H571   H     0.33387   0.40761   0.33394   0.00000  Uiso   1.00
H572   H     0.34882   0.36211   0.34661   0.00000  Uiso   1.00
H573   H     0.26951   0.38660   0.35059   0.00000  Uiso   1.00
H574   H     0.28976   0.34544   0.36983   0.00000  Uiso   1.00
H575   H     0.32824   0.38521   0.41463   0.00000  Uiso   1.00
H576   H     0.28028   0.38611   0.42395   0.00000  Uiso   1.00
H577   H     0.09376   0.40890   0.54832   0.00000  Uiso   1.00
H578   H     0.30073   0.42340   0.39869   0.00000  Uiso   1.00
H579   H     0.35139   0.25566   0.26301   0.00000  Uiso   1.00
H580   H     0.36894   0.28573   0.22727   0.00000  Uiso   1.00
H581   H     0.29173   0.28557   0.26082   0.00000  Uiso   1.00
H582   H     0.30762   0.31905   0.22677   0.00000  Uiso   1.00
H583   H     0.31601   0.27347   0.17609   0.00000  Uiso   1.00
H584   H     0.27231   0.26699   0.19640   0.00000  Uiso   1.00
H585   H     0.30853   0.23660   0.21004   0.00000  Uiso   1.00
H586   H     0.09004   0.16455   0.66690   0.00000  Uiso   1.00
H587   H     0.13510   0.15134   0.65166   0.00000  Uiso   1.00
H588   H     0.05101   0.34270   0.43755   0.00000  Uiso   1.00
H589   H     0.10845   0.23048   0.65019   0.00000  Uiso   1.00
H590   H     0.14816   0.21113   0.62737   0.00000  Uiso   1.00
H591   H     0.10710   0.17273   0.58484   0.00000  Uiso   1.00
H592   H     0.10236   0.22116   0.57754   0.00000  Uiso   1.00
H593   H     0.06909   0.19729   0.60558   0.00000  Uiso   1.00
H594   H     0.31535   0.17402   0.33352   0.00000  Uiso   1.00
H595   H     0.27797   0.14529   0.33225   0.00000  Uiso   1.00
H596   H     0.30894   0.17499   0.25489   0.00000  Uiso   1.00
H597   H     0.26654   0.15269   0.26361   0.00000  Uiso   1.00
H598   H     0.24774   0.20520   0.30562   0.00000  Uiso   1.00
H599   H     0.48469   0.08109   0.44873   0.00000  Uiso   1.00
H600   H     0.04873   0.36204   0.48614   0.00000  Uiso   1.00
H601   H     0.26139   0.22031   0.25755   0.00000  Uiso   1.00
H602   H     0.29133   0.22610   0.29833   0.00000  Uiso   1.00
H603   H     0.15845   0.41578   0.66256   0.00000  Uiso   1.00
H604   H     0.14872   0.37065   0.64409   0.00000  Uiso   1.00
H605   H     0.22280   0.40815   0.64452   0.00000  Uiso   1.00
H606   H     0.21484   0.36255   0.62840   0.00000  Uiso   1.00
H607   H     0.17262   0.38530   0.57675   0.00000  Uiso   1.00
H608   H     0.21687   0.40534   0.57239   0.00000  Uiso   1.00
H609   H     0.18032   0.43142   0.59277   0.00000  Uiso   1.00
H610   H     0.12993   0.24343   0.26556   0.00000  Uiso   1.00
H611   H     0.02046   0.39900   0.41134   0.00000  Uiso   1.00
H612   H     0.13696   0.21103   0.22731   0.00000  Uiso   1.00
H613   H     0.19300   0.23807   0.28641   0.00000  Uiso   1.00
H614   H     0.20120   0.20428   0.24893   0.00000  Uiso   1.00
H615   H     0.19077   0.24804   0.19701   0.00000  Uiso   1.00
H616   H     0.21982   0.27006   0.23203   0.00000  Uiso   1.00
H617   H     0.17264   0.28147   0.23046   0.00000  Uiso   1.00
H618   H     0.41006   0.33058   0.66424   0.00000  Uiso   1.00
H619   H     0.36518   0.34419   0.64888   0.00000  Uiso   1.00
H620   H     0.38982   0.26449   0.65424   0.00000  Uiso   1.00
H621   H     0.34888   0.28251   0.63276   0.00000  Uiso   1.00
H622   H     0.02050   0.41787   0.45990   0.00000  Uiso   1.00
H623   H     0.38639   0.31608   0.58306   0.00000  Uiso   1.00
H624   H     0.39197   0.26732   0.58105   0.00000  Uiso   1.00
H625   H     0.42638   0.29465   0.60337   0.00000  Uiso   1.00
H626   H     0.23216   0.35984   0.28691   0.00000  Uiso   1.00
H627   H     0.19988   0.32631   0.27221   0.00000  Uiso   1.00
H628   H     0.22292   0.34161   0.35734   0.00000  Uiso   1.00
H629   H     0.19169   0.30768   0.34171   0.00000  Uiso   1.00
H630   H     0.23932   0.27719   0.30246   0.00000  Uiso   1.00
H631   H     0.25165   0.28040   0.35326   0.00000  Uiso   1.00
H632   H     0.27150   0.31073   0.31798   0.00000  Uiso   1.00
H633   H     0.08826   0.41403   0.46139   0.00000  Uiso   1.00
H634   H     0.33386   0.08908   0.66604   0.00000  Uiso   1.00
H635   H     0.34275   0.13443   0.64769   0.00000  Uiso   1.00
H636   H     0.26622   0.10355   0.65773   0.00000  Uiso   1.00
H637   H     0.27913   0.14472   0.63322   0.00000  Uiso   1.00
H638   H     0.31400   0.10726   0.58400   0.00000  Uiso   1.00
H639   H     0.26647   0.09637   0.58522   0.00000  Uiso   1.00
H640   H     0.29849   0.06651   0.60852   0.00000  Uiso   1.00
H641   H     0.02279   0.32621   0.36270   0.00000  Uiso   1.00
H642   H     0.49302   0.37689   0.32836   0.00000  Uiso   1.00
H643   H     0.42865   0.39158   0.34170   0.00000  Uiso   1.00
H644   H     0.07230   0.44077   0.42063   0.00000  Uiso   1.00
H645   H     0.39484   0.35595   0.39100   0.00000  Uiso   1.00
H646   H     0.42422   0.30534   0.42572   0.00000  Uiso   1.00
H647   H     0.02022   0.17519   0.64190   0.00000  Uiso   1.00
H648   H     0.48946   0.12772   0.68006   0.00000  Uiso   1.00
H649   H     0.42618   0.11110   0.66479   0.00000  Uiso   1.00
H650   H     0.39379   0.14237   0.61079   0.00000  Uiso   1.00
H651   H     0.42355   0.19069   0.57325   0.00000  Uiso   1.00
H652   H     0.17779   0.04215   0.36880   0.00000  Uiso   1.00
H653   H     0.12754   0.02421   0.32545   0.00000  Uiso   1.00
H654   H     0.10619   0.46037   0.32477   0.00000  Uiso   1.00
H655   H     0.08785   0.39479   0.41277   0.00000  Uiso   1.00
H656   H     0.13493   0.41461   0.36800   0.00000  Uiso   1.00
H657   H     0.18452   0.43235   0.41236   0.00000  Uiso   1.00
H658   H     0.33417   0.01143   0.63190   0.00000  Uiso   1.00
H659   H     0.38361   0.47296   0.65774   0.00000  Uiso   1.00
H660   H     0.38482   0.40712   0.64515   0.00000  Uiso   1.00
H661   H     0.33810   0.37946   0.60213   0.00000  Uiso   1.00
H662   H     0.29026   0.41756   0.57355   0.00000  Uiso   1.00
H663   H     0.47570   0.17640   0.35991   0.00000  Uiso   1.00
H664   H     0.00049   0.12328   0.32550   0.00000  Uiso   1.00
H665   H     0.06219   0.10079   0.34123   0.00000  Uiso   1.00
H666   H     0.04220   0.15328   0.56643   0.00000  Uiso   1.00
H667   H     0.09868   0.13191   0.39140   0.00000  Uiso   1.00
H668   H     0.07395   0.18502   0.42680   0.00000  Uiso   1.00
H669   H     0.47358   0.32457   0.63603   0.00000  Uiso   1.00
H670   H     0.49816   0.37857   0.66838   0.00000  Uiso   1.00
H671   H     0.06084   0.39873   0.65479   0.00000  Uiso   1.00
H672   H     0.09828   0.36466   0.60712   0.00000  Uiso   1.00
H673   H     0.07422   0.31015   0.57462   0.00000  Uiso   1.00
H674   H     0.32201   0.47016   0.36071   0.00000  Uiso   1.00
H675   H     0.37312   0.49397   0.32274   0.00000  Uiso   1.00
H676   H     0.39565   0.05637   0.33486   0.00000  Uiso   1.00
H677   H     0.04241   0.13052   0.51950   0.00000  Uiso   1.00
H678   H     0.36678   0.09468   0.38564   0.00000  Uiso   1.00
H679   H     0.31526   0.07161   0.42347   0.00000  Uiso   1.00
H680   H     0.17609   0.47716   0.63892   0.00000  Uiso   1.00
H681   H     0.12450   0.00429   0.67329   0.00000  Uiso   1.00
H682   H     0.10609   0.06814   0.65946   0.00000  Uiso   1.00
H683   H     0.13867   0.10360   0.60901   0.00000  Uiso   1.00
H684   H     0.19042   0.07674   0.57434   0.00000  Uiso   1.00
H685   H     0.27460   0.07417   0.86121   0.00000  Uiso   1.00
H686   H     0.24858   0.12641   0.82634   0.00000  Uiso   1.00
H687   H     0.18594   0.14686   0.84065   0.00000  Uiso   1.00
H688   H     0.00297   0.10034   0.59154   0.00000  Uiso   1.00
H689   H     0.14990   0.11478   0.89086   0.00000  Uiso   1.00
H690   H     0.17557   0.06220   0.92606   0.00000  Uiso   1.00
H691   H     0.26959   0.42519   0.14080   0.00000  Uiso   1.00
H692   H     0.23896   0.37673   0.17756   0.00000  Uiso   1.00
H693   H     0.17566   0.36046   0.16195   0.00000  Uiso   1.00
H694   H     0.14303   0.39309   0.10920   0.00000  Uiso   1.00
H695   H     0.17292   0.44216   0.07254   0.00000  Uiso   1.00
H696   H     0.42715   0.28156   0.86326   0.00000  Uiso   1.00
H697   H     0.37802   0.25663   0.82261   0.00000  Uiso   1.00
H698   H     0.35935   0.19234   0.83037   0.00000  Uiso   1.00
H699   H     0.01245   0.07759   0.54623   0.00000  Uiso   1.00
H700   H     0.38978   0.15318   0.87942   0.00000  Uiso   1.00
H701   H     0.43860   0.17769   0.92057   0.00000  Uiso   1.00
H702   H     0.07407   0.27523   0.13837   0.00000  Uiso   1.00
H703   H     0.12600   0.24928   0.17328   0.00000  Uiso   1.00
H704   H     0.14599   0.18590   0.15977   0.00000  Uiso   1.00
H705   H     0.11382   0.14922   0.10997   0.00000  Uiso   1.00
H706   H     0.06195   0.17507   0.07431   0.00000  Uiso   1.00
H707   H     0.22876   0.42390   0.86275   0.00000  Uiso   1.00
H708   H     0.25829   0.37411   0.82724   0.00000  Uiso   1.00
H709   H     0.32289   0.35924   0.83952   0.00000  Uiso   1.00
H710   H     0.46843   0.09123   0.49710   0.00000  Uiso   1.00
H711   H     0.06856   0.10393   0.60645   0.00000  Uiso   1.00
H712   H     0.35754   0.39464   0.88818   0.00000  Uiso   1.00
H713   H     0.32801   0.44427   0.92494   0.00000  Uiso   1.00
H714   H     0.23061   0.07540   0.14068   0.00000  Uiso   1.00
H715   H     0.26202   0.12361   0.17720   0.00000  Uiso   1.00
H716   H     0.32560   0.13874   0.16163   0.00000  Uiso   1.00
H717   H     0.35763   0.10519   0.10908   0.00000  Uiso   1.00
H718   H     0.32708   0.05643   0.07300   0.00000  Uiso   1.00
H719   H     0.07357   0.22323   0.85950   0.00000  Uiso   1.00
H720   H     0.12334   0.25020   0.82175   0.00000  Uiso   1.00
H721   H     0.14323   0.31324   0.83536   0.00000  Uiso   1.00
H722   H     0.07899   0.08180   0.56053   0.00000  Uiso   1.00
H723   H     0.11328   0.34904   0.88757   0.00000  Uiso   1.00
H724   H     0.06321   0.32274   0.92526   0.00000  Uiso   1.00
H725   H     0.42565   0.22594   0.13644   0.00000  Uiso   1.00
H726   H     0.37547   0.25354   0.17169   0.00000  Uiso   1.00
H727   H     0.35885   0.31869   0.16004   0.00000  Uiso   1.00
H728   H     0.39186   0.35412   0.11009   0.00000  Uiso   1.00
H729   H     0.44265   0.32646   0.07436   0.00000  Uiso   1.00
H730   H     0.05476   0.05760   0.59802   0.00000  Uiso   1.00
H731   H     0.12940   0.05598   0.42850   0.00000  Uiso   1.00
H732   H     0.17353   0.06567   0.44638   0.00000  Uiso   1.00
H733   H     0.10637   0.05448   0.49920   0.00000  Uiso   1.00
H734   H     0.14998   0.07149   0.51391   0.00000  Uiso   1.00
H735   H     0.14108   0.12521   0.46875   0.00000  Uiso   1.00
H736   H     0.10855   0.12255   0.50766   0.00000  Uiso   1.00
H737   H     0.09574   0.10901   0.45903   0.00000  Uiso   1.00
H738   H     0.40453   0.09267   0.47071   0.00000  Uiso   1.00
H739   H     0.34505   0.04403   0.56807   0.00000  Uiso   1.00
H740   H     0.36187   0.04587   0.51852   0.00000  Uiso   1.00
H741   H     0.40159   0.00847   0.58670   0.00000  Uiso   1.00
H742   H     0.41789   0.01491   0.53764   0.00000  Uiso   1.00
H743   H     0.39901   0.07513   0.59702   0.00000  Uiso   1.00
H744   H     0.41433   0.08291   0.54747   0.00000  Uiso   1.00
H745   H     0.44367   0.06096   0.58246   0.00000  Uiso   1.00
H746   H     0.20726   0.40318   0.93030   0.00000  Uiso   1.00
H747   H     0.20353   0.38579   0.97949   0.00000  Uiso   1.00
H748   H     0.24573   0.34679   0.91437   0.00000  Uiso   1.00
H749   H     0.42665   0.04931   0.46448   0.00000  Uiso   1.00
H750   H     0.23454   0.32973   0.96213   0.00000  Uiso   1.00
H751   H     0.16831   0.33361   0.94440   0.00000  Uiso   1.00
H752   H     0.19344   0.30434   0.91200   0.00000  Uiso   1.00
H753   H     0.18094   0.34945   0.89621   0.00000  Uiso   1.00
H754   H     0.20801   0.09780   0.06873   0.00000  Uiso   1.00
H755   H     0.20552   0.11575   0.01952   0.00000  Uiso   1.00
H756   H     0.24572   0.15279   0.08737   0.00000  Uiso   1.00
H757   H     0.23807   0.17067   0.03902   0.00000  Uiso   1.00
H758   H     0.17076   0.16889   0.05164   0.00000  Uiso   1.00
H759   H     0.19459   0.19714   0.08611   0.00000  Uiso   1.00
H760   H     0.42224   0.07964   0.42338   0.00000  Uiso   1.00
H761   H     0.18010   0.15234   0.10050   0.00000  Uiso   1.00
H762   H     0.11031   0.20282   0.92846   0.00000  Uiso   1.00
H763   H     0.10129   0.19382   0.97922   0.00000  Uiso   1.00
H764   H     0.16768   0.23540   0.94844   0.00000  Uiso   1.00
H765   H     0.15875   0.22273   0.99835   0.00000  Uiso   1.00
H766   H     0.15931   0.15640   0.97780   0.00000  Uiso   1.00
H767   H     0.20153   0.17931   0.96914   0.00000  Uiso   1.00
H768   H     0.17127   0.17088   0.92893   0.00000  Uiso   1.00
H769   H     0.40344   0.20075   0.05845   0.00000  Uiso   1.00
H770   H     0.38437   0.20704   0.01010   0.00000  Uiso   1.00
H771   H     0.44823   0.34494   0.56105   0.00000  Uiso   1.00
H772   H     0.35039   0.23344   0.08715   0.00000  Uiso   1.00
H773   H     0.33179   0.23977   0.03898   0.00000  Uiso   1.00
H774   H     0.32758   0.17253   0.03025   0.00000  Uiso   1.00
H775   H     0.30409   0.18699   0.07373   0.00000  Uiso   1.00
H776   H     0.34787   0.16575   0.07787   0.00000  Uiso   1.00
H777   H     0.29690   0.09669   0.93179   0.00000  Uiso   1.00
H778   H     0.30033   0.11204   0.98186   0.00000  Uiso   1.00
H779   H     0.26215   0.15492   0.91641   0.00000  Uiso   1.00
H780   H     0.27086   0.16973   0.96570   0.00000  Uiso   1.00
H781   H     0.33777   0.16474   0.95306   0.00000  Uiso   1.00
H782   H     0.45117   0.36208   0.51152   0.00000  Uiso   1.00
H783   H     0.31565   0.19569   0.91974   0.00000  Uiso   1.00
H784   H     0.32799   0.15074   0.90340   0.00000  Uiso   1.00
H785   H     0.29231   0.40399   0.06952   0.00000  Uiso   1.00
H786   H     0.29592   0.38498   0.02093   0.00000  Uiso   1.00
H787   H     0.25509   0.34850   0.08860   0.00000  Uiso   1.00
H788   H     0.26460   0.32975   0.04112   0.00000  Uiso   1.00
H789   H     0.33126   0.33305   0.05585   0.00000  Uiso   1.00
H790   H     0.30728   0.30568   0.09092   0.00000  Uiso   1.00
H791   H     0.32079   0.35122   0.10368   0.00000  Uiso   1.00
H792   H     0.37810   0.29396   0.92381   0.00000  Uiso   1.00
O793   O     0.25000   0.00000   0.25000   0.00000  Uiso   1.00
O794   O     0.25000   0.46964   0.66245   0.00000  Uiso   1.00
O795   O     0.31566   0.13244   0.70059   0.00000  Uiso   1.00
O796   O     0.46964   0.25000   0.33755   0.00000  Uiso   1.00
O797   O     0.03037   0.25000   0.66245   0.00000  Uiso   1.00
O798   O     0.00000   0.21964   0.83755   0.00000  Uiso   1.00
O799   O     0.00000   0.28037   0.16245   0.00000  Uiso   1.00
O800   O     0.28037   0.00000   0.83755   0.00000  Uiso   1.00
O801   O     0.21964   0.00000   0.16245   0.00000  Uiso   1.00
O802   O     0.00000   0.28037   0.83755   0.00000  Uiso   1.00
O803   O     0.00000   0.21964   0.16245   0.00000  Uiso   1.00
O804   O     0.21964   0.00000   0.83755   0.00000  Uiso   1.00
O805   O     0.25000   0.00000   0.75000   0.00000  Uiso   1.00
O806   O     0.28037   0.00000   0.16245   0.00000  Uiso   1.00
O807   O     0.20725   0.07308   0.27302   0.00000  Uiso   1.00
O808   O     0.29276   0.42693   0.72698   0.00000  Uiso   1.00
O809   O     0.42693   0.20725   0.27302   0.00000  Uiso   1.00
O810   O     0.07308   0.29276   0.72698   0.00000  Uiso   1.00
O811   O     0.29276   0.42693   0.27302   0.00000  Uiso   1.00
O812   O     0.20725   0.07308   0.72698   0.00000  Uiso   1.00
O813   O     0.07308   0.29276   0.27302   0.00000  Uiso   1.00
O814   O     0.42693   0.20725   0.72698   0.00000  Uiso   1.00
O815   O     0.20725   0.42693   0.72698   0.00000  Uiso   1.00
O816   O     0.00000   0.25000   0.25000   0.00000  Uiso   1.00
O817   O     0.29276   0.07308   0.27302   0.00000  Uiso   1.00
O818   O     0.42693   0.29276   0.72698   0.00000  Uiso   1.00
O819   O     0.07308   0.20725   0.27302   0.00000  Uiso   1.00
O820   O     0.29276   0.07308   0.72698   0.00000  Uiso   1.00
O821   O     0.20725   0.42693   0.27302   0.00000  Uiso   1.00
O822   O     0.07308   0.20725   0.72698   0.00000  Uiso   1.00
O823   O     0.42693   0.29276   0.27302   0.00000  Uiso   1.00
O824   O     0.45725   0.32308   0.77302   0.00000  Uiso   1.00
O825   O     0.04276   0.17693   0.22698   0.00000  Uiso   1.00
O826   O     0.17693   0.45725   0.77302   0.00000  Uiso   1.00
O827   O     0.00000   0.25000   0.75000   0.00000  Uiso   1.00
O828   O     0.32308   0.04276   0.22698   0.00000  Uiso   1.00
O829   O     0.04276   0.17693   0.77302   0.00000  Uiso   1.00
O830   O     0.45725   0.32308   0.22698   0.00000  Uiso   1.00
O831   O     0.32308   0.04276   0.77302   0.00000  Uiso   1.00
O832   O     0.17693   0.45725   0.22698   0.00000  Uiso   1.00
O833   O     0.45725   0.17693   0.22698   0.00000  Uiso   1.00
O834   O     0.04276   0.32308   0.77302   0.00000  Uiso   1.00
O835   O     0.17693   0.04276   0.22698   0.00000  Uiso   1.00
O836   O     0.32308   0.45725   0.77302   0.00000  Uiso   1.00
O837   O     0.04276   0.32308   0.22698   0.00000  Uiso   1.00
O838   O     0.25000   0.46964   0.33755   0.00000  Uiso   1.00
O839   O     0.45725   0.17693   0.77302   0.00000  Uiso   1.00
O840   O     0.32308   0.45725   0.22698   0.00000  Uiso   1.00
O841   O     0.17693   0.04276   0.77302   0.00000  Uiso   1.00
O842   O     0.49938   0.14900   0.46054   0.00000  Uiso   1.00
O843   O     0.00019   0.34862   0.53902   0.00000  Uiso   1.00
O844   O     0.34920   0.00112   0.46169   0.00000  Uiso   1.00
O845   O     0.15071   0.00397   0.53973   0.00000  Uiso   1.00
O846   O     0.49937   0.34834   0.45994   0.00000  Uiso   1.00
O847   O     0.49233   0.14924   0.53929   0.00000  Uiso   1.00
O848   O     0.15151   0.01408   0.45980   0.00000  Uiso   1.00
O849   O     0.25000   0.03037   0.66245   0.00000  Uiso   1.00
O850   O     0.34802   0.49422   0.54017   0.00000  Uiso   1.00
O851   O     0.25540   0.40059   0.96096   0.00000  Uiso   1.00
O852   O     0.25677   0.09967   0.03946   0.00000  Uiso   1.00
O853   O     0.09992   0.24909   0.96010   0.00000  Uiso   1.00
O854   O     0.40182   0.25410   0.03893   0.00000  Uiso   1.00
O855   O     0.24821   0.10009   0.96109   0.00000  Uiso   1.00
O856   O     0.24413   0.40048   0.03910   0.00000  Uiso   1.00
O857   O     0.40183   0.25669   0.96008   0.00000  Uiso   1.00
O858   O     0.10019   0.24997   0.03879   0.00000  Uiso   1.00
O859   O     0.12286   0.42966   0.19357   0.00000  Uiso   1.00
O860   O     0.03037   0.25000   0.33755   0.00000  Uiso   1.00
O861   O     0.38069   0.06666   0.80220   0.00000  Uiso   1.00
O862   O     0.05951   0.10972   0.21354   0.00000  Uiso   1.00
O863   O     0.43990   0.38981   0.78859   0.00000  Uiso   1.00
O864   O     0.37795   0.06967   0.19465   0.00000  Uiso   1.00
O865   O     0.11924   0.43388   0.80095   0.00000  Uiso   1.00
O866   O     0.44199   0.39225   0.21861   0.00000  Uiso   1.00
O867   O     0.06632   0.11705   0.79991   0.00000  Uiso   1.00
O868   O     0.11055   0.05911   0.78674   0.00000  Uiso   1.00
O869   O     0.38361   0.43506   0.20179   0.00000  Uiso   1.00
O870   O     0.06514   0.38380   0.79843   0.00000  Uiso   1.00
O871   O     0.46964   0.25000   0.66245   0.00000  Uiso   1.00
O872   O     0.43398   0.11811   0.19958   0.00000  Uiso   1.00
O873   O     0.39493   0.44688   0.77565   0.00000  Uiso   1.00
O874   O     0.11718   0.06563   0.20060   0.00000  Uiso   1.00
O875   O     0.42960   0.12248   0.80680   0.00000  Uiso   1.00
O876   O     0.06571   0.38258   0.20041   0.00000  Uiso   1.00
O877   O     0.36928   0.18290   0.69818   0.00000  Uiso   1.00
O878   O     0.13170   0.31567   0.30053   0.00000  Uiso   1.00
O879   O     0.31021   0.36020   0.71604   0.00000  Uiso   1.00
O880   O     0.18707   0.13626   0.29456   0.00000  Uiso   1.00
O881   O     0.12556   0.32168   0.69180   0.00000  Uiso   1.00
O882   O     0.25000   0.03037   0.33755   0.00000  Uiso   1.00
O883   O     0.37280   0.18079   0.30533   0.00000  Uiso   1.00
O884   O     0.19017   0.13980   0.71219   0.00000  Uiso   1.00
O885   O     0.31520   0.36575   0.29803   0.00000  Uiso   1.00
O886   O     0.35866   0.30771   0.28289   0.00000  Uiso   1.00
O887   O     0.13274   0.18461   0.70062   0.00000  Uiso   1.00
O888   O     0.32347   0.12221   0.31027   0.00000  Uiso   1.00
O889   O     0.18011   0.37206   0.69413   0.00000  Uiso   1.00
O890   O     0.13923   0.19172   0.28606   0.00000  Uiso   1.00
O891   O     0.36750   0.31548   0.70094   0.00000  Uiso   1.00
O892   O     0.18047   0.37141   0.30533   0.00000  Uiso   1.00
Zn893  Zn    0.20660   0.00000   0.21735   0.00000  Uiso   1.00
Zn894  Zn    0.04341   0.25000   0.28265   0.00000  Uiso   1.00
Zn895  Zn    0.25000   0.45660   0.71735   0.00000  Uiso   1.00
Zn896  Zn    0.25000   0.04341   0.28265   0.00000  Uiso   1.00
Zn897  Zn    0.04341   0.25000   0.71735   0.00000  Uiso   1.00
Zn898  Zn    0.45660   0.25000   0.28265   0.00000  Uiso   1.00
Zn899  Zn    0.25000   0.04341   0.71735   0.00000  Uiso   1.00
Zn900  Zn    0.25000   0.45660   0.28265   0.00000  Uiso   1.00
Zn901  Zn    0.29341   0.00000   0.78265   0.00000  Uiso   1.00
Zn902  Zn    0.00000   0.20660   0.21735   0.00000  Uiso   1.00
Zn903  Zn    0.00000   0.29341   0.78265   0.00000  Uiso   1.00
Zn904  Zn    0.29341   0.00000   0.21735   0.00000  Uiso   1.00
Zn905  Zn    0.20660   0.00000   0.78265   0.00000  Uiso   1.00
Zn906  Zn    0.00000   0.29341   0.21735   0.00000  Uiso   1.00
Zn907  Zn    0.00000   0.20660   0.78265   0.00000  Uiso   1.00
Zn908  Zn    0.45660   0.25000   0.71735   0.00000  Uiso   1.00
C909   C     0.99260   0.28112   0.41794   0.00000  Uiso   1.00
C910   C     0.74070   0.46797   0.08212   0.00000  Uiso   1.00
C911   C     0.71639   0.00468   0.54080   0.00000  Uiso   1.00
C912   C     0.99736   0.28203   0.45871   0.00000  Uiso   1.00
C913   C     0.99543   0.21560   0.54132   0.00000  Uiso   1.00
C914   C     0.71646   0.00233   0.45823   0.00000  Uiso   1.00
C915   C     0.78215   0.49564   0.54083   0.00000  Uiso   1.00
C916   C     0.75388   0.46700   0.95901   0.00000  Uiso   1.00
C917   C     0.75413   0.03333   0.04139   0.00000  Uiso   1.00
C918   C     0.53410   0.25184   0.95836   0.00000  Uiso   1.00
C919   C     0.96775   0.25349   0.04067   0.00000  Uiso   1.00
C920   C     0.74726   0.03366   0.95900   0.00000  Uiso   1.00
C921   C     0.96814   0.24479   0.91747   0.00000  Uiso   1.00
C922   C     0.74578   0.46687   0.04124   0.00000  Uiso   1.00
C923   C     0.96754   0.24922   0.95832   0.00000  Uiso   1.00
C924   C     0.53398   0.24704   0.04088   0.00000  Uiso   1.00
C925   C     0.59816   0.34808   0.24998   0.00000  Uiso   1.00
C926   C     0.90120   0.15243   0.75124   0.00000  Uiso   1.00
C927   C     0.65247   0.09893   0.24909   0.00000  Uiso   1.00
C928   C     0.85052   0.40475   0.74549   0.00000  Uiso   1.00
C929   C     0.90298   0.15081   0.25141   0.00000  Uiso   1.00
C930   C     0.59722   0.34926   0.74861   0.00000  Uiso   1.00
C931   C     0.84815   0.40177   0.25005   0.00000  Uiso   1.00
C932   C     0.53294   0.24234   0.08184   0.00000  Uiso   1.00
C933   C     0.65203   0.09823   0.75002   0.00000  Uiso   1.00
C934   C     0.59833   0.15198   0.75030   0.00000  Uiso   1.00
C935   C     0.90189   0.34803   0.24993   0.00000  Uiso   1.00
C936   C     0.65153   0.40234   0.74919   0.00000  Uiso   1.00
C937   C     0.84942   0.09707   0.25157   0.00000  Uiso   1.00
C938   C     0.90414   0.35076   0.74623   0.00000  Uiso   1.00
C939   C     0.59814   0.15208   0.24967   0.00000  Uiso   1.00
C940   C     0.84750   0.09873   0.75118   0.00000  Uiso   1.00
C941   C     0.65210   0.40151   0.24976   0.00000  Uiso   1.00
C942   C     0.99986   0.24869   0.47938   0.00000  Uiso   1.00
C943   C     0.75905   0.46821   0.91819   0.00000  Uiso   1.00
C944   C     0.99940   0.24879   0.52058   0.00000  Uiso   1.00
C945   C     0.74969   0.00166   0.47899   0.00000  Uiso   1.00
C946   C     0.74942   0.00092   0.52018   0.00000  Uiso   1.00
C947   C     0.75026   0.00026   0.97957   0.00000  Uiso   1.00
C948   C     0.75000   0.00016   0.02076   0.00000  Uiso   1.00
C949   C     0.50085   0.25024   0.97895   0.00000  Uiso   1.00
C950   C     0.50086   0.25014   0.02017   0.00000  Uiso   1.00
C951   C     0.96370   0.13585   0.45609   0.00000  Uiso   1.00
C952   C     0.96313   0.09522   0.46550   0.00000  Uiso   1.00
C953   C     0.92678   0.07827   0.45538   0.00000  Uiso   1.00
C954   C     0.75895   0.03204   0.08227   0.00000  Uiso   1.00
C955   C     0.96442   0.36196   0.54078   0.00000  Uiso   1.00
C956   C     0.96505   0.40097   0.55601   0.00000  Uiso   1.00
C957   C     0.92723   0.41750   0.55653   0.00000  Uiso   1.00
C958   C     0.86313   0.46573   0.45635   0.00000  Uiso   1.00
C959   C     0.90251   0.46869   0.44356   0.00000  Uiso   1.00
C960   C     0.91733   0.43207   0.43023   0.00000  Uiso   1.00
C961   C     0.63173   0.47156   0.53141   0.00000  Uiso   1.00
C962   C     0.60281   0.46585   0.56262   0.00000  Uiso   1.00
C963   C     0.57791   0.43433   0.55215   0.00000  Uiso   1.00
C964   C     0.53525   0.36089   0.45704   0.00000  Uiso   1.00
C965   C     0.53333   0.25617   0.91741   0.00000  Uiso   1.00
C966   C     0.53498   0.39916   0.43975   0.00000  Uiso   1.00
C967   C     0.57328   0.41300   0.43330   0.00000  Uiso   1.00
C968   C     0.52692   0.13470   0.54700   0.00000  Uiso   1.00
C969   C     0.52277   0.09795   0.56736   0.00000  Uiso   1.00
C970   C     0.55858   0.08456   0.58406   0.00000  Uiso   1.00
C971   C     0.64758   0.05207   0.45400   0.00000  Uiso   1.00
C972   C     0.63019   0.07044   0.48960   0.00000  Uiso   1.00
C973   C     0.61819   0.10922   0.48051   0.00000  Uiso   1.00
C974   C     0.86172   0.02961   0.54602   0.00000  Uiso   1.00
C975   C     0.90054   0.02674   0.56089   0.00000  Uiso   1.00
C976   C     0.96875   0.25802   0.08154   0.00000  Uiso   1.00
C977   C     0.91524   0.06383   0.57260   0.00000  Uiso   1.00
C978   C     0.72083   0.38640   0.95295   0.00000  Uiso   1.00
C979   C     0.72511   0.34752   0.93789   0.00000  Uiso   1.00
C980   C     0.68966   0.33290   0.92170   0.00000  Uiso   1.00
C981   C     0.72222   0.11448   0.04660   0.00000  Uiso   1.00
C982   C     0.72665   0.15306   0.06229   0.00000  Uiso   1.00
C983   C     0.69070   0.16879   0.07589   0.00000  Uiso   1.00
C984   C     0.61419   0.21337   0.95853   0.00000  Uiso   1.00
C985   C     0.65465   0.21471   0.96739   0.00000  Uiso   1.00
C986   C     0.67271   0.17795   0.96039   0.00000  Uiso   1.00
C987   C     0.50024   0.24884   0.39782   0.00000  Uiso   1.00
C988   C     0.88663   0.21898   0.03991   0.00000  Uiso   1.00
C989   C     0.84877   0.22158   0.05737   0.00000  Uiso   1.00
C990   C     0.83104   0.18431   0.05987   0.00000  Uiso   1.00
C991   C     0.78354   0.11312   0.95483   0.00000  Uiso   1.00
C992   C     0.78124   0.15265   0.94138   0.00000  Uiso   1.00
C993   C     0.81804   0.16677   0.92868   0.00000  Uiso   1.00
C994   C     0.77880   0.38652   0.04757   0.00000  Uiso   1.00
C995   C     0.77490   0.34820   0.06426   0.00000  Uiso   1.00
C996   C     0.81087   0.33371   0.07956   0.00000  Uiso   1.00
C997   C     0.89611   0.29360   0.94977   0.00000  Uiso   1.00
C998   C     0.99977   0.24925   0.60215   0.00000  Uiso   1.00
C999   C     0.87748   0.31463   0.98278   0.00000  Uiso   1.00
C1000  C     0.86436   0.35179   0.96882   0.00000  Uiso   1.00
C1001  C     0.60788   0.28598   0.05085   0.00000  Uiso   1.00
C1002  C     0.62670   0.30771   0.01859   0.00000  Uiso   1.00
C1003  C     0.64007   0.34416   0.03404   0.00000  Uiso   1.00
C1004  C     0.59718   0.45717   0.20183   0.00000  Uiso   1.00
C1005  C     0.57665   0.46628   0.16435   0.00000  Uiso   1.00
C1006  C     0.54964   0.49691   0.17078   0.00000  Uiso   1.00
C1007  C     0.86479   0.07263   0.83912   0.00000  Uiso   1.00
C1008  C     0.86491   0.03647   0.86140   0.00000  Uiso   1.00
C1009  C     0.75017   0.00065   0.39763   0.00000  Uiso   1.00
C1010  C     0.84807   0.03998   0.90182   0.00000  Uiso   1.00
C1011  C     0.53414   0.10098   0.24316   0.00000  Uiso   1.00
C1012  C     0.52388   0.06099   0.24061   0.00000  Uiso   1.00
C1013  C     0.99604   0.05107   0.27166   0.00000  Uiso   1.00
C1014  C     0.93138   0.38164   0.82782   0.00000  Uiso   1.00
C1015  C     0.96603   0.38295   0.85207   0.00000  Uiso   1.00
C1016  C     0.96006   0.36856   0.89330   0.00000  Uiso   1.00
C1017  C     0.90384   0.04225   0.20272   0.00000  Uiso   1.00
C1018  C     0.92435   0.03358   0.16516   0.00000  Uiso   1.00
C1019  C     0.95108   0.00258   0.17109   0.00000  Uiso   1.00
C1020  C     0.99109   0.21689   0.58238   0.00000  Uiso   1.00
C1021  C     0.74951   0.49957   0.60187   0.00000  Uiso   1.00
C1022  C     0.63316   0.42515   0.83815   0.00000  Uiso   1.00
C1023  C     0.63035   0.45903   0.86387   0.00000  Uiso   1.00
C1024  C     0.64945   0.45388   0.90296   0.00000  Uiso   1.00
C1025  C     0.96382   0.40169   0.25117   0.00000  Uiso   1.00
C1026  C     0.98815   0.43358   0.24070   0.00000  Uiso   1.00
C1027  C     0.51441   0.44204   0.27388   0.00000  Uiso   1.00
C1028  C     0.57749   0.12998   0.83689   0.00000  Uiso   1.00
C1029  C     0.54594   0.12774   0.86548   0.00000  Uiso   1.00
C1030  C     0.55469   0.14559   0.90454   0.00000  Uiso   1.00
C1031  C     0.60044   0.03425   0.75699   0.00000  Uiso   1.00
C1032  C     0.75026   0.00032   0.89799   0.00000  Uiso   1.00
C1033  C     0.55937   0.03285   0.75247   0.00000  Uiso   1.00
C1034  C     0.54847   0.01379   0.71476   0.00000  Uiso   1.00
C1035  C     0.86971   0.42452   0.16496   0.00000  Uiso   1.00
C1036  C     0.87058   0.45695   0.13707   0.00000  Uiso   1.00
C1037  C     0.84875   0.45009   0.10007   0.00000  Uiso   1.00
C1038  C     0.54288   0.41202   0.78350   0.00000  Uiso   1.00
C1039  C     0.51868   0.39799   0.75062   0.00000  Uiso   1.00
C1040  C     0.99403   0.42767   0.73520   0.00000  Uiso   1.00
C1041  C     0.92711   0.13384   0.16266   0.00000  Uiso   1.00
C1042  C     0.96260   0.13454   0.13969   0.00000  Uiso   1.00
C1043  C     0.74985   0.49997   0.10224   0.00000  Uiso   1.00
C1044  C     0.95765   0.15014   0.09877   0.00000  Uiso   1.00
C1045  C     0.89077   0.47569   0.74818   0.00000  Uiso   1.00
C1046  C     0.92721   0.49037   0.73473   0.00000  Uiso   1.00
C1047  C     0.92335   0.02642   0.71282   0.00000  Uiso   1.00
C1048  C     0.63135   0.07609   0.16391   0.00000  Uiso   1.00
C1049  C     0.63024   0.04367   0.13606   0.00000  Uiso   1.00
C1050  C     0.65177   0.05055   0.09890   0.00000  Uiso   1.00
C1051  C     0.95607   0.09573   0.79843   0.00000  Uiso   1.00
C1052  C     0.96543   0.07561   0.83619   0.00000  Uiso   1.00
C1053  C     0.99476   0.04715   0.82977   0.00000  Uiso   1.00
C1054  C     0.50073   0.25011   0.89757   0.00000  Uiso   1.00
C1055  C     0.57007   0.36677   0.16312   0.00000  Uiso   1.00
C1056  C     0.53323   0.36721   0.14264   0.00000  Uiso   1.00
C1057  C     0.53480   0.34993   0.10228   0.00000  Uiso   1.00
C1058  C     0.84478   0.20995   0.71116   0.00000  Uiso   1.00
C1059  C     0.81797   0.21829   0.67837   0.00000  Uiso   1.00
C1060  C     0.79577   0.25214   0.68721   0.00000  Uiso   1.00
C1061  C     0.61612   0.32181   0.33761   0.00000  Uiso   1.00
C1062  C     0.61562   0.28554   0.35969   0.00000  Uiso   1.00
C1063  C     0.59788   0.28894   0.39964   0.00000  Uiso   1.00
C1064  C     0.79482   0.34092   0.74762   0.00000  Uiso   1.00
C1065  C     0.50071   0.25000   0.10185   0.00000  Uiso   1.00
C1066  C     0.75602   0.33036   0.73816   0.00000  Uiso   1.00
C1067  C     0.73907   0.30949   0.77222   0.00000  Uiso   1.00
C1068  C     0.67808   0.13126   0.33449   0.00000  Uiso   1.00
C1069  C     0.69340   0.16265   0.35857   0.00000  Uiso   1.00
C1070  C     0.68469   0.15844   0.40186   0.00000  Uiso   1.00
C1071  C     0.65167   0.29450   0.69973   0.00000  Uiso   1.00
C1072  C     0.67203   0.28564   0.66218   0.00000  Uiso   1.00
C1073  C     0.69888   0.25483   0.66869   0.00000  Uiso   1.00
C1074  C     0.88927   0.17275   0.34150   0.00000  Uiso   1.00
C1075  C     0.88610   0.20646   0.36750   0.00000  Uiso   1.00
C1076  C     0.99923   0.18220   0.47963   0.00000  Uiso   1.00
C1077  C     0.90295   0.20056   0.40766   0.00000  Uiso   1.00
C1078  C     0.71648   0.14857   0.74084   0.00000  Uiso   1.00
C1079  C     0.72193   0.18959   0.74309   0.00000  Uiso   1.00
C1080  C     0.74776   0.19935   0.77619   0.00000  Uiso   1.00
C1081  C     0.82578   0.37848   0.33532   0.00000  Uiso   1.00
C1082  C     0.79428   0.37468   0.36381   0.00000  Uiso   1.00
C1083  C     0.80158   0.39355   0.40264   0.00000  Uiso   1.00
C1084  C     0.84953   0.28395   0.25178   0.00000  Uiso   1.00
C1085  C     0.81093   0.29051   0.23677   0.00000  Uiso   1.00
C1086  C     0.80156   0.26523   0.20288   0.00000  Uiso   1.00
C1087  C     0.50041   0.31538   0.52006   0.00000  Uiso   1.00
C1088  C     0.61857   0.17380   0.66404   0.00000  Uiso   1.00
C1089  C     0.61973   0.20591   0.63572   0.00000  Uiso   1.00
C1090  C     0.59823   0.19860   0.59861   0.00000  Uiso   1.00
C1091  C     0.80171   0.15373   0.31487   0.00000  Uiso   1.00
C1092  C     0.78725   0.17077   0.27672   0.00000  Uiso   1.00
C1093  C     0.77080   0.20787   0.28520   0.00000  Uiso   1.00
C1094  C     0.66946   0.38781   0.65829   0.00000  Uiso   1.00
C1095  C     0.70237   0.38989   0.63140   0.00000  Uiso   1.00
C1096  C     0.69229   0.40386   0.59085   0.00000  Uiso   1.00
C1097  C     0.64555   0.21877   0.25735   0.00000  Uiso   1.00
C1098  C     0.81591   0.49928   0.47989   0.00000  Uiso   1.00
C1099  C     0.68519   0.22878   0.25677   0.00000  Uiso   1.00
C1100  C     0.69245   0.25894   0.22719   0.00000  Uiso   1.00
C1101  C     0.88114   0.32233   0.66310   0.00000  Uiso   1.00
C1102  C     0.87787   0.28797   0.63829   0.00000  Uiso   1.00
C1103  C     0.89686   0.29194   0.59902   0.00000  Uiso   1.00
C1104  C     0.70738   0.34530   0.29623   0.00000  Uiso   1.00
C1105  C     0.71585   0.32313   0.33293   0.00000  Uiso   1.00
C1106  C     0.74652   0.29622   0.32618   0.00000  Uiso   1.00
C1107  C     0.82298   0.11732   0.66352   0.00000  Uiso   1.00
C1108  C     0.78779   0.11648   0.64004   0.00000  Uiso   1.00
C1109  C     0.68340   0.00456   0.51991   0.00000  Uiso   1.00
C1110  C     0.79211   0.09536   0.60203   0.00000  Uiso   1.00
C1111  C     0.97563   0.31207   0.39676   0.00000  Uiso   1.00
C1112  C     0.99483   0.33236   0.36895   0.00000  Uiso   1.00
C1113  C     0.97793   0.36101   0.34924   0.00000  Uiso   1.00
C1114  C     0.94177   0.36934   0.35685   0.00000  Uiso   1.00
C1115  C     0.92260   0.34924   0.38450   0.00000  Uiso   1.00
C1116  C     0.93941   0.32074   0.40439   0.00000  Uiso   1.00
C1117  C     0.97418   0.18645   0.60452   0.00000  Uiso   1.00
C1118  C     0.99261   0.16834   0.63485   0.00000  Uiso   1.00
C1119  C     0.97524   0.14139   0.65661   0.00000  Uiso   1.00
C1120  C     0.99928   0.31525   0.47928   0.00000  Uiso   1.00
C1121  C     0.93958   0.13204   0.64804   0.00000  Uiso   1.00
C1122  C     0.92125   0.14970   0.61776   0.00000  Uiso   1.00
C1123  C     0.93831   0.17691   0.59626   0.00000  Uiso   1.00
C1124  C     0.68423   0.48871   0.39434   0.00000  Uiso   1.00
C1125  C     0.66809   0.01444   0.36940   0.00000  Uiso   1.00
C1126  C     0.63979   0.00430   0.34469   0.00000  Uiso   1.00
C1127  C     0.62775   0.46834   0.34431   0.00000  Uiso   1.00
C1128  C     0.64382   0.44256   0.36886   0.00000  Uiso   1.00
C1129  C     0.67181   0.45271   0.39402   0.00000  Uiso   1.00
C1130  C     0.80872   0.46716   0.60083   0.00000  Uiso   1.00
C1131  C     0.71708   0.49813   0.41730   0.00000  Uiso   1.00
C1132  C     0.99598   0.18232   0.52044   0.00000  Uiso   1.00
C1133  C     0.83461   0.48259   0.62565   0.00000  Uiso   1.00
C1134  C     0.86230   0.46089   0.64085   0.00000  Uiso   1.00
C1135  C     0.86328   0.42366   0.63315   0.00000  Uiso   1.00
C1136  C     0.83710   0.40810   0.60905   0.00000  Uiso   1.00
C1137  C     0.81004   0.42979   0.59277   0.00000  Uiso   1.00
C1138  C     0.52276   0.18447   0.39621   0.00000  Uiso   1.00
C1139  C     0.50246   0.16693   0.36715   0.00000  Uiso   1.00
C1140  C     0.51656   0.13682   0.34749   0.00000  Uiso   1.00
C1141  C     0.55125   0.12420   0.35631   0.00000  Uiso   1.00
C1142  C     0.57186   0.14177   0.38472   0.00000  Uiso   1.00
C1143  C     0.68371   0.00681   0.47900   0.00000  Uiso   1.00
C1144  C     0.55774   0.17176   0.40469   0.00000  Uiso   1.00
C1145  C     0.52220   0.31324   0.60313   0.00000  Uiso   1.00
C1146  C     0.50100   0.33271   0.62995   0.00000  Uiso   1.00
C1147  C     0.51496   0.36338   0.64847   0.00000  Uiso   1.00
C1148  C     0.55016   0.37477   0.64061   0.00000  Uiso   1.00
C1149  C     0.57138   0.35548   0.61398   0.00000  Uiso   1.00
C1150  C     0.55759   0.32472   0.59543   0.00000  Uiso   1.00
C1151  C     0.81497   0.01899   0.39530   0.00000  Uiso   1.00
C1152  C     0.83160   0.49728   0.36659   0.00000  Uiso   1.00
C1153  C     0.86057   0.01076   0.34489   0.00000  Uiso   1.00
C1154  C     0.81535   0.49649   0.52059   0.00000  Uiso   1.00
C1155  C     0.87324   0.04591   0.35168   0.00000  Uiso   1.00
C1156  C     0.85692   0.06758   0.38017   0.00000  Uiso   1.00
C1157  C     0.82784   0.05433   0.40176   0.00000  Uiso   1.00
C1158  C     0.68685   0.02487   0.60383   0.00000  Uiso   1.00
C1159  C     0.66819   0.00476   0.63220   0.00000  Uiso   1.00
C1160  C     0.63904   0.02025   0.65200   0.00000  Uiso   1.00
C1161  C     0.62860   0.05605   0.64404   0.00000  Uiso   1.00
C1162  C     0.64710   0.07620   0.61589   0.00000  Uiso   1.00
C1163  C     0.67624   0.06080   0.59601   0.00000  Uiso   1.00
C1164  C     0.72703   0.06431   0.89632   0.00000  Uiso   1.00
C1165  C     0.75189   0.43373   0.97975   0.00000  Uiso   1.00
C1166  C     0.74733   0.08263   0.86783   0.00000  Uiso   1.00
C1167  C     0.73256   0.11229   0.84789   0.00000  Uiso   1.00
C1168  C     0.69736   0.12380   0.85602   0.00000  Uiso   1.00
C1169  C     0.67696   0.10565   0.88419   0.00000  Uiso   1.00
C1170  C     0.69165   0.07599   0.90424   0.00000  Uiso   1.00
C1171  C     0.72355   0.43730   0.10374   0.00000  Uiso   1.00
C1172  C     0.74198   0.41850   0.13359   0.00000  Uiso   1.00
C1173  C     0.72470   0.39096   0.15452   0.00000  Uiso   1.00
C1174  C     0.68904   0.38177   0.14572   0.00000  Uiso   1.00
C1175  C     0.67061   0.40018   0.11604   0.00000  Uiso   1.00
C1176  C     0.75323   0.06661   0.02060   0.00000  Uiso   1.00
C1177  C     0.68768   0.42787   0.09520   0.00000  Uiso   1.00
C1178  C     0.93615   0.23152   0.89527   0.00000  Uiso   1.00
C1179  C     0.91886   0.25363   0.86734   0.00000  Uiso   1.00
C1180  C     0.89110   0.23956   0.84420   0.00000  Uiso   1.00
C1181  C     0.88058   0.20335   0.84856   0.00000  Uiso   1.00
C1182  C     0.89764   0.18127   0.87627   0.00000  Uiso   1.00
C1183  C     0.92519   0.19528   0.89968   0.00000  Uiso   1.00
C1184  C     0.56424   0.22707   0.10367   0.00000  Uiso   1.00
C1185  C     0.58237   0.24766   0.13209   0.00000  Uiso   1.00
C1186  C     0.61187   0.23292   0.15202   0.00000  Uiso   1.00
C1187  C     0.56699   0.24935   0.97923   0.00000  Uiso   1.00
C1188  C     0.62313   0.19734   0.14429   0.00000  Uiso   1.00
C1189  C     0.60500   0.17661   0.11631   0.00000  Uiso   1.00
C1190  C     0.57570   0.19138   0.09601   0.00000  Uiso   1.00
C1191  C     0.77616   0.43754   0.89671   0.00000  Uiso   1.00
C1192  C     0.75681   0.41770   0.86867   0.00000  Uiso   1.00
C1193  C     0.77359   0.38948   0.84832   0.00000  Uiso   1.00
C1194  C     0.80988   0.38112   0.85534   0.00000  Uiso   1.00
C1195  C     0.82942   0.40101   0.88287   0.00000  Uiso   1.00
C1196  C     0.81262   0.42903   0.90365   0.00000  Uiso   1.00
C1197  C     0.77652   0.06238   0.10394   0.00000  Uiso   1.00
C1198  C     0.93472   0.25277   0.01982   0.00000  Uiso   1.00
C1199  C     0.75833   0.08163   0.13355   0.00000  Uiso   1.00
C1200  C     0.77606   0.10900   0.15433   0.00000  Uiso   1.00
C1201  C     0.81189   0.11752   0.14559   0.00000  Uiso   1.00
C1202  C     0.83002   0.09859   0.11613   0.00000  Uiso   1.00
C1203  C     0.81254   0.07108   0.09550   0.00000  Uiso   1.00
C1204  C     0.56482   0.27092   0.89544   0.00000  Uiso   1.00
C1205  C     0.58212   0.25061   0.86606   0.00000  Uiso   1.00
C1206  C     0.61030   0.26587   0.84450   0.00000  Uiso   1.00
C1207  C     0.62148   0.30140   0.85213   0.00000  Uiso   1.00
C1208  C     0.60457   0.32164   0.88143   0.00000  Uiso   1.00
C1209  C     0.74984   0.06679   0.97987   0.00000  Uiso   1.00
C1210  C     0.57633   0.30657   0.90294   0.00000  Uiso   1.00
C1211  C     0.93791   0.27424   0.10297   0.00000  Uiso   1.00
C1212  C     0.91865   0.25395   0.13057   0.00000  Uiso   1.00
C1213  C     0.89015   0.26982   0.15088   0.00000  Uiso   1.00
C1214  C     0.88075   0.30615   0.14404   0.00000  Uiso   1.00
C1215  C     0.89954   0.32634   0.11618   0.00000  Uiso   1.00
C1216  C     0.92814   0.31053   0.09578   0.00000  Uiso   1.00
C1217  C     0.74747   0.43367   0.02038   0.00000  Uiso   1.00
C1218  C     0.93472   0.25285   0.97906   0.00000  Uiso   1.00
C1219  C     0.78071   0.48957   0.58136   0.00000  Uiso   1.00
C1220  C     0.56701   0.24886   0.02003   0.00000  Uiso   1.00
C1221  C     0.75018   0.00009   0.35550   0.00000  Uiso   1.00
C1222  C     0.75028   0.49993   0.64429   0.00000  Uiso   1.00
C1223  C     0.50006   0.24935   0.35553   0.00000  Uiso   1.00
C1224  C     0.99996   0.24982   0.64446   0.00000  Uiso   1.00
C1225  C     0.50046   0.25001   0.85549   0.00000  Uiso   1.00
C1226  C     0.50039   0.24999   0.14431   0.00000  Uiso   1.00
C1227  C     0.75004   0.00013   0.85559   0.00000  Uiso   1.00
C1228  C     0.74996   0.49993   0.14448   0.00000  Uiso   1.00
C1229  C     0.68015   0.07031   0.24975   0.00000  Uiso   1.00
C1230  C     0.50786   0.21629   0.41790   0.00000  Uiso   1.00
C1231  C     0.82044   0.43044   0.74924   0.00000  Uiso   1.00
C1232  C     0.93023   0.17968   0.25032   0.00000  Uiso   1.00
C1233  C     0.56979   0.32039   0.74964   0.00000  Uiso   1.00
C1234  C     0.82004   0.42992   0.25006   0.00000  Uiso   1.00
C1235  C     0.68001   0.07005   0.74994   0.00000  Uiso   1.00
C1236  C     0.57002   0.32009   0.25002   0.00000  Uiso   1.00
C1237  C     0.92975   0.18008   0.75036   0.00000  Uiso   1.00
C1238  C     0.67993   0.43001   0.74982   0.00000  Uiso   1.00
C1239  C     0.82036   0.06983   0.25041   0.00000  Uiso   1.00
C1240  C     0.93051   0.32075   0.74917   0.00000  Uiso   1.00
C1241  C     0.50733   0.28143   0.58179   0.00000  Uiso   1.00
C1242  C     0.56990   0.17990   0.25006   0.00000  Uiso   1.00
C1243  C     0.81990   0.07021   0.75024   0.00000  Uiso   1.00
C1244  C     0.68002   0.42981   0.24993   0.00000  Uiso   1.00
C1245  C     0.57009   0.17998   0.75013   0.00000  Uiso   1.00
C1246  C     0.93006   0.32009   0.25005   0.00000  Uiso   1.00
C1247  C     0.62322   0.40357   0.22280   0.00000  Uiso   1.00
C1248  C     0.87605   0.09694   0.77862   0.00000  Uiso   1.00
C1249  C     0.59243   0.11873   0.23023   0.00000  Uiso   1.00
C1250  C     0.90965   0.38420   0.76582   0.00000  Uiso   1.00
C1251  C     0.87774   0.09560   0.22397   0.00000  Uiso   1.00
C1252  C     0.78284   0.00603   0.41757   0.00000  Uiso   1.00
C1253  C     0.62292   0.40431   0.77625   0.00000  Uiso   1.00
C1254  C     0.90818   0.38189   0.23181   0.00000  Uiso   1.00
C1255  C     0.59484   0.12095   0.77422   0.00000  Uiso   1.00
C1256  C     0.61914   0.09233   0.77000   0.00000  Uiso   1.00
C1257  C     0.87956   0.40610   0.22715   0.00000  Uiso   1.00
C1258  C     0.59484   0.37916   0.77436   0.00000  Uiso   1.00
C1259  C     0.90428   0.12245   0.22376   0.00000  Uiso   1.00
C1260  C     0.88535   0.41303   0.76045   0.00000  Uiso   1.00
C1261  C     0.62107   0.09455   0.22603   0.00000  Uiso   1.00
C1262  C     0.90318   0.12330   0.77810   0.00000  Uiso   1.00
C1263  C     0.71757   0.00873   0.58190   0.00000  Uiso   1.00
C1264  C     0.59633   0.37702   0.22295   0.00000  Uiso   1.00
C1265  C     0.87163   0.15505   0.72527   0.00000  Uiso   1.00
C1266  C     0.62707   0.34593   0.27692   0.00000  Uiso   1.00
C1267  C     0.84444   0.37079   0.72752   0.00000  Uiso   1.00
C1268  C     0.65679   0.13081   0.27155   0.00000  Uiso   1.00
C1269  C     0.62556   0.34761   0.72113   0.00000  Uiso   1.00
C1270  C     0.87578   0.15138   0.28037   0.00000  Uiso   1.00
C1271  C     0.65769   0.13144   0.73016   0.00000  Uiso   1.00
C1272  C     0.84407   0.37014   0.27289   0.00000  Uiso   1.00
C1273  C     0.86816   0.34140   0.26796   0.00000  Uiso   1.00
C1274  C     0.74227   0.03269   0.91807   0.00000  Uiso   1.00
C1275  C     0.62915   0.15584   0.72634   0.00000  Uiso   1.00
C1276  C     0.84889   0.12446   0.28046   0.00000  Uiso   1.00
C1277  C     0.65203   0.37465   0.72068   0.00000  Uiso   1.00
C1278  C     0.63149   0.15875   0.26837   0.00000  Uiso   1.00
C1279  C     0.87281   0.34621   0.72343   0.00000  Uiso   1.00
C1280  C     0.65403   0.37240   0.27663   0.00000  Uiso   1.00
C1281  C     0.84540   0.12798   0.72467   0.00000  Uiso   1.00
C1282  C     0.50261   0.21530   0.45883   0.00000  Uiso   1.00
C1283  C     0.50245   0.28222   0.54098   0.00000  Uiso   1.00
C1284  C     0.78320   0.00241   0.45863   0.00000  Uiso   1.00
H1285  H     0.95550   0.13963   0.42518   0.00000  Uiso   1.00
H1286  H     0.97629   0.40125   0.58610   0.00000  Uiso   1.00
H1287  H     0.92140   0.30769   0.94099   0.00000  Uiso   1.00
H1288  H     0.85402   0.29887   0.99370   0.00000  Uiso   1.00
H1289  H     0.89676   0.31877   0.00722   0.00000  Uiso   1.00
H1290  H     0.88700   0.36741   0.95591   0.00000  Uiso   1.00
H1291  H     0.85347   0.36739   0.99392   0.00000  Uiso   1.00
H1292  H     0.84264   0.34855   0.94674   0.00000  Uiso   1.00
H1293  H     0.62646   0.28415   0.07627   0.00000  Uiso   1.00
H1294  H     0.58352   0.30092   0.06104   0.00000  Uiso   1.00
H1295  H     0.65003   0.29198   0.00710   0.00000  Uiso   1.00
H1296  H     0.60748   0.31298   0.99431   0.00000  Uiso   1.00
H1297  H     0.98271   0.41780   0.53706   0.00000  Uiso   1.00
H1298  H     0.61739   0.35989   0.04695   0.00000  Uiso   1.00
H1299  H     0.65163   0.36025   0.00974   0.00000  Uiso   1.00
H1300  H     0.66132   0.33985   0.05651   0.00000  Uiso   1.00
H1301  H     0.61168   0.48181   0.21199   0.00000  Uiso   1.00
H1302  H     0.57736   0.44973   0.22491   0.00000  Uiso   1.00
H1303  H     0.59592   0.47383   0.14096   0.00000  Uiso   1.00
H1304  H     0.56172   0.44215   0.15424   0.00000  Uiso   1.00
H1305  H     0.53011   0.48901   0.19372   0.00000  Uiso   1.00
H1306  H     0.53481   0.00253   0.14323   0.00000  Uiso   1.00
H1307  H     0.56374   0.02195   0.17999   0.00000  Uiso   1.00
H1308  H     0.91682   0.42068   0.52631   0.00000  Uiso   1.00
H1309  H     0.83642   0.08251   0.83631   0.00000  Uiso   1.00
H1310  H     0.88070   0.09289   0.85585   0.00000  Uiso   1.00
H1311  H     0.84983   0.01578   0.84441   0.00000  Uiso   1.00
H1312  H     0.89303   0.02644   0.86474   0.00000  Uiso   1.00
H1313  H     0.86126   0.06203   0.91869   0.00000  Uiso   1.00
H1314  H     0.85140   0.01400   0.91797   0.00000  Uiso   1.00
H1315  H     0.81884   0.04568   0.89913   0.00000  Uiso   1.00
H1316  H     0.50937   0.11746   0.23813   0.00000  Uiso   1.00
H1317  H     0.54350   0.10698   0.27343   0.00000  Uiso   1.00
H1318  H     0.51237   0.05571   0.21123   0.00000  Uiso   1.00
H1319  H     0.92802   0.44466   0.57060   0.00000  Uiso   1.00
H1320  H     0.54835   0.04387   0.24481   0.00000  Uiso   1.00
H1321  H     0.50801   0.05372   0.30128   0.00000  Uiso   1.00
H1322  H     0.98724   0.02254   0.26746   0.00000  Uiso   1.00
H1323  H     0.97204   0.06913   0.26946   0.00000  Uiso   1.00
H1324  H     0.91942   0.35394   0.83047   0.00000  Uiso   1.00
H1325  H     0.91191   0.40198   0.83964   0.00000  Uiso   1.00
H1326  H     0.98726   0.36617   0.83776   0.00000  Uiso   1.00
H1327  H     0.97566   0.41147   0.85368   0.00000  Uiso   1.00
H1328  H     0.93821   0.38408   0.90804   0.00000  Uiso   1.00
H1329  H     0.98532   0.37136   0.91053   0.00000  Uiso   1.00
H1330  H     0.90867   0.39973   0.57320   0.00000  Uiso   1.00
H1331  H     0.95282   0.33936   0.89214   0.00000  Uiso   1.00
H1332  H     0.88944   0.01747   0.21266   0.00000  Uiso   1.00
H1333  H     0.92375   0.04954   0.22590   0.00000  Uiso   1.00
H1334  H     0.90505   0.02662   0.14155   0.00000  Uiso   1.00
H1335  H     0.93951   0.05779   0.15561   0.00000  Uiso   1.00
H1336  H     0.97105   0.01027   0.19363   0.00000  Uiso   1.00
H1337  H     0.96540   0.49683   0.14330   0.00000  Uiso   1.00
H1338  H     0.93700   0.47764   0.18069   0.00000  Uiso   1.00
H1339  H     0.66200   0.41658   0.83612   0.00000  Uiso   1.00
H1340  H     0.61717   0.40302   0.85175   0.00000  Uiso   1.00
H1341  H     0.84747   0.45167   0.43327   0.00000  Uiso   1.00
H1342  H     0.64263   0.48257   0.84850   0.00000  Uiso   1.00
H1343  H     0.60139   0.46536   0.86913   0.00000  Uiso   1.00
H1344  H     0.63957   0.42904   0.91793   0.00000  Uiso   1.00
H1345  H     0.64417   0.47777   0.92193   0.00000  Uiso   1.00
H1346  H     0.67898   0.45178   0.89829   0.00000  Uiso   1.00
H1347  H     0.98121   0.37819   0.25909   0.00000  Uiso   1.00
H1348  H     0.94793   0.40985   0.27750   0.00000  Uiso   1.00
H1349  H     0.50356   0.42731   0.21369   0.00000  Uiso   1.00
H1350  H     0.97104   0.45786   0.23551   0.00000  Uiso   1.00
H1351  H     0.99951   0.44688   0.30154   0.00000  Uiso   1.00
H1352  H     0.86211   0.44922   0.48364   0.00000  Uiso   1.00
H1353  H     0.52985   0.46698   0.26684   0.00000  Uiso   1.00
H1354  H     0.53365   0.41912   0.27803   0.00000  Uiso   1.00
H1355  H     0.58651   0.15882   0.83498   0.00000  Uiso   1.00
H1356  H     0.60001   0.11295   0.84840   0.00000  Uiso   1.00
H1357  H     0.52188   0.14137   0.85259   0.00000  Uiso   1.00
H1358  H     0.53957   0.09874   0.87090   0.00000  Uiso   1.00
H1359  H     0.58002   0.13417   0.91698   0.00000  Uiso   1.00
H1360  H     0.53232   0.14064   0.92540   0.00000  Uiso   1.00
H1361  H     0.55750   0.17535   0.90078   0.00000  Uiso   1.00
H1362  H     0.61015   0.00677   0.76560   0.00000  Uiso   1.00
H1363  H     0.90468   0.48836   0.41902   0.00000  Uiso   1.00
H1364  H     0.61320   0.04012   0.72826   0.00000  Uiso   1.00
H1365  H     0.54790   0.01770   0.77757   0.00000  Uiso   1.00
H1366  H     0.54792   0.06078   0.75209   0.00000  Uiso   1.00
H1367  H     0.55754   0.02973   0.68906   0.00000  Uiso   1.00
H1368  H     0.51862   0.01153   0.71350   0.00000  Uiso   1.00
H1369  H     0.56067   0.48619   0.71349   0.00000  Uiso   1.00
H1370  H     0.84128   0.41488   0.16748   0.00000  Uiso   1.00
H1371  H     0.88656   0.40239   0.15239   0.00000  Uiso   1.00
H1372  H     0.85936   0.48133   0.15197   0.00000  Uiso   1.00
H1373  H     0.89893   0.46226   0.12849   0.00000  Uiso   1.00
H1374  H     0.91902   0.47889   0.46835   0.00000  Uiso   1.00
H1375  H     0.85743   0.42433   0.08592   0.00000  Uiso   1.00
H1376  H     0.85277   0.47285   0.07924   0.00000  Uiso   1.00
H1377  H     0.81966   0.44880   0.10730   0.00000  Uiso   1.00
H1378  H     0.55823   0.43614   0.77312   0.00000  Uiso   1.00
H1379  H     0.52562   0.42185   0.80778   0.00000  Uiso   1.00
H1380  H     0.53542   0.38771   0.72617   0.00000  Uiso   1.00
H1381  H     0.50193   0.37548   0.76178   0.00000  Uiso   1.00
H1382  H     0.98164   0.44262   0.75992   0.00000  Uiso   1.00
H1383  H     0.97227   0.41535   0.71732   0.00000  Uiso   1.00
H1384  H     0.50943   0.44672   0.71663   0.00000  Uiso   1.00
H1385  H     0.91514   0.41158   0.45392   0.00000  Uiso   1.00
H1386  H     0.91659   0.16216   0.16537   0.00000  Uiso   1.00
H1387  H     0.90721   0.11722   0.14644   0.00000  Uiso   1.00
H1388  H     0.98278   0.15104   0.15574   0.00000  Uiso   1.00
H1389  H     0.97369   0.10658   0.13714   0.00000  Uiso   1.00
H1390  H     0.93674   0.13475   0.08250   0.00000  Uiso   1.00
H1391  H     0.98355   0.14833   0.08257   0.00000  Uiso   1.00
H1392  H     0.94972   0.17911   0.10045   0.00000  Uiso   1.00
H1393  H     0.87642   0.49811   0.76332   0.00000  Uiso   1.00
H1394  H     0.87458   0.46854   0.72208   0.00000  Uiso   1.00
H1395  H     0.94491   0.49465   0.76050   0.00000  Uiso   1.00
H1396  H     0.94323   0.14983   0.47484   0.00000  Uiso   1.00
H1397  H     0.94617   0.43487   0.42201   0.00000  Uiso   1.00
H1398  H     0.93966   0.47047   0.71459   0.00000  Uiso   1.00
H1399  H     0.90806   0.02289   0.68528   0.00000  Uiso   1.00
H1400  H     0.95053   0.03712   0.70560   0.00000  Uiso   1.00
H1401  H     0.90904   0.04671   0.73096   0.00000  Uiso   1.00
H1402  H     0.65988   0.08538   0.16670   0.00000  Uiso   1.00
H1403  H     0.61481   0.09844   0.15117   0.00000  Uiso   1.00
H1404  H     0.64158   0.01930   0.15092   0.00000  Uiso   1.00
H1405  H     0.60180   0.03834   0.12774   0.00000  Uiso   1.00
H1406  H     0.64284   0.07622   0.08470   0.00000  Uiso   1.00
H1407  H     0.64771   0.02770   0.07820   0.00000  Uiso   1.00
H1408  H     0.90194   0.42264   0.40434   0.00000  Uiso   1.00
H1409  H     0.68091   0.05204   0.10594   0.00000  Uiso   1.00
H1410  H     0.98068   0.10949   0.78735   0.00000  Uiso   1.00
H1411  H     0.94775   0.07544   0.77605   0.00000  Uiso   1.00
H1412  H     0.97437   0.09536   0.85866   0.00000  Uiso   1.00
H1413  H     0.94113   0.06186   0.84752   0.00000  Uiso   1.00
H1414  H     0.98575   0.02669   0.80805   0.00000  Uiso   1.00
H1415  H     0.50074   0.03306   0.85773   0.00000  Uiso   1.00
H1416  H     0.51974   0.06039   0.81928   0.00000  Uiso   1.00
H1417  H     0.57993   0.33817   0.16513   0.00000  Uiso   1.00
H1418  H     0.58958   0.38277   0.14559   0.00000  Uiso   1.00
H1419  H     0.64994   0.44735   0.53115   0.00000  Uiso   1.00
H1420  H     0.51324   0.35234   0.16071   0.00000  Uiso   1.00
H1421  H     0.52341   0.39561   0.13960   0.00000  Uiso   1.00
H1422  H     0.55578   0.36318   0.08410   0.00000  Uiso   1.00
H1423  H     0.50824   0.35304   0.08756   0.00000  Uiso   1.00
H1424  H     0.54072   0.32055   0.10504   0.00000  Uiso   1.00
H1425  H     0.86046   0.23487   0.71790   0.00000  Uiso   1.00
H1426  H     0.82938   0.20273   0.73810   0.00000  Uiso   1.00
H1427  H     0.83272   0.22212   0.65048   0.00000  Uiso   1.00
H1428  H     0.79925   0.19513   0.67461   0.00000  Uiso   1.00
H1429  H     0.77928   0.24789   0.71380   0.00000  Uiso   1.00
H1430  H     0.61805   0.47380   0.50263   0.00000  Uiso   1.00
H1431  H     0.77785   0.25820   0.66206   0.00000  Uiso   1.00
H1432  H     0.81344   0.27585   0.69198   0.00000  Uiso   1.00
H1433  H     0.58790   0.33223   0.33505   0.00000  Uiso   1.00
H1434  H     0.63245   0.34178   0.35437   0.00000  Uiso   1.00
H1435  H     0.60078   0.26500   0.34223   0.00000  Uiso   1.00
H1436  H     0.64360   0.27531   0.36372   0.00000  Uiso   1.00
H1437  H     0.61130   0.31035   0.41724   0.00000  Uiso   1.00
H1438  H     0.60004   0.26265   0.41543   0.00000  Uiso   1.00
H1439  H     0.56890   0.29558   0.39615   0.00000  Uiso   1.00
H1440  H     0.79445   0.35799   0.77437   0.00000  Uiso   1.00
H1441  H     0.61597   0.46007   0.59113   0.00000  Uiso   1.00
H1442  H     0.81055   0.31562   0.75363   0.00000  Uiso   1.00
H1443  H     0.73987   0.35523   0.73216   0.00000  Uiso   1.00
H1444  H     0.75574   0.31332   0.71148   0.00000  Uiso   1.00
H1445  H     0.75948   0.29277   0.78790   0.00000  Uiso   1.00
H1446  H     0.71795   0.29081   0.76147   0.00000  Uiso   1.00
H1447  H     0.72658   0.32870   0.79324   0.00000  Uiso   1.00
H1448  H     0.69061   0.10544   0.34462   0.00000  Uiso   1.00
H1449  H     0.64847   0.12933   0.34044   0.00000  Uiso   1.00
H1450  H     0.72309   0.16351   0.35506   0.00000  Uiso   1.00
H1451  H     0.68205   0.18884   0.34796   0.00000  Uiso   1.00
H1452  H     0.58635   0.49103   0.56567   0.00000  Uiso   1.00
H1453  H     0.65511   0.16028   0.40655   0.00000  Uiso   1.00
H1454  H     0.69782   0.18059   0.41862   0.00000  Uiso   1.00
H1455  H     0.69481   0.13192   0.41298   0.00000  Uiso   1.00
H1456  H     0.63764   0.26968   0.71012   0.00000  Uiso   1.00
H1457  H     0.67166   0.30229   0.72246   0.00000  Uiso   1.00
H1458  H     0.65266   0.27808   0.63883   0.00000  Uiso   1.00
H1459  H     0.68700   0.30993   0.65227   0.00000  Uiso   1.00
H1460  H     0.71863   0.26272   0.69141   0.00000  Uiso   1.00
H1461  H     0.71335   0.24878   0.64107   0.00000  Uiso   1.00
H1462  H     0.68480   0.22999   0.67860   0.00000  Uiso   1.00
H1463  H     0.56297   0.44038   0.52476   0.00000  Uiso   1.00
H1464  H     0.91821   0.16564   0.33746   0.00000  Uiso   1.00
H1465  H     0.87535   0.14979   0.35607   0.00000  Uiso   1.00
H1466  H     0.89957   0.22982   0.35306   0.00000  Uiso   1.00
H1467  H     0.85712   0.21351   0.37131   0.00000  Uiso   1.00
H1468  H     0.89119   0.17625   0.42202   0.00000  Uiso   1.00
H1469  H     0.89772   0.22470   0.42630   0.00000  Uiso   1.00
H1470  H     0.93252   0.19714   0.40497   0.00000  Uiso   1.00
H1471  H     0.74247   0.13590   0.73192   0.00000  Uiso   1.00
H1472  H     0.71029   0.13781   0.77051   0.00000  Uiso   1.00
H1473  H     0.73337   0.19914   0.71499   0.00000  Uiso   1.00
H1474  H     0.55796   0.43025   0.57591   0.00000  Uiso   1.00
H1475  H     0.69561   0.20339   0.74813   0.00000  Uiso   1.00
H1476  H     0.73578   0.19199   0.80483   0.00000  Uiso   1.00
H1477  H     0.75286   0.22898   0.77599   0.00000  Uiso   1.00
H1478  H     0.77389   0.18483   0.77260   0.00000  Uiso   1.00
H1479  H     0.83387   0.40761   0.33394   0.00000  Uiso   1.00
H1480  H     0.84882   0.36211   0.34661   0.00000  Uiso   1.00
H1481  H     0.76951   0.38660   0.35059   0.00000  Uiso   1.00
H1482  H     0.78976   0.34544   0.36983   0.00000  Uiso   1.00
H1483  H     0.82824   0.38521   0.41463   0.00000  Uiso   1.00
H1484  H     0.78028   0.38611   0.42395   0.00000  Uiso   1.00
H1485  H     0.59376   0.40890   0.54832   0.00000  Uiso   1.00
H1486  H     0.80073   0.42340   0.39869   0.00000  Uiso   1.00
H1487  H     0.85139   0.25566   0.26301   0.00000  Uiso   1.00
H1488  H     0.86894   0.28573   0.22727   0.00000  Uiso   1.00
H1489  H     0.79173   0.28557   0.26082   0.00000  Uiso   1.00
H1490  H     0.80762   0.31905   0.22677   0.00000  Uiso   1.00
H1491  H     0.81601   0.27347   0.17609   0.00000  Uiso   1.00
H1492  H     0.77231   0.26699   0.19640   0.00000  Uiso   1.00
H1493  H     0.80853   0.23660   0.21004   0.00000  Uiso   1.00
H1494  H     0.59004   0.16455   0.66690   0.00000  Uiso   1.00
H1495  H     0.63510   0.15134   0.65166   0.00000  Uiso   1.00
H1496  H     0.55101   0.34270   0.43755   0.00000  Uiso   1.00
H1497  H     0.60845   0.23048   0.65019   0.00000  Uiso   1.00
H1498  H     0.64816   0.21113   0.62737   0.00000  Uiso   1.00
H1499  H     0.60710   0.17273   0.58484   0.00000  Uiso   1.00
H1500  H     0.60236   0.22116   0.57754   0.00000  Uiso   1.00
H1501  H     0.56909   0.19729   0.60558   0.00000  Uiso   1.00
H1502  H     0.81535   0.17402   0.33352   0.00000  Uiso   1.00
H1503  H     0.77797   0.14529   0.33225   0.00000  Uiso   1.00
H1504  H     0.80894   0.17499   0.25489   0.00000  Uiso   1.00
H1505  H     0.76654   0.15269   0.26361   0.00000  Uiso   1.00
H1506  H     0.74774   0.20520   0.30562   0.00000  Uiso   1.00
H1507  H     0.98469   0.08109   0.44873   0.00000  Uiso   1.00
H1508  H     0.54873   0.36204   0.48614   0.00000  Uiso   1.00
H1509  H     0.76139   0.22031   0.25755   0.00000  Uiso   1.00
H1510  H     0.79133   0.22610   0.29833   0.00000  Uiso   1.00
H1511  H     0.65845   0.41578   0.66256   0.00000  Uiso   1.00
H1512  H     0.64872   0.37065   0.64409   0.00000  Uiso   1.00
H1513  H     0.72280   0.40815   0.64452   0.00000  Uiso   1.00
H1514  H     0.71484   0.36255   0.62840   0.00000  Uiso   1.00
H1515  H     0.67262   0.38530   0.57675   0.00000  Uiso   1.00
H1516  H     0.71687   0.40534   0.57239   0.00000  Uiso   1.00
H1517  H     0.68032   0.43142   0.59277   0.00000  Uiso   1.00
H1518  H     0.62993   0.24343   0.26556   0.00000  Uiso   1.00
H1519  H     0.52046   0.39900   0.41134   0.00000  Uiso   1.00
H1520  H     0.63696   0.21103   0.22731   0.00000  Uiso   1.00
H1521  H     0.69300   0.23807   0.28641   0.00000  Uiso   1.00
H1522  H     0.70120   0.20428   0.24893   0.00000  Uiso   1.00
H1523  H     0.69077   0.24804   0.19701   0.00000  Uiso   1.00
H1524  H     0.71982   0.27006   0.23203   0.00000  Uiso   1.00
H1525  H     0.67264   0.28147   0.23046   0.00000  Uiso   1.00
H1526  H     0.91006   0.33058   0.66424   0.00000  Uiso   1.00
H1527  H     0.86518   0.34419   0.64888   0.00000  Uiso   1.00
H1528  H     0.88982   0.26449   0.65424   0.00000  Uiso   1.00
H1529  H     0.84888   0.28251   0.63276   0.00000  Uiso   1.00
H1530  H     0.52050   0.41787   0.45990   0.00000  Uiso   1.00
H1531  H     0.88639   0.31608   0.58306   0.00000  Uiso   1.00
H1532  H     0.89197   0.26732   0.58105   0.00000  Uiso   1.00
H1533  H     0.92638   0.29465   0.60337   0.00000  Uiso   1.00
H1534  H     0.73216   0.35984   0.28691   0.00000  Uiso   1.00
H1535  H     0.69988   0.32631   0.27221   0.00000  Uiso   1.00
H1536  H     0.72292   0.34161   0.35734   0.00000  Uiso   1.00
H1537  H     0.69169   0.30768   0.34171   0.00000  Uiso   1.00
H1538  H     0.73932   0.27719   0.30246   0.00000  Uiso   1.00
H1539  H     0.75165   0.28040   0.35326   0.00000  Uiso   1.00
H1540  H     0.77150   0.31073   0.31798   0.00000  Uiso   1.00
H1541  H     0.58826   0.41403   0.46139   0.00000  Uiso   1.00
H1542  H     0.83386   0.08908   0.66604   0.00000  Uiso   1.00
H1543  H     0.84275   0.13443   0.64769   0.00000  Uiso   1.00
H1544  H     0.76622   0.10355   0.65773   0.00000  Uiso   1.00
H1545  H     0.77913   0.14472   0.63322   0.00000  Uiso   1.00
H1546  H     0.81400   0.10726   0.58400   0.00000  Uiso   1.00
H1547  H     0.76647   0.09637   0.58522   0.00000  Uiso   1.00
H1548  H     0.79849   0.06651   0.60852   0.00000  Uiso   1.00
H1549  H     0.52279   0.32621   0.36270   0.00000  Uiso   1.00
H1550  H     0.99302   0.37689   0.32836   0.00000  Uiso   1.00
H1551  H     0.92865   0.39158   0.34170   0.00000  Uiso   1.00
H1552  H     0.57230   0.44077   0.42063   0.00000  Uiso   1.00
H1553  H     0.89484   0.35595   0.39100   0.00000  Uiso   1.00
H1554  H     0.92422   0.30534   0.42572   0.00000  Uiso   1.00
H1555  H     0.52022   0.17519   0.64190   0.00000  Uiso   1.00
H1556  H     0.98946   0.12772   0.68006   0.00000  Uiso   1.00
H1557  H     0.92618   0.11110   0.66479   0.00000  Uiso   1.00
H1558  H     0.89379   0.14237   0.61079   0.00000  Uiso   1.00
H1559  H     0.92355   0.19069   0.57325   0.00000  Uiso   1.00
H1560  H     0.67779   0.04215   0.36880   0.00000  Uiso   1.00
H1561  H     0.62754   0.02421   0.32545   0.00000  Uiso   1.00
H1562  H     0.60619   0.46037   0.32477   0.00000  Uiso   1.00
H1563  H     0.58785   0.39479   0.41277   0.00000  Uiso   1.00
H1564  H     0.63493   0.41461   0.36800   0.00000  Uiso   1.00
H1565  H     0.68452   0.43235   0.41236   0.00000  Uiso   1.00
H1566  H     0.83417   0.01143   0.63190   0.00000  Uiso   1.00
H1567  H     0.88361   0.47296   0.65774   0.00000  Uiso   1.00
H1568  H     0.88482   0.40712   0.64515   0.00000  Uiso   1.00
H1569  H     0.83810   0.37946   0.60213   0.00000  Uiso   1.00
H1570  H     0.79026   0.41756   0.57355   0.00000  Uiso   1.00
H1571  H     0.97570   0.17640   0.35991   0.00000  Uiso   1.00
H1572  H     0.50049   0.12328   0.32550   0.00000  Uiso   1.00
H1573  H     0.56219   0.10079   0.34123   0.00000  Uiso   1.00
H1574  H     0.54220   0.15328   0.56643   0.00000  Uiso   1.00
H1575  H     0.59868   0.13191   0.39140   0.00000  Uiso   1.00
H1576  H     0.57395   0.18502   0.42680   0.00000  Uiso   1.00
H1577  H     0.97358   0.32457   0.63603   0.00000  Uiso   1.00
H1578  H     0.99816   0.37857   0.66838   0.00000  Uiso   1.00
H1579  H     0.56084   0.39873   0.65479   0.00000  Uiso   1.00
H1580  H     0.59828   0.36466   0.60712   0.00000  Uiso   1.00
H1581  H     0.57422   0.31015   0.57462   0.00000  Uiso   1.00
H1582  H     0.82201   0.47016   0.36071   0.00000  Uiso   1.00
H1583  H     0.87312   0.49397   0.32274   0.00000  Uiso   1.00
H1584  H     0.89565   0.05637   0.33486   0.00000  Uiso   1.00
H1585  H     0.54241   0.13052   0.51950   0.00000  Uiso   1.00
H1586  H     0.86678   0.09468   0.38564   0.00000  Uiso   1.00
H1587  H     0.81526   0.07161   0.42347   0.00000  Uiso   1.00
H1588  H     0.67609   0.47716   0.63892   0.00000  Uiso   1.00
H1589  H     0.62450   0.00429   0.67329   0.00000  Uiso   1.00
H1590  H     0.60609   0.06814   0.65946   0.00000  Uiso   1.00
H1591  H     0.63867   0.10360   0.60901   0.00000  Uiso   1.00
H1592  H     0.69042   0.07674   0.57434   0.00000  Uiso   1.00
H1593  H     0.77460   0.07417   0.86121   0.00000  Uiso   1.00
H1594  H     0.74858   0.12641   0.82634   0.00000  Uiso   1.00
H1595  H     0.68594   0.14686   0.84065   0.00000  Uiso   1.00
H1596  H     0.50297   0.10034   0.59154   0.00000  Uiso   1.00
H1597  H     0.64990   0.11478   0.89086   0.00000  Uiso   1.00
H1598  H     0.67557   0.06220   0.92606   0.00000  Uiso   1.00
H1599  H     0.76959   0.42519   0.14080   0.00000  Uiso   1.00
H1600  H     0.73896   0.37673   0.17756   0.00000  Uiso   1.00
H1601  H     0.67566   0.36046   0.16195   0.00000  Uiso   1.00
H1602  H     0.64303   0.39309   0.10920   0.00000  Uiso   1.00
H1603  H     0.67292   0.44216   0.07254   0.00000  Uiso   1.00
H1604  H     0.92715   0.28156   0.86326   0.00000  Uiso   1.00
H1605  H     0.87802   0.25663   0.82261   0.00000  Uiso   1.00
H1606  H     0.85935   0.19234   0.83037   0.00000  Uiso   1.00
H1607  H     0.51245   0.07759   0.54623   0.00000  Uiso   1.00
H1608  H     0.88978   0.15318   0.87942   0.00000  Uiso   1.00
H1609  H     0.93860   0.17769   0.92057   0.00000  Uiso   1.00
H1610  H     0.57407   0.27523   0.13837   0.00000  Uiso   1.00
H1611  H     0.62600   0.24928   0.17328   0.00000  Uiso   1.00
H1612  H     0.64599   0.18590   0.15977   0.00000  Uiso   1.00
H1613  H     0.61382   0.14922   0.10997   0.00000  Uiso   1.00
H1614  H     0.56195   0.17507   0.07431   0.00000  Uiso   1.00
H1615  H     0.72876   0.42390   0.86275   0.00000  Uiso   1.00
H1616  H     0.75829   0.37411   0.82724   0.00000  Uiso   1.00
H1617  H     0.82289   0.35924   0.83952   0.00000  Uiso   1.00
H1618  H     0.96843   0.09123   0.49710   0.00000  Uiso   1.00
H1619  H     0.56856   0.10393   0.60645   0.00000  Uiso   1.00
H1620  H     0.85754   0.39464   0.88818   0.00000  Uiso   1.00
H1621  H     0.82801   0.44427   0.92494   0.00000  Uiso   1.00
H1622  H     0.73061   0.07540   0.14068   0.00000  Uiso   1.00
H1623  H     0.76202   0.12361   0.17720   0.00000  Uiso   1.00
H1624  H     0.82560   0.13874   0.16163   0.00000  Uiso   1.00
H1625  H     0.85763   0.10519   0.10908   0.00000  Uiso   1.00
H1626  H     0.82708   0.05643   0.07300   0.00000  Uiso   1.00
H1627  H     0.57357   0.22323   0.85950   0.00000  Uiso   1.00
H1628  H     0.62334   0.25020   0.82175   0.00000  Uiso   1.00
H1629  H     0.64323   0.31324   0.83536   0.00000  Uiso   1.00
H1630  H     0.57899   0.08180   0.56053   0.00000  Uiso   1.00
H1631  H     0.61328   0.34904   0.88757   0.00000  Uiso   1.00
H1632  H     0.56321   0.32274   0.92526   0.00000  Uiso   1.00
H1633  H     0.92565   0.22594   0.13644   0.00000  Uiso   1.00
H1634  H     0.87547   0.25354   0.17169   0.00000  Uiso   1.00
H1635  H     0.85885   0.31869   0.16004   0.00000  Uiso   1.00
H1636  H     0.89186   0.35412   0.11009   0.00000  Uiso   1.00
H1637  H     0.94265   0.32646   0.07436   0.00000  Uiso   1.00
H1638  H     0.55476   0.05760   0.59802   0.00000  Uiso   1.00
H1639  H     0.62940   0.05598   0.42850   0.00000  Uiso   1.00
H1640  H     0.67353   0.06567   0.44638   0.00000  Uiso   1.00
H1641  H     0.60637   0.05448   0.49920   0.00000  Uiso   1.00
H1642  H     0.64998   0.07149   0.51391   0.00000  Uiso   1.00
H1643  H     0.64108   0.12521   0.46875   0.00000  Uiso   1.00
H1644  H     0.60855   0.12255   0.50766   0.00000  Uiso   1.00
H1645  H     0.59574   0.10901   0.45903   0.00000  Uiso   1.00
H1646  H     0.90453   0.09267   0.47071   0.00000  Uiso   1.00
H1647  H     0.84505   0.04403   0.56807   0.00000  Uiso   1.00
H1648  H     0.86187   0.04587   0.51852   0.00000  Uiso   1.00
H1649  H     0.90159   0.00847   0.58670   0.00000  Uiso   1.00
H1650  H     0.91789   0.01491   0.53764   0.00000  Uiso   1.00
H1651  H     0.89901   0.07513   0.59702   0.00000  Uiso   1.00
H1652  H     0.91433   0.08291   0.54747   0.00000  Uiso   1.00
H1653  H     0.94367   0.06096   0.58246   0.00000  Uiso   1.00
H1654  H     0.70726   0.40318   0.93030   0.00000  Uiso   1.00
H1655  H     0.70353   0.38579   0.97949   0.00000  Uiso   1.00
H1656  H     0.74573   0.34679   0.91437   0.00000  Uiso   1.00
H1657  H     0.92665   0.04931   0.46448   0.00000  Uiso   1.00
H1658  H     0.73454   0.32973   0.96213   0.00000  Uiso   1.00
H1659  H     0.66831   0.33361   0.94440   0.00000  Uiso   1.00
H1660  H     0.69344   0.30434   0.91200   0.00000  Uiso   1.00
H1661  H     0.68094   0.34945   0.89621   0.00000  Uiso   1.00
H1662  H     0.70801   0.09780   0.06873   0.00000  Uiso   1.00
H1663  H     0.70552   0.11575   0.01952   0.00000  Uiso   1.00
H1664  H     0.74572   0.15279   0.08737   0.00000  Uiso   1.00
H1665  H     0.73807   0.17067   0.03902   0.00000  Uiso   1.00
H1666  H     0.67076   0.16889   0.05164   0.00000  Uiso   1.00
H1667  H     0.69459   0.19714   0.08611   0.00000  Uiso   1.00
H1668  H     0.92224   0.07964   0.42338   0.00000  Uiso   1.00
H1669  H     0.68010   0.15234   0.10050   0.00000  Uiso   1.00
H1670  H     0.61031   0.20282   0.92846   0.00000  Uiso   1.00
H1671  H     0.60129   0.19382   0.97922   0.00000  Uiso   1.00
H1672  H     0.66768   0.23540   0.94844   0.00000  Uiso   1.00
H1673  H     0.65875   0.22273   0.99835   0.00000  Uiso   1.00
H1674  H     0.65931   0.15640   0.97780   0.00000  Uiso   1.00
H1675  H     0.70153   0.17931   0.96914   0.00000  Uiso   1.00
H1676  H     0.67127   0.17088   0.92893   0.00000  Uiso   1.00
H1677  H     0.90344   0.20075   0.05845   0.00000  Uiso   1.00
H1678  H     0.88437   0.20704   0.01010   0.00000  Uiso   1.00
H1679  H     0.94823   0.34494   0.56105   0.00000  Uiso   1.00
H1680  H     0.85039   0.23344   0.08715   0.00000  Uiso   1.00
H1681  H     0.83179   0.23977   0.03898   0.00000  Uiso   1.00
H1682  H     0.82758   0.17253   0.03025   0.00000  Uiso   1.00
H1683  H     0.80409   0.18699   0.07373   0.00000  Uiso   1.00
H1684  H     0.84787   0.16575   0.07787   0.00000  Uiso   1.00
H1685  H     0.79690   0.09669   0.93179   0.00000  Uiso   1.00
H1686  H     0.80033   0.11204   0.98186   0.00000  Uiso   1.00
H1687  H     0.76215   0.15492   0.91641   0.00000  Uiso   1.00
H1688  H     0.77086   0.16973   0.96570   0.00000  Uiso   1.00
H1689  H     0.83777   0.16474   0.95306   0.00000  Uiso   1.00
H1690  H     0.95117   0.36208   0.51152   0.00000  Uiso   1.00
H1691  H     0.81565   0.19569   0.91974   0.00000  Uiso   1.00
H1692  H     0.82799   0.15074   0.90340   0.00000  Uiso   1.00
H1693  H     0.79231   0.40399   0.06952   0.00000  Uiso   1.00
H1694  H     0.79592   0.38498   0.02093   0.00000  Uiso   1.00
H1695  H     0.75509   0.34850   0.08860   0.00000  Uiso   1.00
H1696  H     0.76460   0.32975   0.04112   0.00000  Uiso   1.00
H1697  H     0.83126   0.33305   0.05585   0.00000  Uiso   1.00
H1698  H     0.80728   0.30568   0.09092   0.00000  Uiso   1.00
H1699  H     0.82079   0.35122   0.10368   0.00000  Uiso   1.00
H1700  H     0.87810   0.29396   0.92381   0.00000  Uiso   1.00
O1701  O     0.75000   0.00000   0.25000   0.00000  Uiso   1.00
O1702  O     0.75000   0.46964   0.66245   0.00000  Uiso   1.00
O1703  O     0.81566   0.13244   0.70059   0.00000  Uiso   1.00
O1704  O     0.96964   0.25000   0.33755   0.00000  Uiso   1.00
O1705  O     0.53037   0.25000   0.66245   0.00000  Uiso   1.00
O1706  O     0.50000   0.21964   0.83755   0.00000  Uiso   1.00
O1707  O     0.50000   0.28037   0.16245   0.00000  Uiso   1.00
O1708  O     0.78037   0.00000   0.83755   0.00000  Uiso   1.00
O1709  O     0.71964   0.00000   0.16245   0.00000  Uiso   1.00
O1710  O     0.50000   0.28037   0.83755   0.00000  Uiso   1.00
O1711  O     0.50000   0.21964   0.16245   0.00000  Uiso   1.00
O1712  O     0.71964   0.00000   0.83755   0.00000  Uiso   1.00
O1713  O     0.75000   0.00000   0.75000   0.00000  Uiso   1.00
O1714  O     0.78037   0.00000   0.16245   0.00000  Uiso   1.00
O1715  O     0.70725   0.07308   0.27302   0.00000  Uiso   1.00
O1716  O     0.79276   0.42693   0.72698   0.00000  Uiso   1.00
O1717  O     0.92693   0.20725   0.27302   0.00000  Uiso   1.00
O1718  O     0.57308   0.29276   0.72698   0.00000  Uiso   1.00
O1719  O     0.79276   0.42693   0.27302   0.00000  Uiso   1.00
O1720  O     0.70725   0.07308   0.72698   0.00000  Uiso   1.00
O1721  O     0.57308   0.29276   0.27302   0.00000  Uiso   1.00
O1722  O     0.92693   0.20725   0.72698   0.00000  Uiso   1.00
O1723  O     0.70725   0.42693   0.72698   0.00000  Uiso   1.00
O1724  O     0.50000   0.25000   0.25000   0.00000  Uiso   1.00
O1725  O     0.79276   0.07308   0.27302   0.00000  Uiso   1.00
O1726  O     0.92693   0.29276   0.72698   0.00000  Uiso   1.00
O1727  O     0.57308   0.20725   0.27302   0.00000  Uiso   1.00
O1728  O     0.79276   0.07308   0.72698   0.00000  Uiso   1.00
O1729  O     0.70725   0.42693   0.27302   0.00000  Uiso   1.00
O1730  O     0.57308   0.20725   0.72698   0.00000  Uiso   1.00
O1731  O     0.92693   0.29276   0.27302   0.00000  Uiso   1.00
O1732  O     0.95725   0.32308   0.77302   0.00000  Uiso   1.00
O1733  O     0.54276   0.17693   0.22698   0.00000  Uiso   1.00
O1734  O     0.67693   0.45725   0.77302   0.00000  Uiso   1.00
O1735  O     0.50000   0.25000   0.75000   0.00000  Uiso   1.00
O1736  O     0.82308   0.04276   0.22698   0.00000  Uiso   1.00
O1737  O     0.54276   0.17693   0.77302   0.00000  Uiso   1.00
O1738  O     0.95725   0.32308   0.22698   0.00000  Uiso   1.00
O1739  O     0.82308   0.04276   0.77302   0.00000  Uiso   1.00
O1740  O     0.67693   0.45725   0.22698   0.00000  Uiso   1.00
O1741  O     0.95725   0.17693   0.22698   0.00000  Uiso   1.00
O1742  O     0.54276   0.32308   0.77302   0.00000  Uiso   1.00
O1743  O     0.67693   0.04276   0.22698   0.00000  Uiso   1.00
O1744  O     0.82308   0.45725   0.77302   0.00000  Uiso   1.00
O1745  O     0.54276   0.32308   0.22698   0.00000  Uiso   1.00
O1746  O     0.75000   0.46964   0.33755   0.00000  Uiso   1.00
O1747  O     0.95725   0.17693   0.77302   0.00000  Uiso   1.00
O1748  O     0.82308   0.45725   0.22698   0.00000  Uiso   1.00
O1749  O     0.67693   0.04276   0.77302   0.00000  Uiso   1.00
O1750  O     0.99938   0.14900   0.46054   0.00000  Uiso   1.00
O1751  O     0.50019   0.34862   0.53902   0.00000  Uiso   1.00
O1752  O     0.84920   0.00112   0.46169   0.00000  Uiso   1.00
O1753  O     0.65071   0.00397   0.53973   0.00000  Uiso   1.00
O1754  O     0.99937   0.34834   0.45994   0.00000  Uiso   1.00
O1755  O     0.99233   0.14924   0.53929   0.00000  Uiso   1.00
O1756  O     0.65151   0.01408   0.45980   0.00000  Uiso   1.00
O1757  O     0.75000   0.03037   0.66245   0.00000  Uiso   1.00
O1758  O     0.84802   0.49422   0.54017   0.00000  Uiso   1.00
O1759  O     0.75540   0.40059   0.96096   0.00000  Uiso   1.00
O1760  O     0.75677   0.09967   0.03946   0.00000  Uiso   1.00
O1761  O     0.59992   0.24909   0.96010   0.00000  Uiso   1.00
O1762  O     0.90182   0.25410   0.03893   0.00000  Uiso   1.00
O1763  O     0.74821   0.10009   0.96109   0.00000  Uiso   1.00
O1764  O     0.74413   0.40048   0.03910   0.00000  Uiso   1.00
O1765  O     0.90183   0.25669   0.96008   0.00000  Uiso   1.00
O1766  O     0.60019   0.24997   0.03879   0.00000  Uiso   1.00
O1767  O     0.62286   0.42966   0.19357   0.00000  Uiso   1.00
O1768  O     0.53037   0.25000   0.33755   0.00000  Uiso   1.00
O1769  O     0.88069   0.06666   0.80220   0.00000  Uiso   1.00
O1770  O     0.55951   0.10972   0.21354   0.00000  Uiso   1.00
O1771  O     0.93990   0.38981   0.78859   0.00000  Uiso   1.00
O1772  O     0.87795   0.06967   0.19465   0.00000  Uiso   1.00
O1773  O     0.61924   0.43388   0.80095   0.00000  Uiso   1.00
O1774  O     0.94199   0.39225   0.21861   0.00000  Uiso   1.00
O1775  O     0.56632   0.11705   0.79991   0.00000  Uiso   1.00
O1776  O     0.61055   0.05911   0.78674   0.00000  Uiso   1.00
O1777  O     0.88361   0.43506   0.20179   0.00000  Uiso   1.00
O1778  O     0.56514   0.38380   0.79843   0.00000  Uiso   1.00
O1779  O     0.96964   0.25000   0.66245   0.00000  Uiso   1.00
O1780  O     0.93398   0.11811   0.19958   0.00000  Uiso   1.00
O1781  O     0.89493   0.44688   0.77565   0.00000  Uiso   1.00
O1782  O     0.61718   0.06563   0.20060   0.00000  Uiso   1.00
O1783  O     0.92960   0.12248   0.80680   0.00000  Uiso   1.00
O1784  O     0.56571   0.38258   0.20041   0.00000  Uiso   1.00
O1785  O     0.86928   0.18290   0.69818   0.00000  Uiso   1.00
O1786  O     0.63170   0.31567   0.30053   0.00000  Uiso   1.00
O1787  O     0.81021   0.36020   0.71604   0.00000  Uiso   1.00
O1788  O     0.68707   0.13626   0.29456   0.00000  Uiso   1.00
O1789  O     0.62556   0.32168   0.69180   0.00000  Uiso   1.00
O1790  O     0.75000   0.03037   0.33755   0.00000  Uiso   1.00
O1791  O     0.87280   0.18079   0.30533   0.00000  Uiso   1.00
O1792  O     0.69017   0.13980   0.71219   0.00000  Uiso   1.00
O1793  O     0.81520   0.36575   0.29803   0.00000  Uiso   1.00
O1794  O     0.85866   0.30771   0.28289   0.00000  Uiso   1.00
O1795  O     0.63274   0.18461   0.70062   0.00000  Uiso   1.00
O1796  O     0.82347   0.12221   0.31027   0.00000  Uiso   1.00
O1797  O     0.68011   0.37206   0.69413   0.00000  Uiso   1.00
O1798  O     0.63923   0.19172   0.28606   0.00000  Uiso   1.00
O1799  O     0.86750   0.31548   0.70094   0.00000  Uiso   1.00
O1800  O     0.68047   0.37141   0.30533   0.00000  Uiso   1.00
Zn1801 Zn    0.70660   0.00000   0.21735   0.00000  Uiso   1.00
Zn1802 Zn    0.54341   0.25000   0.28265   0.00000  Uiso   1.00
Zn1803 Zn    0.75000   0.45660   0.71735   0.00000  Uiso   1.00
Zn1804 Zn    0.75000   0.04341   0.28265   0.00000  Uiso   1.00
Zn1805 Zn    0.54341   0.25000   0.71735   0.00000  Uiso   1.00
Zn1806 Zn    0.95660   0.25000   0.28265   0.00000  Uiso   1.00
Zn1807 Zn    0.75000   0.04341   0.71735   0.00000  Uiso   1.00
Zn1808 Zn    0.75000   0.45660   0.28265   0.00000  Uiso   1.00
Zn1809 Zn    0.79341   0.00000   0.78265   0.00000  Uiso   1.00
Zn1810 Zn    0.50000   0.20660   0.21735   0.00000  Uiso   1.00
Zn1811 Zn    0.50000   0.29341   0.78265   0.00000  Uiso   1.00
Zn1812 Zn    0.79341   0.00000   0.21735   0.00000  Uiso   1.00
Zn1813 Zn    0.70660   0.00000   0.78265   0.00000  Uiso   1.00
Zn1814 Zn    0.50000   0.29341   0.21735   0.00000  Uiso   1.00
Zn1815 Zn    0.50000   0.20660   0.78265   0.00000  Uiso   1.00
Zn1816 Zn    0.95660   0.25000   0.71735   0.00000  Uiso   1.00
C1817  C     0.49260   0.78112   0.41794   0.00000  Uiso   1.00
C1818  C     0.24070   0.96797   0.08212   0.00000  Uiso   1.00
C1819  C     0.21639   0.50468   0.54080   0.00000  Uiso   1.00
C1820  C     0.49736   0.78203   0.45871   0.00000  Uiso   1.00
C1821  C     0.49543   0.71560   0.54132   0.00000  Uiso   1.00
C1822  C     0.21646   0.50233   0.45823   0.00000  Uiso   1.00
C1823  C     0.28215   0.99564   0.54083   0.00000  Uiso   1.00
C1824  C     0.25388   0.96700   0.95901   0.00000  Uiso   1.00
C1825  C     0.25413   0.53333   0.04139   0.00000  Uiso   1.00
C1826  C     0.03410   0.75184   0.95836   0.00000  Uiso   1.00
C1827  C     0.46775   0.75349   0.04067   0.00000  Uiso   1.00
C1828  C     0.24726   0.53366   0.95900   0.00000  Uiso   1.00
C1829  C     0.46814   0.74479   0.91747   0.00000  Uiso   1.00
C1830  C     0.24578   0.96687   0.04124   0.00000  Uiso   1.00
C1831  C     0.46754   0.74922   0.95832   0.00000  Uiso   1.00
C1832  C     0.03398   0.74704   0.04088   0.00000  Uiso   1.00
C1833  C     0.09816   0.84808   0.24998   0.00000  Uiso   1.00
C1834  C     0.40120   0.65243   0.75124   0.00000  Uiso   1.00
C1835  C     0.15247   0.59893   0.24909   0.00000  Uiso   1.00
C1836  C     0.35052   0.90475   0.74549   0.00000  Uiso   1.00
C1837  C     0.40298   0.65081   0.25141   0.00000  Uiso   1.00
C1838  C     0.09722   0.84926   0.74861   0.00000  Uiso   1.00
C1839  C     0.34815   0.90177   0.25005   0.00000  Uiso   1.00
C1840  C     0.03294   0.74234   0.08184   0.00000  Uiso   1.00
C1841  C     0.15203   0.59823   0.75002   0.00000  Uiso   1.00
C1842  C     0.09833   0.65198   0.75030   0.00000  Uiso   1.00
C1843  C     0.40189   0.84803   0.24993   0.00000  Uiso   1.00
C1844  C     0.15153   0.90234   0.74919   0.00000  Uiso   1.00
C1845  C     0.34942   0.59707   0.25157   0.00000  Uiso   1.00
C1846  C     0.40414   0.85076   0.74623   0.00000  Uiso   1.00
C1847  C     0.09814   0.65208   0.24967   0.00000  Uiso   1.00
C1848  C     0.34750   0.59873   0.75118   0.00000  Uiso   1.00
C1849  C     0.15210   0.90151   0.24976   0.00000  Uiso   1.00
C1850  C     0.49986   0.74869   0.47938   0.00000  Uiso   1.00
C1851  C     0.25905   0.96821   0.91819   0.00000  Uiso   1.00
C1852  C     0.49940   0.74879   0.52058   0.00000  Uiso   1.00
C1853  C     0.24969   0.50166   0.47899   0.00000  Uiso   1.00
C1854  C     0.24942   0.50092   0.52018   0.00000  Uiso   1.00
C1855  C     0.25026   0.50026   0.97957   0.00000  Uiso   1.00
C1856  C     0.25000   0.50016   0.02076   0.00000  Uiso   1.00
C1857  C     0.00085   0.75024   0.97895   0.00000  Uiso   1.00
C1858  C     0.00086   0.75014   0.02017   0.00000  Uiso   1.00
C1859  C     0.46370   0.63585   0.45609   0.00000  Uiso   1.00
C1860  C     0.46313   0.59522   0.46550   0.00000  Uiso   1.00
C1861  C     0.42678   0.57827   0.45538   0.00000  Uiso   1.00
C1862  C     0.25895   0.53204   0.08227   0.00000  Uiso   1.00
C1863  C     0.46442   0.86196   0.54078   0.00000  Uiso   1.00
C1864  C     0.46505   0.90097   0.55601   0.00000  Uiso   1.00
C1865  C     0.42723   0.91750   0.55653   0.00000  Uiso   1.00
C1866  C     0.36313   0.96573   0.45635   0.00000  Uiso   1.00
C1867  C     0.40251   0.96869   0.44356   0.00000  Uiso   1.00
C1868  C     0.41733   0.93207   0.43023   0.00000  Uiso   1.00
C1869  C     0.13173   0.97156   0.53141   0.00000  Uiso   1.00
C1870  C     0.10281   0.96585   0.56262   0.00000  Uiso   1.00
C1871  C     0.07791   0.93433   0.55215   0.00000  Uiso   1.00
C1872  C     0.03525   0.86089   0.45704   0.00000  Uiso   1.00
C1873  C     0.03333   0.75617   0.91741   0.00000  Uiso   1.00
C1874  C     0.03498   0.89916   0.43975   0.00000  Uiso   1.00
C1875  C     0.07328   0.91300   0.43330   0.00000  Uiso   1.00
C1876  C     0.02692   0.63470   0.54700   0.00000  Uiso   1.00
C1877  C     0.02277   0.59795   0.56736   0.00000  Uiso   1.00
C1878  C     0.05858   0.58456   0.58406   0.00000  Uiso   1.00
C1879  C     0.14758   0.55207   0.45400   0.00000  Uiso   1.00
C1880  C     0.13019   0.57044   0.48960   0.00000  Uiso   1.00
C1881  C     0.11819   0.60922   0.48051   0.00000  Uiso   1.00
C1882  C     0.36172   0.52961   0.54602   0.00000  Uiso   1.00
C1883  C     0.40054   0.52674   0.56089   0.00000  Uiso   1.00
C1884  C     0.46875   0.75802   0.08154   0.00000  Uiso   1.00
C1885  C     0.41524   0.56383   0.57260   0.00000  Uiso   1.00
C1886  C     0.22083   0.88640   0.95295   0.00000  Uiso   1.00
C1887  C     0.22511   0.84752   0.93789   0.00000  Uiso   1.00
C1888  C     0.18966   0.83290   0.92170   0.00000  Uiso   1.00
C1889  C     0.22222   0.61448   0.04660   0.00000  Uiso   1.00
C1890  C     0.22665   0.65306   0.06229   0.00000  Uiso   1.00
C1891  C     0.19070   0.66879   0.07589   0.00000  Uiso   1.00
C1892  C     0.11419   0.71337   0.95853   0.00000  Uiso   1.00
C1893  C     0.15465   0.71471   0.96739   0.00000  Uiso   1.00
C1894  C     0.17271   0.67795   0.96039   0.00000  Uiso   1.00
C1895  C     0.00024   0.74884   0.39782   0.00000  Uiso   1.00
C1896  C     0.38663   0.71898   0.03991   0.00000  Uiso   1.00
C1897  C     0.34877   0.72158   0.05737   0.00000  Uiso   1.00
C1898  C     0.33104   0.68431   0.05987   0.00000  Uiso   1.00
C1899  C     0.28354   0.61312   0.95483   0.00000  Uiso   1.00
C1900  C     0.28124   0.65265   0.94138   0.00000  Uiso   1.00
C1901  C     0.31804   0.66677   0.92868   0.00000  Uiso   1.00
C1902  C     0.27880   0.88652   0.04757   0.00000  Uiso   1.00
C1903  C     0.27490   0.84820   0.06426   0.00000  Uiso   1.00
C1904  C     0.31087   0.83371   0.07956   0.00000  Uiso   1.00
C1905  C     0.39611   0.79360   0.94977   0.00000  Uiso   1.00
C1906  C     0.49977   0.74925   0.60215   0.00000  Uiso   1.00
C1907  C     0.37748   0.81463   0.98278   0.00000  Uiso   1.00
C1908  C     0.36436   0.85179   0.96882   0.00000  Uiso   1.00
C1909  C     0.10788   0.78598   0.05085   0.00000  Uiso   1.00
C1910  C     0.12670   0.80771   0.01859   0.00000  Uiso   1.00
C1911  C     0.14007   0.84416   0.03404   0.00000  Uiso   1.00
C1912  C     0.09718   0.95717   0.20183   0.00000  Uiso   1.00
C1913  C     0.07665   0.96628   0.16435   0.00000  Uiso   1.00
C1914  C     0.04964   0.99691   0.17078   0.00000  Uiso   1.00
C1915  C     0.36479   0.57263   0.83912   0.00000  Uiso   1.00
C1916  C     0.36491   0.53647   0.86140   0.00000  Uiso   1.00
C1917  C     0.25017   0.50065   0.39763   0.00000  Uiso   1.00
C1918  C     0.34807   0.53998   0.90182   0.00000  Uiso   1.00
C1919  C     0.03414   0.60098   0.24316   0.00000  Uiso   1.00
C1920  C     0.02388   0.56099   0.24061   0.00000  Uiso   1.00
C1921  C     0.49604   0.55107   0.27166   0.00000  Uiso   1.00
C1922  C     0.43138   0.88164   0.82782   0.00000  Uiso   1.00
C1923  C     0.46603   0.88295   0.85207   0.00000  Uiso   1.00
C1924  C     0.46006   0.86856   0.89330   0.00000  Uiso   1.00
C1925  C     0.40384   0.54225   0.20272   0.00000  Uiso   1.00
C1926  C     0.42435   0.53358   0.16516   0.00000  Uiso   1.00
C1927  C     0.45108   0.50258   0.17109   0.00000  Uiso   1.00
C1928  C     0.49109   0.71689   0.58238   0.00000  Uiso   1.00
C1929  C     0.24951   0.99957   0.60187   0.00000  Uiso   1.00
C1930  C     0.13316   0.92515   0.83815   0.00000  Uiso   1.00
C1931  C     0.13035   0.95903   0.86387   0.00000  Uiso   1.00
C1932  C     0.14945   0.95388   0.90296   0.00000  Uiso   1.00
C1933  C     0.46382   0.90169   0.25117   0.00000  Uiso   1.00
C1934  C     0.48815   0.93358   0.24070   0.00000  Uiso   1.00
C1935  C     0.01441   0.94204   0.27388   0.00000  Uiso   1.00
C1936  C     0.07749   0.62998   0.83689   0.00000  Uiso   1.00
C1937  C     0.04594   0.62774   0.86548   0.00000  Uiso   1.00
C1938  C     0.05469   0.64559   0.90454   0.00000  Uiso   1.00
C1939  C     0.10044   0.53425   0.75699   0.00000  Uiso   1.00
C1940  C     0.25026   0.50032   0.89799   0.00000  Uiso   1.00
C1941  C     0.05937   0.53285   0.75247   0.00000  Uiso   1.00
C1942  C     0.04847   0.51379   0.71476   0.00000  Uiso   1.00
C1943  C     0.36971   0.92452   0.16496   0.00000  Uiso   1.00
C1944  C     0.37058   0.95695   0.13707   0.00000  Uiso   1.00
C1945  C     0.34875   0.95009   0.10007   0.00000  Uiso   1.00
C1946  C     0.04288   0.91202   0.78350   0.00000  Uiso   1.00
C1947  C     0.01868   0.89799   0.75062   0.00000  Uiso   1.00
C1948  C     0.49403   0.92767   0.73520   0.00000  Uiso   1.00
C1949  C     0.42711   0.63384   0.16266   0.00000  Uiso   1.00
C1950  C     0.46260   0.63454   0.13969   0.00000  Uiso   1.00
C1951  C     0.24985   0.99997   0.10224   0.00000  Uiso   1.00
C1952  C     0.45765   0.65014   0.09877   0.00000  Uiso   1.00
C1953  C     0.39077   0.97569   0.74818   0.00000  Uiso   1.00
C1954  C     0.42721   0.99037   0.73473   0.00000  Uiso   1.00
C1955  C     0.42335   0.52642   0.71282   0.00000  Uiso   1.00
C1956  C     0.13135   0.57609   0.16391   0.00000  Uiso   1.00
C1957  C     0.13024   0.54367   0.13606   0.00000  Uiso   1.00
C1958  C     0.15177   0.55055   0.09890   0.00000  Uiso   1.00
C1959  C     0.45607   0.59573   0.79843   0.00000  Uiso   1.00
C1960  C     0.46543   0.57561   0.83619   0.00000  Uiso   1.00
C1961  C     0.49476   0.54715   0.82977   0.00000  Uiso   1.00
C1962  C     0.00073   0.75011   0.89757   0.00000  Uiso   1.00
C1963  C     0.07007   0.86677   0.16312   0.00000  Uiso   1.00
C1964  C     0.03323   0.86721   0.14264   0.00000  Uiso   1.00
C1965  C     0.03480   0.84993   0.10228   0.00000  Uiso   1.00
C1966  C     0.34478   0.70995   0.71116   0.00000  Uiso   1.00
C1967  C     0.31797   0.71829   0.67837   0.00000  Uiso   1.00
C1968  C     0.29577   0.75214   0.68721   0.00000  Uiso   1.00
C1969  C     0.11612   0.82181   0.33761   0.00000  Uiso   1.00
C1970  C     0.11562   0.78554   0.35969   0.00000  Uiso   1.00
C1971  C     0.09788   0.78894   0.39964   0.00000  Uiso   1.00
C1972  C     0.29482   0.84092   0.74762   0.00000  Uiso   1.00
C1973  C     0.00071   0.75000   0.10185   0.00000  Uiso   1.00
C1974  C     0.25602   0.83036   0.73816   0.00000  Uiso   1.00
C1975  C     0.23907   0.80949   0.77222   0.00000  Uiso   1.00
C1976  C     0.17808   0.63126   0.33449   0.00000  Uiso   1.00
C1977  C     0.19340   0.66265   0.35857   0.00000  Uiso   1.00
C1978  C     0.18469   0.65844   0.40186   0.00000  Uiso   1.00
C1979  C     0.15167   0.79450   0.69973   0.00000  Uiso   1.00
C1980  C     0.17203   0.78564   0.66218   0.00000  Uiso   1.00
C1981  C     0.19888   0.75483   0.66869   0.00000  Uiso   1.00
C1982  C     0.38927   0.67275   0.34150   0.00000  Uiso   1.00
C1983  C     0.38610   0.70646   0.36750   0.00000  Uiso   1.00
C1984  C     0.49923   0.68220   0.47963   0.00000  Uiso   1.00
C1985  C     0.40295   0.70056   0.40766   0.00000  Uiso   1.00
C1986  C     0.21648   0.64857   0.74084   0.00000  Uiso   1.00
C1987  C     0.22193   0.68959   0.74309   0.00000  Uiso   1.00
C1988  C     0.24776   0.69935   0.77619   0.00000  Uiso   1.00
C1989  C     0.32578   0.87848   0.33532   0.00000  Uiso   1.00
C1990  C     0.29428   0.87468   0.36381   0.00000  Uiso   1.00
C1991  C     0.30158   0.89355   0.40264   0.00000  Uiso   1.00
C1992  C     0.34953   0.78395   0.25178   0.00000  Uiso   1.00
C1993  C     0.31093   0.79051   0.23677   0.00000  Uiso   1.00
C1994  C     0.30156   0.76523   0.20288   0.00000  Uiso   1.00
C1995  C     0.00041   0.81538   0.52006   0.00000  Uiso   1.00
C1996  C     0.11857   0.67380   0.66404   0.00000  Uiso   1.00
C1997  C     0.11973   0.70591   0.63572   0.00000  Uiso   1.00
C1998  C     0.09823   0.69860   0.59861   0.00000  Uiso   1.00
C1999  C     0.30171   0.65373   0.31487   0.00000  Uiso   1.00
C2000  C     0.28725   0.67077   0.27672   0.00000  Uiso   1.00
C2001  C     0.27080   0.70787   0.28520   0.00000  Uiso   1.00
C2002  C     0.16946   0.88781   0.65829   0.00000  Uiso   1.00
C2003  C     0.20237   0.88989   0.63140   0.00000  Uiso   1.00
C2004  C     0.19229   0.90386   0.59085   0.00000  Uiso   1.00
C2005  C     0.14555   0.71877   0.25735   0.00000  Uiso   1.00
C2006  C     0.31591   0.99928   0.47989   0.00000  Uiso   1.00
C2007  C     0.18519   0.72878   0.25677   0.00000  Uiso   1.00
C2008  C     0.19245   0.75894   0.22719   0.00000  Uiso   1.00
C2009  C     0.38114   0.82233   0.66310   0.00000  Uiso   1.00
C2010  C     0.37787   0.78797   0.63829   0.00000  Uiso   1.00
C2011  C     0.39686   0.79194   0.59902   0.00000  Uiso   1.00
C2012  C     0.20738   0.84530   0.29623   0.00000  Uiso   1.00
C2013  C     0.21585   0.82313   0.33293   0.00000  Uiso   1.00
C2014  C     0.24652   0.79622   0.32618   0.00000  Uiso   1.00
C2015  C     0.32298   0.61732   0.66352   0.00000  Uiso   1.00
C2016  C     0.28779   0.61648   0.64004   0.00000  Uiso   1.00
C2017  C     0.18340   0.50456   0.51991   0.00000  Uiso   1.00
C2018  C     0.29211   0.59536   0.60203   0.00000  Uiso   1.00
C2019  C     0.47563   0.81207   0.39676   0.00000  Uiso   1.00
C2020  C     0.49483   0.83236   0.36895   0.00000  Uiso   1.00
C2021  C     0.47793   0.86101   0.34924   0.00000  Uiso   1.00
C2022  C     0.44177   0.86934   0.35685   0.00000  Uiso   1.00
C2023  C     0.42260   0.84924   0.38450   0.00000  Uiso   1.00
C2024  C     0.43941   0.82074   0.40439   0.00000  Uiso   1.00
C2025  C     0.47418   0.68645   0.60452   0.00000  Uiso   1.00
C2026  C     0.49261   0.66834   0.63485   0.00000  Uiso   1.00
C2027  C     0.47524   0.64139   0.65661   0.00000  Uiso   1.00
C2028  C     0.49928   0.81525   0.47928   0.00000  Uiso   1.00
C2029  C     0.43958   0.63204   0.64804   0.00000  Uiso   1.00
C2030  C     0.42125   0.64970   0.61776   0.00000  Uiso   1.00
C2031  C     0.43831   0.67691   0.59626   0.00000  Uiso   1.00
C2032  C     0.18423   0.98871   0.39434   0.00000  Uiso   1.00
C2033  C     0.16809   0.51444   0.36940   0.00000  Uiso   1.00
C2034  C     0.13979   0.50430   0.34469   0.00000  Uiso   1.00
C2035  C     0.12775   0.96834   0.34431   0.00000  Uiso   1.00
C2036  C     0.14382   0.94256   0.36886   0.00000  Uiso   1.00
C2037  C     0.17181   0.95271   0.39402   0.00000  Uiso   1.00
C2038  C     0.30872   0.96716   0.60083   0.00000  Uiso   1.00
C2039  C     0.21708   0.99813   0.41730   0.00000  Uiso   1.00
C2040  C     0.49598   0.68232   0.52044   0.00000  Uiso   1.00
C2041  C     0.33461   0.98259   0.62565   0.00000  Uiso   1.00
C2042  C     0.36230   0.96089   0.64085   0.00000  Uiso   1.00
C2043  C     0.36328   0.92366   0.63315   0.00000  Uiso   1.00
C2044  C     0.33710   0.90810   0.60905   0.00000  Uiso   1.00
C2045  C     0.31004   0.92979   0.59277   0.00000  Uiso   1.00
C2046  C     0.02276   0.68447   0.39621   0.00000  Uiso   1.00
C2047  C     0.00246   0.66693   0.36715   0.00000  Uiso   1.00
C2048  C     0.01656   0.63682   0.34749   0.00000  Uiso   1.00
C2049  C     0.05125   0.62420   0.35631   0.00000  Uiso   1.00
C2050  C     0.07186   0.64177   0.38472   0.00000  Uiso   1.00
C2051  C     0.18371   0.50681   0.47900   0.00000  Uiso   1.00
C2052  C     0.05774   0.67176   0.40469   0.00000  Uiso   1.00
C2053  C     0.02220   0.81324   0.60313   0.00000  Uiso   1.00
C2054  C     0.00100   0.83271   0.62995   0.00000  Uiso   1.00
C2055  C     0.01496   0.86338   0.64847   0.00000  Uiso   1.00
C2056  C     0.05016   0.87477   0.64061   0.00000  Uiso   1.00
C2057  C     0.07138   0.85548   0.61398   0.00000  Uiso   1.00
C2058  C     0.05759   0.82472   0.59543   0.00000  Uiso   1.00
C2059  C     0.31497   0.51899   0.39530   0.00000  Uiso   1.00
C2060  C     0.33160   0.99728   0.36659   0.00000  Uiso   1.00
C2061  C     0.36057   0.51076   0.34489   0.00000  Uiso   1.00
C2062  C     0.31535   0.99649   0.52059   0.00000  Uiso   1.00
C2063  C     0.37324   0.54591   0.35168   0.00000  Uiso   1.00
C2064  C     0.35692   0.56758   0.38017   0.00000  Uiso   1.00
C2065  C     0.32784   0.55433   0.40176   0.00000  Uiso   1.00
C2066  C     0.18685   0.52487   0.60383   0.00000  Uiso   1.00
C2067  C     0.16819   0.50476   0.63220   0.00000  Uiso   1.00
C2068  C     0.13904   0.52025   0.65200   0.00000  Uiso   1.00
C2069  C     0.12860   0.55605   0.64404   0.00000  Uiso   1.00
C2070  C     0.14710   0.57620   0.61589   0.00000  Uiso   1.00
C2071  C     0.17624   0.56080   0.59601   0.00000  Uiso   1.00
C2072  C     0.22703   0.56431   0.89632   0.00000  Uiso   1.00
C2073  C     0.25189   0.93373   0.97975   0.00000  Uiso   1.00
C2074  C     0.24733   0.58263   0.86783   0.00000  Uiso   1.00
C2075  C     0.23256   0.61229   0.84789   0.00000  Uiso   1.00
C2076  C     0.19736   0.62380   0.85602   0.00000  Uiso   1.00
C2077  C     0.17696   0.60565   0.88419   0.00000  Uiso   1.00
C2078  C     0.19165   0.57599   0.90424   0.00000  Uiso   1.00
C2079  C     0.22355   0.93730   0.10374   0.00000  Uiso   1.00
C2080  C     0.24198   0.91850   0.13359   0.00000  Uiso   1.00
C2081  C     0.22470   0.89096   0.15452   0.00000  Uiso   1.00
C2082  C     0.18904   0.88177   0.14572   0.00000  Uiso   1.00
C2083  C     0.17061   0.90018   0.11604   0.00000  Uiso   1.00
C2084  C     0.25323   0.56661   0.02060   0.00000  Uiso   1.00
C2085  C     0.18768   0.92787   0.09520   0.00000  Uiso   1.00
C2086  C     0.43615   0.73152   0.89527   0.00000  Uiso   1.00
C2087  C     0.41886   0.75363   0.86734   0.00000  Uiso   1.00
C2088  C     0.39110   0.73956   0.84420   0.00000  Uiso   1.00
C2089  C     0.38058   0.70335   0.84856   0.00000  Uiso   1.00
C2090  C     0.39764   0.68127   0.87627   0.00000  Uiso   1.00
C2091  C     0.42519   0.69528   0.89968   0.00000  Uiso   1.00
C2092  C     0.06424   0.72707   0.10367   0.00000  Uiso   1.00
C2093  C     0.08237   0.74766   0.13209   0.00000  Uiso   1.00
C2094  C     0.11187   0.73292   0.15202   0.00000  Uiso   1.00
C2095  C     0.06699   0.74935   0.97923   0.00000  Uiso   1.00
C2096  C     0.12313   0.69734   0.14429   0.00000  Uiso   1.00
C2097  C     0.10500   0.67661   0.11631   0.00000  Uiso   1.00
C2098  C     0.07570   0.69138   0.09601   0.00000  Uiso   1.00
C2099  C     0.27616   0.93754   0.89671   0.00000  Uiso   1.00
C2100  C     0.25681   0.91770   0.86867   0.00000  Uiso   1.00
C2101  C     0.27359   0.88948   0.84832   0.00000  Uiso   1.00
C2102  C     0.30988   0.88112   0.85534   0.00000  Uiso   1.00
C2103  C     0.32942   0.90101   0.88287   0.00000  Uiso   1.00
C2104  C     0.31262   0.92903   0.90365   0.00000  Uiso   1.00
C2105  C     0.27652   0.56238   0.10394   0.00000  Uiso   1.00
C2106  C     0.43472   0.75277   0.01982   0.00000  Uiso   1.00
C2107  C     0.25833   0.58163   0.13355   0.00000  Uiso   1.00
C2108  C     0.27606   0.60900   0.15433   0.00000  Uiso   1.00
C2109  C     0.31189   0.61752   0.14559   0.00000  Uiso   1.00
C2110  C     0.33002   0.59859   0.11613   0.00000  Uiso   1.00
C2111  C     0.31254   0.57108   0.09550   0.00000  Uiso   1.00
C2112  C     0.06482   0.77092   0.89544   0.00000  Uiso   1.00
C2113  C     0.08212   0.75061   0.86606   0.00000  Uiso   1.00
C2114  C     0.11030   0.76587   0.84450   0.00000  Uiso   1.00
C2115  C     0.12148   0.80140   0.85213   0.00000  Uiso   1.00
C2116  C     0.10457   0.82164   0.88143   0.00000  Uiso   1.00
C2117  C     0.24984   0.56679   0.97987   0.00000  Uiso   1.00
C2118  C     0.07633   0.80657   0.90294   0.00000  Uiso   1.00
C2119  C     0.43791   0.77424   0.10297   0.00000  Uiso   1.00
C2120  C     0.41865   0.75395   0.13057   0.00000  Uiso   1.00
C2121  C     0.39015   0.76982   0.15088   0.00000  Uiso   1.00
C2122  C     0.38075   0.80615   0.14404   0.00000  Uiso   1.00
C2123  C     0.39954   0.82634   0.11618   0.00000  Uiso   1.00
C2124  C     0.42814   0.81053   0.09578   0.00000  Uiso   1.00
C2125  C     0.24747   0.93367   0.02038   0.00000  Uiso   1.00
C2126  C     0.43472   0.75285   0.97906   0.00000  Uiso   1.00
C2127  C     0.28071   0.98957   0.58136   0.00000  Uiso   1.00
C2128  C     0.06701   0.74886   0.02003   0.00000  Uiso   1.00
C2129  C     0.25018   0.50009   0.35550   0.00000  Uiso   1.00
C2130  C     0.25028   0.99993   0.64429   0.00000  Uiso   1.00
C2131  C     0.00006   0.74935   0.35553   0.00000  Uiso   1.00
C2132  C     0.49996   0.74982   0.64446   0.00000  Uiso   1.00
C2133  C     0.00046   0.75001   0.85549   0.00000  Uiso   1.00
C2134  C     0.00039   0.74999   0.14431   0.00000  Uiso   1.00
C2135  C     0.25004   0.50013   0.85559   0.00000  Uiso   1.00
C2136  C     0.24996   0.99993   0.14448   0.00000  Uiso   1.00
C2137  C     0.18015   0.57031   0.24975   0.00000  Uiso   1.00
C2138  C     0.00786   0.71629   0.41790   0.00000  Uiso   1.00
C2139  C     0.32044   0.93044   0.74924   0.00000  Uiso   1.00
C2140  C     0.43023   0.67968   0.25032   0.00000  Uiso   1.00
C2141  C     0.06979   0.82039   0.74964   0.00000  Uiso   1.00
C2142  C     0.32004   0.92992   0.25006   0.00000  Uiso   1.00
C2143  C     0.18001   0.57005   0.74994   0.00000  Uiso   1.00
C2144  C     0.07002   0.82009   0.25002   0.00000  Uiso   1.00
C2145  C     0.42975   0.68008   0.75036   0.00000  Uiso   1.00
C2146  C     0.17993   0.93001   0.74982   0.00000  Uiso   1.00
C2147  C     0.32036   0.56983   0.25041   0.00000  Uiso   1.00
C2148  C     0.43051   0.82075   0.74917   0.00000  Uiso   1.00
C2149  C     0.00733   0.78143   0.58179   0.00000  Uiso   1.00
C2150  C     0.06990   0.67990   0.25006   0.00000  Uiso   1.00
C2151  C     0.31990   0.57021   0.75024   0.00000  Uiso   1.00
C2152  C     0.18002   0.92981   0.24993   0.00000  Uiso   1.00
C2153  C     0.07009   0.67998   0.75013   0.00000  Uiso   1.00
C2154  C     0.43006   0.82009   0.25005   0.00000  Uiso   1.00
C2155  C     0.12322   0.90357   0.22280   0.00000  Uiso   1.00
C2156  C     0.37605   0.59694   0.77862   0.00000  Uiso   1.00
C2157  C     0.09243   0.61873   0.23023   0.00000  Uiso   1.00
C2158  C     0.40965   0.88420   0.76582   0.00000  Uiso   1.00
C2159  C     0.37774   0.59560   0.22397   0.00000  Uiso   1.00
C2160  C     0.28284   0.50603   0.41757   0.00000  Uiso   1.00
C2161  C     0.12292   0.90431   0.77625   0.00000  Uiso   1.00
C2162  C     0.40818   0.88189   0.23181   0.00000  Uiso   1.00
C2163  C     0.09484   0.62095   0.77422   0.00000  Uiso   1.00
C2164  C     0.11914   0.59233   0.77000   0.00000  Uiso   1.00
C2165  C     0.37956   0.90610   0.22715   0.00000  Uiso   1.00
C2166  C     0.09484   0.87916   0.77436   0.00000  Uiso   1.00
C2167  C     0.40428   0.62245   0.22376   0.00000  Uiso   1.00
C2168  C     0.38535   0.91303   0.76045   0.00000  Uiso   1.00
C2169  C     0.12107   0.59455   0.22603   0.00000  Uiso   1.00
C2170  C     0.40318   0.62330   0.77810   0.00000  Uiso   1.00
C2171  C     0.21757   0.50873   0.58190   0.00000  Uiso   1.00
C2172  C     0.09633   0.87702   0.22295   0.00000  Uiso   1.00
C2173  C     0.37163   0.65505   0.72527   0.00000  Uiso   1.00
C2174  C     0.12707   0.84593   0.27692   0.00000  Uiso   1.00
C2175  C     0.34444   0.87079   0.72752   0.00000  Uiso   1.00
C2176  C     0.15679   0.63081   0.27155   0.00000  Uiso   1.00
C2177  C     0.12556   0.84761   0.72113   0.00000  Uiso   1.00
C2178  C     0.37578   0.65138   0.28037   0.00000  Uiso   1.00
C2179  C     0.15769   0.63144   0.73016   0.00000  Uiso   1.00
C2180  C     0.34407   0.87014   0.27289   0.00000  Uiso   1.00
C2181  C     0.36816   0.84140   0.26796   0.00000  Uiso   1.00
C2182  C     0.24227   0.53269   0.91807   0.00000  Uiso   1.00
C2183  C     0.12915   0.65584   0.72634   0.00000  Uiso   1.00
C2184  C     0.34889   0.62446   0.28046   0.00000  Uiso   1.00
C2185  C     0.15203   0.87465   0.72068   0.00000  Uiso   1.00
C2186  C     0.13149   0.65875   0.26837   0.00000  Uiso   1.00
C2187  C     0.37281   0.84621   0.72343   0.00000  Uiso   1.00
C2188  C     0.15403   0.87240   0.27663   0.00000  Uiso   1.00
C2189  C     0.34540   0.62798   0.72467   0.00000  Uiso   1.00
C2190  C     0.00261   0.71530   0.45883   0.00000  Uiso   1.00
C2191  C     0.00245   0.78222   0.54098   0.00000  Uiso   1.00
C2192  C     0.28320   0.50241   0.45863   0.00000  Uiso   1.00
H2193  H     0.45550   0.63963   0.42518   0.00000  Uiso   1.00
H2194  H     0.47629   0.90125   0.58610   0.00000  Uiso   1.00
H2195  H     0.42140   0.80769   0.94099   0.00000  Uiso   1.00
H2196  H     0.35402   0.79887   0.99370   0.00000  Uiso   1.00
H2197  H     0.39676   0.81877   0.00722   0.00000  Uiso   1.00
H2198  H     0.38700   0.86741   0.95591   0.00000  Uiso   1.00
H2199  H     0.35347   0.86739   0.99392   0.00000  Uiso   1.00
H2200  H     0.34264   0.84855   0.94674   0.00000  Uiso   1.00
H2201  H     0.12646   0.78415   0.07627   0.00000  Uiso   1.00
H2202  H     0.08352   0.80092   0.06104   0.00000  Uiso   1.00
H2203  H     0.15003   0.79198   0.00710   0.00000  Uiso   1.00
H2204  H     0.10748   0.81298   0.99431   0.00000  Uiso   1.00
H2205  H     0.48271   0.91780   0.53706   0.00000  Uiso   1.00
H2206  H     0.11739   0.85989   0.04695   0.00000  Uiso   1.00
H2207  H     0.15163   0.86025   0.00974   0.00000  Uiso   1.00
H2208  H     0.16132   0.83985   0.05651   0.00000  Uiso   1.00
H2209  H     0.11168   0.98181   0.21199   0.00000  Uiso   1.00
H2210  H     0.07736   0.94973   0.22491   0.00000  Uiso   1.00
H2211  H     0.09592   0.97383   0.14096   0.00000  Uiso   1.00
H2212  H     0.06172   0.94215   0.15424   0.00000  Uiso   1.00
H2213  H     0.03011   0.98901   0.19372   0.00000  Uiso   1.00
H2214  H     0.03481   0.50253   0.14323   0.00000  Uiso   1.00
H2215  H     0.06374   0.52195   0.17999   0.00000  Uiso   1.00
H2216  H     0.41682   0.92068   0.52631   0.00000  Uiso   1.00
H2217  H     0.33642   0.58251   0.83631   0.00000  Uiso   1.00
H2218  H     0.38070   0.59289   0.85585   0.00000  Uiso   1.00
H2219  H     0.34983   0.51578   0.84441   0.00000  Uiso   1.00
H2220  H     0.39303   0.52644   0.86474   0.00000  Uiso   1.00
H2221  H     0.36126   0.56203   0.91869   0.00000  Uiso   1.00
H2222  H     0.35140   0.51400   0.91797   0.00000  Uiso   1.00
H2223  H     0.31884   0.54568   0.89913   0.00000  Uiso   1.00
H2224  H     0.00937   0.61746   0.23813   0.00000  Uiso   1.00
H2225  H     0.04350   0.60698   0.27343   0.00000  Uiso   1.00
H2226  H     0.01237   0.55571   0.21123   0.00000  Uiso   1.00
H2227  H     0.42802   0.94466   0.57060   0.00000  Uiso   1.00
H2228  H     0.04835   0.54387   0.24481   0.00000  Uiso   1.00
H2229  H     0.00801   0.55372   0.30128   0.00000  Uiso   1.00
H2230  H     0.48724   0.52254   0.26746   0.00000  Uiso   1.00
H2231  H     0.47204   0.56913   0.26946   0.00000  Uiso   1.00
H2232  H     0.41942   0.85394   0.83047   0.00000  Uiso   1.00
H2233  H     0.41191   0.90198   0.83964   0.00000  Uiso   1.00
H2234  H     0.48726   0.86617   0.83776   0.00000  Uiso   1.00
H2235  H     0.47566   0.91147   0.85368   0.00000  Uiso   1.00
H2236  H     0.43821   0.88408   0.90804   0.00000  Uiso   1.00
H2237  H     0.48532   0.87136   0.91053   0.00000  Uiso   1.00
H2238  H     0.40867   0.89973   0.57320   0.00000  Uiso   1.00
H2239  H     0.45282   0.83936   0.89214   0.00000  Uiso   1.00
H2240  H     0.38944   0.51747   0.21266   0.00000  Uiso   1.00
H2241  H     0.42375   0.54954   0.22590   0.00000  Uiso   1.00
H2242  H     0.40505   0.52662   0.14155   0.00000  Uiso   1.00
H2243  H     0.43951   0.55779   0.15561   0.00000  Uiso   1.00
H2244  H     0.47105   0.51027   0.19363   0.00000  Uiso   1.00
H2245  H     0.46540   0.99683   0.14330   0.00000  Uiso   1.00
H2246  H     0.43700   0.97764   0.18069   0.00000  Uiso   1.00
H2247  H     0.16200   0.91658   0.83612   0.00000  Uiso   1.00
H2248  H     0.11717   0.90302   0.85175   0.00000  Uiso   1.00
H2249  H     0.34747   0.95167   0.43327   0.00000  Uiso   1.00
H2250  H     0.14263   0.98257   0.84850   0.00000  Uiso   1.00
H2251  H     0.10139   0.96536   0.86913   0.00000  Uiso   1.00
H2252  H     0.13957   0.92904   0.91793   0.00000  Uiso   1.00
H2253  H     0.14417   0.97777   0.92193   0.00000  Uiso   1.00
H2254  H     0.17898   0.95178   0.89829   0.00000  Uiso   1.00
H2255  H     0.48121   0.87819   0.25909   0.00000  Uiso   1.00
H2256  H     0.44793   0.90985   0.27750   0.00000  Uiso   1.00
H2257  H     0.00356   0.92731   0.21369   0.00000  Uiso   1.00
H2258  H     0.47104   0.95786   0.23551   0.00000  Uiso   1.00
H2259  H     0.49951   0.94688   0.30154   0.00000  Uiso   1.00
H2260  H     0.36211   0.94922   0.48364   0.00000  Uiso   1.00
H2261  H     0.02985   0.96698   0.26684   0.00000  Uiso   1.00
H2262  H     0.03365   0.91912   0.27803   0.00000  Uiso   1.00
H2263  H     0.08651   0.65882   0.83498   0.00000  Uiso   1.00
H2264  H     0.10001   0.61295   0.84840   0.00000  Uiso   1.00
H2265  H     0.02188   0.64137   0.85259   0.00000  Uiso   1.00
H2266  H     0.03957   0.59874   0.87090   0.00000  Uiso   1.00
H2267  H     0.08002   0.63417   0.91698   0.00000  Uiso   1.00
H2268  H     0.03232   0.64064   0.92540   0.00000  Uiso   1.00
H2269  H     0.05750   0.67535   0.90078   0.00000  Uiso   1.00
H2270  H     0.11015   0.50677   0.76560   0.00000  Uiso   1.00
H2271  H     0.40468   0.98836   0.41902   0.00000  Uiso   1.00
H2272  H     0.11320   0.54012   0.72826   0.00000  Uiso   1.00
H2273  H     0.04790   0.51770   0.77757   0.00000  Uiso   1.00
H2274  H     0.04792   0.56078   0.75209   0.00000  Uiso   1.00
H2275  H     0.05754   0.52973   0.68906   0.00000  Uiso   1.00
H2276  H     0.01862   0.51153   0.71350   0.00000  Uiso   1.00
H2277  H     0.06067   0.98619   0.71349   0.00000  Uiso   1.00
H2278  H     0.34128   0.91488   0.16748   0.00000  Uiso   1.00
H2279  H     0.38656   0.90239   0.15239   0.00000  Uiso   1.00
H2280  H     0.35936   0.98133   0.15197   0.00000  Uiso   1.00
H2281  H     0.39893   0.96226   0.12849   0.00000  Uiso   1.00
H2282  H     0.41902   0.97889   0.46835   0.00000  Uiso   1.00
H2283  H     0.35743   0.92433   0.08592   0.00000  Uiso   1.00
H2284  H     0.35277   0.97285   0.07924   0.00000  Uiso   1.00
H2285  H     0.31966   0.94880   0.10730   0.00000  Uiso   1.00
H2286  H     0.05823   0.93614   0.77312   0.00000  Uiso   1.00
H2287  H     0.02562   0.92185   0.80778   0.00000  Uiso   1.00
H2288  H     0.03542   0.88771   0.72617   0.00000  Uiso   1.00
H2289  H     0.00193   0.87548   0.76178   0.00000  Uiso   1.00
H2290  H     0.48164   0.94262   0.75992   0.00000  Uiso   1.00
H2291  H     0.47227   0.91535   0.71732   0.00000  Uiso   1.00
H2292  H     0.00943   0.94672   0.71663   0.00000  Uiso   1.00
H2293  H     0.41514   0.91158   0.45392   0.00000  Uiso   1.00
H2294  H     0.41659   0.66216   0.16537   0.00000  Uiso   1.00
H2295  H     0.40721   0.61722   0.14644   0.00000  Uiso   1.00
H2296  H     0.48278   0.65104   0.15574   0.00000  Uiso   1.00
H2297  H     0.47369   0.60658   0.13714   0.00000  Uiso   1.00
H2298  H     0.43674   0.63475   0.08250   0.00000  Uiso   1.00
H2299  H     0.48355   0.64833   0.08257   0.00000  Uiso   1.00
H2300  H     0.44972   0.67911   0.10045   0.00000  Uiso   1.00
H2301  H     0.37642   0.99811   0.76332   0.00000  Uiso   1.00
H2302  H     0.37458   0.96854   0.72208   0.00000  Uiso   1.00
H2303  H     0.44491   0.99465   0.76050   0.00000  Uiso   1.00
H2304  H     0.44323   0.64983   0.47484   0.00000  Uiso   1.00
H2305  H     0.44617   0.93487   0.42201   0.00000  Uiso   1.00
H2306  H     0.43966   0.97047   0.71459   0.00000  Uiso   1.00
H2307  H     0.40806   0.52289   0.68528   0.00000  Uiso   1.00
H2308  H     0.45053   0.53712   0.70560   0.00000  Uiso   1.00
H2309  H     0.40904   0.54671   0.73096   0.00000  Uiso   1.00
H2310  H     0.15988   0.58538   0.16670   0.00000  Uiso   1.00
H2311  H     0.11481   0.59844   0.15117   0.00000  Uiso   1.00
H2312  H     0.14158   0.51930   0.15092   0.00000  Uiso   1.00
H2313  H     0.10180   0.53834   0.12774   0.00000  Uiso   1.00
H2314  H     0.14284   0.57622   0.08470   0.00000  Uiso   1.00
H2315  H     0.14771   0.52770   0.07820   0.00000  Uiso   1.00
H2316  H     0.40194   0.92264   0.40434   0.00000  Uiso   1.00
H2317  H     0.18091   0.55204   0.10594   0.00000  Uiso   1.00
H2318  H     0.48068   0.60949   0.78735   0.00000  Uiso   1.00
H2319  H     0.44775   0.57544   0.77605   0.00000  Uiso   1.00
H2320  H     0.47437   0.59536   0.85866   0.00000  Uiso   1.00
H2321  H     0.44113   0.56186   0.84752   0.00000  Uiso   1.00
H2322  H     0.48575   0.52669   0.80805   0.00000  Uiso   1.00
H2323  H     0.00074   0.53306   0.85773   0.00000  Uiso   1.00
H2324  H     0.01974   0.56039   0.81928   0.00000  Uiso   1.00
H2325  H     0.07993   0.83817   0.16513   0.00000  Uiso   1.00
H2326  H     0.08958   0.88277   0.14559   0.00000  Uiso   1.00
H2327  H     0.14994   0.94735   0.53115   0.00000  Uiso   1.00
H2328  H     0.01324   0.85234   0.16071   0.00000  Uiso   1.00
H2329  H     0.02341   0.89561   0.13960   0.00000  Uiso   1.00
H2330  H     0.05578   0.86318   0.08410   0.00000  Uiso   1.00
H2331  H     0.00824   0.85304   0.08756   0.00000  Uiso   1.00
H2332  H     0.04072   0.82055   0.10504   0.00000  Uiso   1.00
H2333  H     0.36046   0.73487   0.71790   0.00000  Uiso   1.00
H2334  H     0.32938   0.70273   0.73810   0.00000  Uiso   1.00
H2335  H     0.33272   0.72212   0.65048   0.00000  Uiso   1.00
H2336  H     0.29925   0.69513   0.67461   0.00000  Uiso   1.00
H2337  H     0.27928   0.74789   0.71380   0.00000  Uiso   1.00
H2338  H     0.11805   0.97380   0.50263   0.00000  Uiso   1.00
H2339  H     0.27785   0.75820   0.66206   0.00000  Uiso   1.00
H2340  H     0.31344   0.77585   0.69198   0.00000  Uiso   1.00
H2341  H     0.08790   0.83223   0.33505   0.00000  Uiso   1.00
H2342  H     0.13245   0.84178   0.35437   0.00000  Uiso   1.00
H2343  H     0.10078   0.76500   0.34223   0.00000  Uiso   1.00
H2344  H     0.14360   0.77531   0.36372   0.00000  Uiso   1.00
H2345  H     0.11130   0.81035   0.41724   0.00000  Uiso   1.00
H2346  H     0.10004   0.76265   0.41543   0.00000  Uiso   1.00
H2347  H     0.06890   0.79558   0.39615   0.00000  Uiso   1.00
H2348  H     0.29445   0.85799   0.77437   0.00000  Uiso   1.00
H2349  H     0.11597   0.96007   0.59113   0.00000  Uiso   1.00
H2350  H     0.31055   0.81562   0.75363   0.00000  Uiso   1.00
H2351  H     0.23987   0.85523   0.73216   0.00000  Uiso   1.00
H2352  H     0.25574   0.81332   0.71148   0.00000  Uiso   1.00
H2353  H     0.25948   0.79277   0.78790   0.00000  Uiso   1.00
H2354  H     0.21795   0.79081   0.76147   0.00000  Uiso   1.00
H2355  H     0.22658   0.82870   0.79324   0.00000  Uiso   1.00
H2356  H     0.19061   0.60544   0.34462   0.00000  Uiso   1.00
H2357  H     0.14847   0.62933   0.34044   0.00000  Uiso   1.00
H2358  H     0.22309   0.66351   0.35506   0.00000  Uiso   1.00
H2359  H     0.18205   0.68884   0.34796   0.00000  Uiso   1.00
H2360  H     0.08635   0.99103   0.56567   0.00000  Uiso   1.00
H2361  H     0.15511   0.66028   0.40655   0.00000  Uiso   1.00
H2362  H     0.19782   0.68059   0.41862   0.00000  Uiso   1.00
H2363  H     0.19481   0.63192   0.41298   0.00000  Uiso   1.00
H2364  H     0.13764   0.76968   0.71012   0.00000  Uiso   1.00
H2365  H     0.17166   0.80229   0.72246   0.00000  Uiso   1.00
H2366  H     0.15266   0.77808   0.63883   0.00000  Uiso   1.00
H2367  H     0.18700   0.80993   0.65227   0.00000  Uiso   1.00
H2368  H     0.21863   0.76272   0.69141   0.00000  Uiso   1.00
H2369  H     0.21335   0.74878   0.64107   0.00000  Uiso   1.00
H2370  H     0.18480   0.72999   0.67860   0.00000  Uiso   1.00
H2371  H     0.06297   0.94038   0.52476   0.00000  Uiso   1.00
H2372  H     0.41821   0.66564   0.33746   0.00000  Uiso   1.00
H2373  H     0.37535   0.64979   0.35607   0.00000  Uiso   1.00
H2374  H     0.39957   0.72982   0.35306   0.00000  Uiso   1.00
H2375  H     0.35712   0.71351   0.37131   0.00000  Uiso   1.00
H2376  H     0.39119   0.67625   0.42202   0.00000  Uiso   1.00
H2377  H     0.39772   0.72470   0.42630   0.00000  Uiso   1.00
H2378  H     0.43252   0.69714   0.40497   0.00000  Uiso   1.00
H2379  H     0.24247   0.63590   0.73192   0.00000  Uiso   1.00
H2380  H     0.21029   0.63781   0.77051   0.00000  Uiso   1.00
H2381  H     0.23337   0.69914   0.71499   0.00000  Uiso   1.00
H2382  H     0.05796   0.93025   0.57591   0.00000  Uiso   1.00
H2383  H     0.19561   0.70339   0.74813   0.00000  Uiso   1.00
H2384  H     0.23578   0.69199   0.80483   0.00000  Uiso   1.00
H2385  H     0.25286   0.72898   0.77599   0.00000  Uiso   1.00
H2386  H     0.27389   0.68483   0.77260   0.00000  Uiso   1.00
H2387  H     0.33387   0.90761   0.33394   0.00000  Uiso   1.00
H2388  H     0.34882   0.86211   0.34661   0.00000  Uiso   1.00
H2389  H     0.26951   0.88660   0.35059   0.00000  Uiso   1.00
H2390  H     0.28976   0.84544   0.36983   0.00000  Uiso   1.00
H2391  H     0.32824   0.88521   0.41463   0.00000  Uiso   1.00
H2392  H     0.28028   0.88611   0.42395   0.00000  Uiso   1.00
H2393  H     0.09376   0.90890   0.54832   0.00000  Uiso   1.00
H2394  H     0.30073   0.92340   0.39869   0.00000  Uiso   1.00
H2395  H     0.35139   0.75566   0.26301   0.00000  Uiso   1.00
H2396  H     0.36894   0.78573   0.22727   0.00000  Uiso   1.00
H2397  H     0.29173   0.78557   0.26082   0.00000  Uiso   1.00
H2398  H     0.30762   0.81905   0.22677   0.00000  Uiso   1.00
H2399  H     0.31601   0.77347   0.17609   0.00000  Uiso   1.00
H2400  H     0.27231   0.76699   0.19640   0.00000  Uiso   1.00
H2401  H     0.30853   0.73660   0.21004   0.00000  Uiso   1.00
H2402  H     0.09004   0.66455   0.66690   0.00000  Uiso   1.00
H2403  H     0.13510   0.65134   0.65166   0.00000  Uiso   1.00
H2404  H     0.05101   0.84270   0.43755   0.00000  Uiso   1.00
H2405  H     0.10845   0.73048   0.65019   0.00000  Uiso   1.00
H2406  H     0.14816   0.71113   0.62737   0.00000  Uiso   1.00
H2407  H     0.10710   0.67273   0.58484   0.00000  Uiso   1.00
H2408  H     0.10236   0.72116   0.57754   0.00000  Uiso   1.00
H2409  H     0.06909   0.69729   0.60558   0.00000  Uiso   1.00
H2410  H     0.31535   0.67402   0.33352   0.00000  Uiso   1.00
H2411  H     0.27797   0.64529   0.33225   0.00000  Uiso   1.00
H2412  H     0.30894   0.67499   0.25489   0.00000  Uiso   1.00
H2413  H     0.26654   0.65269   0.26361   0.00000  Uiso   1.00
H2414  H     0.24774   0.70520   0.30562   0.00000  Uiso   1.00
H2415  H     0.48469   0.58109   0.44873   0.00000  Uiso   1.00
H2416  H     0.04873   0.86204   0.48614   0.00000  Uiso   1.00
H2417  H     0.26139   0.72031   0.25755   0.00000  Uiso   1.00
H2418  H     0.29133   0.72610   0.29833   0.00000  Uiso   1.00
H2419  H     0.15845   0.91578   0.66256   0.00000  Uiso   1.00
H2420  H     0.14872   0.87065   0.64409   0.00000  Uiso   1.00
H2421  H     0.22280   0.90815   0.64452   0.00000  Uiso   1.00
H2422  H     0.21484   0.86255   0.62840   0.00000  Uiso   1.00
H2423  H     0.17262   0.88530   0.57675   0.00000  Uiso   1.00
H2424  H     0.21687   0.90534   0.57239   0.00000  Uiso   1.00
H2425  H     0.18032   0.93142   0.59277   0.00000  Uiso   1.00
H2426  H     0.12993   0.74343   0.26556   0.00000  Uiso   1.00
H2427  H     0.02046   0.89900   0.41134   0.00000  Uiso   1.00
H2428  H     0.13696   0.71103   0.22731   0.00000  Uiso   1.00
H2429  H     0.19300   0.73807   0.28641   0.00000  Uiso   1.00
H2430  H     0.20120   0.70428   0.24893   0.00000  Uiso   1.00
H2431  H     0.19077   0.74804   0.19701   0.00000  Uiso   1.00
H2432  H     0.21982   0.77006   0.23203   0.00000  Uiso   1.00
H2433  H     0.17264   0.78147   0.23046   0.00000  Uiso   1.00
H2434  H     0.41006   0.83058   0.66424   0.00000  Uiso   1.00
H2435  H     0.36518   0.84419   0.64888   0.00000  Uiso   1.00
H2436  H     0.38982   0.76449   0.65424   0.00000  Uiso   1.00
H2437  H     0.34888   0.78251   0.63276   0.00000  Uiso   1.00
H2438  H     0.02050   0.91787   0.45990   0.00000  Uiso   1.00
H2439  H     0.38639   0.81608   0.58306   0.00000  Uiso   1.00
H2440  H     0.39197   0.76732   0.58105   0.00000  Uiso   1.00
H2441  H     0.42638   0.79465   0.60337   0.00000  Uiso   1.00
H2442  H     0.23216   0.85984   0.28691   0.00000  Uiso   1.00
H2443  H     0.19988   0.82631   0.27221   0.00000  Uiso   1.00
H2444  H     0.22292   0.84161   0.35734   0.00000  Uiso   1.00
H2445  H     0.19169   0.80768   0.34171   0.00000  Uiso   1.00
H2446  H     0.23932   0.77719   0.30246   0.00000  Uiso   1.00
H2447  H     0.25165   0.78040   0.35326   0.00000  Uiso   1.00
H2448  H     0.27150   0.81073   0.31798   0.00000  Uiso   1.00
H2449  H     0.08826   0.91403   0.46139   0.00000  Uiso   1.00
H2450  H     0.33386   0.58908   0.66604   0.00000  Uiso   1.00
H2451  H     0.34275   0.63443   0.64769   0.00000  Uiso   1.00
H2452  H     0.26622   0.60355   0.65773   0.00000  Uiso   1.00
H2453  H     0.27913   0.64472   0.63322   0.00000  Uiso   1.00
H2454  H     0.31400   0.60726   0.58400   0.00000  Uiso   1.00
H2455  H     0.26647   0.59637   0.58522   0.00000  Uiso   1.00
H2456  H     0.29849   0.56651   0.60852   0.00000  Uiso   1.00
H2457  H     0.02279   0.82621   0.36270   0.00000  Uiso   1.00
H2458  H     0.49302   0.87689   0.32836   0.00000  Uiso   1.00
H2459  H     0.42865   0.89158   0.34170   0.00000  Uiso   1.00
H2460  H     0.07230   0.94077   0.42063   0.00000  Uiso   1.00
H2461  H     0.39484   0.85595   0.39100   0.00000  Uiso   1.00
H2462  H     0.42422   0.80534   0.42572   0.00000  Uiso   1.00
H2463  H     0.02022   0.67519   0.64190   0.00000  Uiso   1.00
H2464  H     0.48946   0.62772   0.68006   0.00000  Uiso   1.00
H2465  H     0.42618   0.61110   0.66479   0.00000  Uiso   1.00
H2466  H     0.39379   0.64237   0.61079   0.00000  Uiso   1.00
H2467  H     0.42355   0.69069   0.57325   0.00000  Uiso   1.00
H2468  H     0.17779   0.54215   0.36880   0.00000  Uiso   1.00
H2469  H     0.12754   0.52421   0.32545   0.00000  Uiso   1.00
H2470  H     0.10619   0.96037   0.32477   0.00000  Uiso   1.00
H2471  H     0.08785   0.89479   0.41277   0.00000  Uiso   1.00
H2472  H     0.13493   0.91461   0.36800   0.00000  Uiso   1.00
H2473  H     0.18452   0.93235   0.41236   0.00000  Uiso   1.00
H2474  H     0.33417   0.51143   0.63190   0.00000  Uiso   1.00
H2475  H     0.38361   0.97296   0.65774   0.00000  Uiso   1.00
H2476  H     0.38482   0.90712   0.64515   0.00000  Uiso   1.00
H2477  H     0.33810   0.87946   0.60213   0.00000  Uiso   1.00
H2478  H     0.29026   0.91756   0.57355   0.00000  Uiso   1.00
H2479  H     0.47570   0.67640   0.35991   0.00000  Uiso   1.00
H2480  H     0.00049   0.62328   0.32550   0.00000  Uiso   1.00
H2481  H     0.06219   0.60079   0.34123   0.00000  Uiso   1.00
H2482  H     0.04220   0.65328   0.56643   0.00000  Uiso   1.00
H2483  H     0.09868   0.63191   0.39140   0.00000  Uiso   1.00
H2484  H     0.07395   0.68502   0.42680   0.00000  Uiso   1.00
H2485  H     0.47358   0.82457   0.63603   0.00000  Uiso   1.00
H2486  H     0.49816   0.87857   0.66838   0.00000  Uiso   1.00
H2487  H     0.06084   0.89873   0.65479   0.00000  Uiso   1.00
H2488  H     0.09828   0.86466   0.60712   0.00000  Uiso   1.00
H2489  H     0.07422   0.81015   0.57462   0.00000  Uiso   1.00
H2490  H     0.32201   0.97016   0.36071   0.00000  Uiso   1.00
H2491  H     0.37312   0.99397   0.32274   0.00000  Uiso   1.00
H2492  H     0.39565   0.55637   0.33486   0.00000  Uiso   1.00
H2493  H     0.04241   0.63052   0.51950   0.00000  Uiso   1.00
H2494  H     0.36678   0.59468   0.38564   0.00000  Uiso   1.00
H2495  H     0.31526   0.57161   0.42347   0.00000  Uiso   1.00
H2496  H     0.17609   0.97716   0.63892   0.00000  Uiso   1.00
H2497  H     0.12450   0.50429   0.67329   0.00000  Uiso   1.00
H2498  H     0.10609   0.56814   0.65946   0.00000  Uiso   1.00
H2499  H     0.13867   0.60360   0.60901   0.00000  Uiso   1.00
H2500  H     0.19042   0.57674   0.57434   0.00000  Uiso   1.00
H2501  H     0.27460   0.57417   0.86121   0.00000  Uiso   1.00
H2502  H     0.24858   0.62641   0.82634   0.00000  Uiso   1.00
H2503  H     0.18594   0.64686   0.84065   0.00000  Uiso   1.00
H2504  H     0.00297   0.60034   0.59154   0.00000  Uiso   1.00
H2505  H     0.14990   0.61478   0.89086   0.00000  Uiso   1.00
H2506  H     0.17557   0.56220   0.92606   0.00000  Uiso   1.00
H2507  H     0.26959   0.92519   0.14080   0.00000  Uiso   1.00
H2508  H     0.23896   0.87673   0.17756   0.00000  Uiso   1.00
H2509  H     0.17566   0.86046   0.16195   0.00000  Uiso   1.00
H2510  H     0.14303   0.89309   0.10920   0.00000  Uiso   1.00
H2511  H     0.17292   0.94216   0.07254   0.00000  Uiso   1.00
H2512  H     0.42715   0.78156   0.86326   0.00000  Uiso   1.00
H2513  H     0.37802   0.75663   0.82261   0.00000  Uiso   1.00
H2514  H     0.35935   0.69234   0.83037   0.00000  Uiso   1.00
H2515  H     0.01245   0.57759   0.54623   0.00000  Uiso   1.00
H2516  H     0.38978   0.65318   0.87942   0.00000  Uiso   1.00
H2517  H     0.43860   0.67769   0.92057   0.00000  Uiso   1.00
H2518  H     0.07407   0.77523   0.13837   0.00000  Uiso   1.00
H2519  H     0.12600   0.74928   0.17328   0.00000  Uiso   1.00
H2520  H     0.14599   0.68590   0.15977   0.00000  Uiso   1.00
H2521  H     0.11382   0.64922   0.10997   0.00000  Uiso   1.00
H2522  H     0.06195   0.67507   0.07431   0.00000  Uiso   1.00
H2523  H     0.22876   0.92390   0.86275   0.00000  Uiso   1.00
H2524  H     0.25829   0.87411   0.82724   0.00000  Uiso   1.00
H2525  H     0.32289   0.85924   0.83952   0.00000  Uiso   1.00
H2526  H     0.46843   0.59123   0.49710   0.00000  Uiso   1.00
H2527  H     0.06856   0.60393   0.60645   0.00000  Uiso   1.00
H2528  H     0.35754   0.89464   0.88818   0.00000  Uiso   1.00
H2529  H     0.32801   0.94427   0.92494   0.00000  Uiso   1.00
H2530  H     0.23061   0.57540   0.14068   0.00000  Uiso   1.00
H2531  H     0.26202   0.62361   0.17720   0.00000  Uiso   1.00
H2532  H     0.32560   0.63874   0.16163   0.00000  Uiso   1.00
H2533  H     0.35763   0.60519   0.10908   0.00000  Uiso   1.00
H2534  H     0.32708   0.55643   0.07300   0.00000  Uiso   1.00
H2535  H     0.07357   0.72323   0.85950   0.00000  Uiso   1.00
H2536  H     0.12334   0.75020   0.82175   0.00000  Uiso   1.00
H2537  H     0.14323   0.81324   0.83536   0.00000  Uiso   1.00
H2538  H     0.07899   0.58180   0.56053   0.00000  Uiso   1.00
H2539  H     0.11328   0.84904   0.88757   0.00000  Uiso   1.00
H2540  H     0.06321   0.82274   0.92526   0.00000  Uiso   1.00
H2541  H     0.42565   0.72594   0.13644   0.00000  Uiso   1.00
H2542  H     0.37547   0.75354   0.17169   0.00000  Uiso   1.00
H2543  H     0.35885   0.81869   0.16004   0.00000  Uiso   1.00
H2544  H     0.39186   0.85412   0.11009   0.00000  Uiso   1.00
H2545  H     0.44265   0.82646   0.07436   0.00000  Uiso   1.00
H2546  H     0.05476   0.55760   0.59802   0.00000  Uiso   1.00
H2547  H     0.12940   0.55598   0.42850   0.00000  Uiso   1.00
H2548  H     0.17353   0.56567   0.44638   0.00000  Uiso   1.00
H2549  H     0.10637   0.55448   0.49920   0.00000  Uiso   1.00
H2550  H     0.14998   0.57149   0.51391   0.00000  Uiso   1.00
H2551  H     0.14108   0.62521   0.46875   0.00000  Uiso   1.00
H2552  H     0.10855   0.62255   0.50766   0.00000  Uiso   1.00
H2553  H     0.09574   0.60901   0.45903   0.00000  Uiso   1.00
H2554  H     0.40453   0.59267   0.47071   0.00000  Uiso   1.00
H2555  H     0.34505   0.54403   0.56807   0.00000  Uiso   1.00
H2556  H     0.36187   0.54587   0.51852   0.00000  Uiso   1.00
H2557  H     0.40159   0.50847   0.58670   0.00000  Uiso   1.00
H2558  H     0.41789   0.51491   0.53764   0.00000  Uiso   1.00
H2559  H     0.39901   0.57513   0.59702   0.00000  Uiso   1.00
H2560  H     0.41433   0.58291   0.54747   0.00000  Uiso   1.00
H2561  H     0.44367   0.56096   0.58246   0.00000  Uiso   1.00
H2562  H     0.20726   0.90318   0.93030   0.00000  Uiso   1.00
H2563  H     0.20353   0.88579   0.97949   0.00000  Uiso   1.00
H2564  H     0.24573   0.84679   0.91437   0.00000  Uiso   1.00
H2565  H     0.42665   0.54931   0.46448   0.00000  Uiso   1.00
H2566  H     0.23454   0.82973   0.96213   0.00000  Uiso   1.00
H2567  H     0.16831   0.83361   0.94440   0.00000  Uiso   1.00
H2568  H     0.19344   0.80434   0.91200   0.00000  Uiso   1.00
H2569  H     0.18094   0.84945   0.89621   0.00000  Uiso   1.00
H2570  H     0.20801   0.59780   0.06873   0.00000  Uiso   1.00
H2571  H     0.20552   0.61575   0.01952   0.00000  Uiso   1.00
H2572  H     0.24572   0.65279   0.08737   0.00000  Uiso   1.00
H2573  H     0.23807   0.67067   0.03902   0.00000  Uiso   1.00
H2574  H     0.17076   0.66889   0.05164   0.00000  Uiso   1.00
H2575  H     0.19459   0.69714   0.08611   0.00000  Uiso   1.00
H2576  H     0.42224   0.57964   0.42338   0.00000  Uiso   1.00
H2577  H     0.18010   0.65234   0.10050   0.00000  Uiso   1.00
H2578  H     0.11031   0.70282   0.92846   0.00000  Uiso   1.00
H2579  H     0.10129   0.69382   0.97922   0.00000  Uiso   1.00
H2580  H     0.16768   0.73540   0.94844   0.00000  Uiso   1.00
H2581  H     0.15875   0.72273   0.99835   0.00000  Uiso   1.00
H2582  H     0.15931   0.65640   0.97780   0.00000  Uiso   1.00
H2583  H     0.20153   0.67931   0.96914   0.00000  Uiso   1.00
H2584  H     0.17127   0.67088   0.92893   0.00000  Uiso   1.00
H2585  H     0.40344   0.70075   0.05845   0.00000  Uiso   1.00
H2586  H     0.38437   0.70704   0.01010   0.00000  Uiso   1.00
H2587  H     0.44823   0.84494   0.56105   0.00000  Uiso   1.00
H2588  H     0.35039   0.73344   0.08715   0.00000  Uiso   1.00
H2589  H     0.33179   0.73977   0.03898   0.00000  Uiso   1.00
H2590  H     0.32758   0.67253   0.03025   0.00000  Uiso   1.00
H2591  H     0.30409   0.68699   0.07373   0.00000  Uiso   1.00
H2592  H     0.34787   0.66575   0.07787   0.00000  Uiso   1.00
H2593  H     0.29690   0.59669   0.93179   0.00000  Uiso   1.00
H2594  H     0.30033   0.61204   0.98186   0.00000  Uiso   1.00
H2595  H     0.26215   0.65492   0.91641   0.00000  Uiso   1.00
H2596  H     0.27086   0.66973   0.96570   0.00000  Uiso   1.00
H2597  H     0.33777   0.66474   0.95306   0.00000  Uiso   1.00
H2598  H     0.45117   0.86208   0.51152   0.00000  Uiso   1.00
H2599  H     0.31565   0.69569   0.91974   0.00000  Uiso   1.00
H2600  H     0.32799   0.65074   0.90340   0.00000  Uiso   1.00
H2601  H     0.29231   0.90399   0.06952   0.00000  Uiso   1.00
H2602  H     0.29592   0.88498   0.02093   0.00000  Uiso   1.00
H2603  H     0.25509   0.84850   0.08860   0.00000  Uiso   1.00
H2604  H     0.26460   0.82975   0.04112   0.00000  Uiso   1.00
H2605  H     0.33126   0.83305   0.05585   0.00000  Uiso   1.00
H2606  H     0.30728   0.80568   0.09092   0.00000  Uiso   1.00
H2607  H     0.32079   0.85122   0.10368   0.00000  Uiso   1.00
H2608  H     0.37810   0.79396   0.92381   0.00000  Uiso   1.00
O2609  O     0.25000   0.50000   0.25000   0.00000  Uiso   1.00
O2610  O     0.25000   0.96964   0.66245   0.00000  Uiso   1.00
O2611  O     0.31566   0.63244   0.70059   0.00000  Uiso   1.00
O2612  O     0.46964   0.75000   0.33755   0.00000  Uiso   1.00
O2613  O     0.03037   0.75000   0.66245   0.00000  Uiso   1.00
O2614  O     0.00000   0.71964   0.83755   0.00000  Uiso   1.00
O2615  O     0.00000   0.78037   0.16245   0.00000  Uiso   1.00
O2616  O     0.28037   0.50000   0.83755   0.00000  Uiso   1.00
O2617  O     0.21964   0.50000   0.16245   0.00000  Uiso   1.00
O2618  O     0.00000   0.78037   0.83755   0.00000  Uiso   1.00
O2619  O     0.00000   0.71964   0.16245   0.00000  Uiso   1.00
O2620  O     0.21964   0.50000   0.83755   0.00000  Uiso   1.00
O2621  O     0.25000   0.50000   0.75000   0.00000  Uiso   1.00
O2622  O     0.28037   0.50000   0.16245   0.00000  Uiso   1.00
O2623  O     0.20725   0.57308   0.27302   0.00000  Uiso   1.00
O2624  O     0.29276   0.92693   0.72698   0.00000  Uiso   1.00
O2625  O     0.42693   0.70725   0.27302   0.00000  Uiso   1.00
O2626  O     0.07308   0.79276   0.72698   0.00000  Uiso   1.00
O2627  O     0.29276   0.92693   0.27302   0.00000  Uiso   1.00
O2628  O     0.20725   0.57308   0.72698   0.00000  Uiso   1.00
O2629  O     0.07308   0.79276   0.27302   0.00000  Uiso   1.00
O2630  O     0.42693   0.70725   0.72698   0.00000  Uiso   1.00
O2631  O     0.20725   0.92693   0.72698   0.00000  Uiso   1.00
O2632  O     0.00000   0.75000   0.25000   0.00000  Uiso   1.00
O2633  O     0.29276   0.57308   0.27302   0.00000  Uiso   1.00
O2634  O     0.42693   0.79276   0.72698   0.00000  Uiso   1.00
O2635  O     0.07308   0.70725   0.27302   0.00000  Uiso   1.00
O2636  O     0.29276   0.57308   0.72698   0.00000  Uiso   1.00
O2637  O     0.20725   0.92693   0.27302   0.00000  Uiso   1.00
O2638  O     0.07308   0.70725   0.72698   0.00000  Uiso   1.00
O2639  O     0.42693   0.79276   0.27302   0.00000  Uiso   1.00
O2640  O     0.45725   0.82308   0.77302   0.00000  Uiso   1.00
O2641  O     0.04276   0.67693   0.22698   0.00000  Uiso   1.00
O2642  O     0.17693   0.95725   0.77302   0.00000  Uiso   1.00
O2643  O     0.00000   0.75000   0.75000   0.00000  Uiso   1.00
O2644  O     0.32308   0.54276   0.22698   0.00000  Uiso   1.00
O2645  O     0.04276   0.67693   0.77302   0.00000  Uiso   1.00
O2646  O     0.45725   0.82308   0.22698   0.00000  Uiso   1.00
O2647  O     0.32308   0.54276   0.77302   0.00000  Uiso   1.00
O2648  O     0.17693   0.95725   0.22698   0.00000  Uiso   1.00
O2649  O     0.45725   0.67693   0.22698   0.00000  Uiso   1.00
O2650  O     0.04276   0.82308   0.77302   0.00000  Uiso   1.00
O2651  O     0.17693   0.54276   0.22698   0.00000  Uiso   1.00
O2652  O     0.32308   0.95725   0.77302   0.00000  Uiso   1.00
O2653  O     0.04276   0.82308   0.22698   0.00000  Uiso   1.00
O2654  O     0.25000   0.96964   0.33755   0.00000  Uiso   1.00
O2655  O     0.45725   0.67693   0.77302   0.00000  Uiso   1.00
O2656  O     0.32308   0.95725   0.22698   0.00000  Uiso   1.00
O2657  O     0.17693   0.54276   0.77302   0.00000  Uiso   1.00
O2658  O     0.49938   0.64900   0.46054   0.00000  Uiso   1.00
O2659  O     0.00019   0.84862   0.53902   0.00000  Uiso   1.00
O2660  O     0.34920   0.50112   0.46169   0.00000  Uiso   1.00
O2661  O     0.15071   0.50397   0.53973   0.00000  Uiso   1.00
O2662  O     0.49937   0.84834   0.45994   0.00000  Uiso   1.00
O2663  O     0.49233   0.64924   0.53929   0.00000  Uiso   1.00
O2664  O     0.15151   0.51408   0.45980   0.00000  Uiso   1.00
O2665  O     0.25000   0.53037   0.66245   0.00000  Uiso   1.00
O2666  O     0.34802   0.99422   0.54017   0.00000  Uiso   1.00
O2667  O     0.25540   0.90059   0.96096   0.00000  Uiso   1.00
O2668  O     0.25677   0.59967   0.03946   0.00000  Uiso   1.00
O2669  O     0.09992   0.74909   0.96010   0.00000  Uiso   1.00
O2670  O     0.40182   0.75410   0.03893   0.00000  Uiso   1.00
O2671  O     0.24821   0.60009   0.96109   0.00000  Uiso   1.00
O2672  O     0.24413   0.90048   0.03910   0.00000  Uiso   1.00
O2673  O     0.40183   0.75669   0.96008   0.00000  Uiso   1.00
O2674  O     0.10019   0.74997   0.03879   0.00000  Uiso   1.00
O2675  O     0.12286   0.92966   0.19357   0.00000  Uiso   1.00
O2676  O     0.03037   0.75000   0.33755   0.00000  Uiso   1.00
O2677  O     0.38069   0.56666   0.80220   0.00000  Uiso   1.00
O2678  O     0.05951   0.60972   0.21354   0.00000  Uiso   1.00
O2679  O     0.43990   0.88981   0.78859   0.00000  Uiso   1.00
O2680  O     0.37795   0.56967   0.19465   0.00000  Uiso   1.00
O2681  O     0.11924   0.93388   0.80095   0.00000  Uiso   1.00
O2682  O     0.44199   0.89225   0.21861   0.00000  Uiso   1.00
O2683  O     0.06632   0.61705   0.79991   0.00000  Uiso   1.00
O2684  O     0.11055   0.55911   0.78674   0.00000  Uiso   1.00
O2685  O     0.38361   0.93506   0.20179   0.00000  Uiso   1.00
O2686  O     0.06514   0.88380   0.79843   0.00000  Uiso   1.00
O2687  O     0.46964   0.75000   0.66245   0.00000  Uiso   1.00
O2688  O     0.43398   0.61811   0.19958   0.00000  Uiso   1.00
O2689  O     0.39493   0.94688   0.77565   0.00000  Uiso   1.00
O2690  O     0.11718   0.56563   0.20060   0.00000  Uiso   1.00
O2691  O     0.42960   0.62248   0.80680   0.00000  Uiso   1.00
O2692  O     0.06571   0.88258   0.20041   0.00000  Uiso   1.00
O2693  O     0.36928   0.68290   0.69818   0.00000  Uiso   1.00
O2694  O     0.13170   0.81567   0.30053   0.00000  Uiso   1.00
O2695  O     0.31021   0.86020   0.71604   0.00000  Uiso   1.00
O2696  O     0.18707   0.63626   0.29456   0.00000  Uiso   1.00
O2697  O     0.12556   0.82168   0.69180   0.00000  Uiso   1.00
O2698  O     0.25000   0.53037   0.33755   0.00000  Uiso   1.00
O2699  O     0.37280   0.68079   0.30533   0.00000  Uiso   1.00
O2700  O     0.19017   0.63980   0.71219   0.00000  Uiso   1.00
O2701  O     0.31520   0.86575   0.29803   0.00000  Uiso   1.00
O2702  O     0.35866   0.80771   0.28289   0.00000  Uiso   1.00
O2703  O     0.13274   0.68461   0.70062   0.00000  Uiso   1.00
O2704  O     0.32347   0.62221   0.31027   0.00000  Uiso   1.00
O2705  O     0.18011   0.87206   0.69413   0.00000  Uiso   1.00
O2706  O     0.13923   0.69172   0.28606   0.00000  Uiso   1.00
O2707  O     0.36750   0.81548   0.70094   0.00000  Uiso   1.00
O2708  O     0.18047   0.87141   0.30533   0.00000  Uiso   1.00
Zn2709 Zn    0.20660   0.50000   0.21735   0.00000  Uiso   1.00
Zn2710 Zn    0.04341   0.75000   0.28265   0.00000  Uiso   1.00
Zn2711 Zn    0.25000   0.95660   0.71735   0.00000  Uiso   1.00
Zn2712 Zn    0.25000   0.54341   0.28265   0.00000  Uiso   1.00
Zn2713 Zn    0.04341   0.75000   0.71735   0.00000  Uiso   1.00
Zn2714 Zn    0.45660   0.75000   0.28265   0.00000  Uiso   1.00
Zn2715 Zn    0.25000   0.54341   0.71735   0.00000  Uiso   1.00
Zn2716 Zn    0.25000   0.95660   0.28265   0.00000  Uiso   1.00
Zn2717 Zn    0.29341   0.50000   0.78265   0.00000  Uiso   1.00
Zn2718 Zn    0.00000   0.70660   0.21735   0.00000  Uiso   1.00
Zn2719 Zn    0.00000   0.79341   0.78265   0.00000  Uiso   1.00
Zn2720 Zn    0.29341   0.50000   0.21735   0.00000  Uiso   1.00
Zn2721 Zn    0.20660   0.50000   0.78265   0.00000  Uiso   1.00
Zn2722 Zn    0.00000   0.79341   0.21735   0.00000  Uiso   1.00
Zn2723 Zn    0.00000   0.70660   0.78265   0.00000  Uiso   1.00
Zn2724 Zn    0.45660   0.75000   0.71735   0.00000  Uiso   1.00
C2725  C     0.99260   0.78112   0.41794   0.00000  Uiso   1.00
C2726  C     0.74070   0.96797   0.08212   0.00000  Uiso   1.00
C2727  C     0.71639   0.50468   0.54080   0.00000  Uiso   1.00
C2728  C     0.99736   0.78203   0.45871   0.00000  Uiso   1.00
C2729  C     0.99543   0.71560   0.54132   0.00000  Uiso   1.00
C2730  C     0.71646   0.50233   0.45823   0.00000  Uiso   1.00
C2731  C     0.78215   0.99564   0.54083   0.00000  Uiso   1.00
C2732  C     0.75388   0.96700   0.95901   0.00000  Uiso   1.00
C2733  C     0.75413   0.53333   0.04139   0.00000  Uiso   1.00
C2734  C     0.53410   0.75184   0.95836   0.00000  Uiso   1.00
C2735  C     0.96775   0.75349   0.04067   0.00000  Uiso   1.00
C2736  C     0.74726   0.53366   0.95900   0.00000  Uiso   1.00
C2737  C     0.96814   0.74479   0.91747   0.00000  Uiso   1.00
C2738  C     0.74578   0.96687   0.04124   0.00000  Uiso   1.00
C2739  C     0.96754   0.74922   0.95832   0.00000  Uiso   1.00
C2740  C     0.53398   0.74704   0.04088   0.00000  Uiso   1.00
C2741  C     0.59816   0.84808   0.24998   0.00000  Uiso   1.00
C2742  C     0.90120   0.65243   0.75124   0.00000  Uiso   1.00
C2743  C     0.65247   0.59893   0.24909   0.00000  Uiso   1.00
C2744  C     0.85052   0.90475   0.74549   0.00000  Uiso   1.00
C2745  C     0.90298   0.65081   0.25141   0.00000  Uiso   1.00
C2746  C     0.59722   0.84926   0.74861   0.00000  Uiso   1.00
C2747  C     0.84815   0.90177   0.25005   0.00000  Uiso   1.00
C2748  C     0.53294   0.74234   0.08184   0.00000  Uiso   1.00
C2749  C     0.65203   0.59823   0.75002   0.00000  Uiso   1.00
C2750  C     0.59833   0.65198   0.75030   0.00000  Uiso   1.00
C2751  C     0.90189   0.84803   0.24993   0.00000  Uiso   1.00
C2752  C     0.65153   0.90234   0.74919   0.00000  Uiso   1.00
C2753  C     0.84942   0.59707   0.25157   0.00000  Uiso   1.00
C2754  C     0.90414   0.85076   0.74623   0.00000  Uiso   1.00
C2755  C     0.59814   0.65208   0.24967   0.00000  Uiso   1.00
C2756  C     0.84750   0.59873   0.75118   0.00000  Uiso   1.00
C2757  C     0.65210   0.90151   0.24976   0.00000  Uiso   1.00
C2758  C     0.99986   0.74869   0.47938   0.00000  Uiso   1.00
C2759  C     0.75905   0.96821   0.91819   0.00000  Uiso   1.00
C2760  C     0.99940   0.74879   0.52058   0.00000  Uiso   1.00
C2761  C     0.74969   0.50166   0.47899   0.00000  Uiso   1.00
C2762  C     0.74942   0.50092   0.52018   0.00000  Uiso   1.00
C2763  C     0.75026   0.50026   0.97957   0.00000  Uiso   1.00
C2764  C     0.75000   0.50016   0.02076   0.00000  Uiso   1.00
C2765  C     0.50085   0.75024   0.97895   0.00000  Uiso   1.00
C2766  C     0.50086   0.75014   0.02017   0.00000  Uiso   1.00
C2767  C     0.96370   0.63585   0.45609   0.00000  Uiso   1.00
C2768  C     0.96313   0.59522   0.46550   0.00000  Uiso   1.00
C2769  C     0.92678   0.57827   0.45538   0.00000  Uiso   1.00
C2770  C     0.75895   0.53204   0.08227   0.00000  Uiso   1.00
C2771  C     0.96442   0.86196   0.54078   0.00000  Uiso   1.00
C2772  C     0.96505   0.90097   0.55601   0.00000  Uiso   1.00
C2773  C     0.92723   0.91750   0.55653   0.00000  Uiso   1.00
C2774  C     0.86313   0.96573   0.45635   0.00000  Uiso   1.00
C2775  C     0.90251   0.96869   0.44356   0.00000  Uiso   1.00
C2776  C     0.91733   0.93207   0.43023   0.00000  Uiso   1.00
C2777  C     0.63173   0.97156   0.53141   0.00000  Uiso   1.00
C2778  C     0.60281   0.96585   0.56262   0.00000  Uiso   1.00
C2779  C     0.57791   0.93433   0.55215   0.00000  Uiso   1.00
C2780  C     0.53525   0.86089   0.45704   0.00000  Uiso   1.00
C2781  C     0.53333   0.75617   0.91741   0.00000  Uiso   1.00
C2782  C     0.53498   0.89916   0.43975   0.00000  Uiso   1.00
C2783  C     0.57328   0.91300   0.43330   0.00000  Uiso   1.00
C2784  C     0.52692   0.63470   0.54700   0.00000  Uiso   1.00
C2785  C     0.52277   0.59795   0.56736   0.00000  Uiso   1.00
C2786  C     0.55858   0.58456   0.58406   0.00000  Uiso   1.00
C2787  C     0.64758   0.55207   0.45400   0.00000  Uiso   1.00
C2788  C     0.63019   0.57044   0.48960   0.00000  Uiso   1.00
C2789  C     0.61819   0.60922   0.48051   0.00000  Uiso   1.00
C2790  C     0.86172   0.52961   0.54602   0.00000  Uiso   1.00
C2791  C     0.90054   0.52674   0.56089   0.00000  Uiso   1.00
C2792  C     0.96875   0.75802   0.08154   0.00000  Uiso   1.00
C2793  C     0.91524   0.56383   0.57260   0.00000  Uiso   1.00
C2794  C     0.72083   0.88640   0.95295   0.00000  Uiso   1.00
C2795  C     0.72511   0.84752   0.93789   0.00000  Uiso   1.00
C2796  C     0.68966   0.83290   0.92170   0.00000  Uiso   1.00
C2797  C     0.72222   0.61448   0.04660   0.00000  Uiso   1.00
C2798  C     0.72665   0.65306   0.06229   0.00000  Uiso   1.00
C2799  C     0.69070   0.66879   0.07589   0.00000  Uiso   1.00
C2800  C     0.61419   0.71337   0.95853   0.00000  Uiso   1.00
C2801  C     0.65465   0.71471   0.96739   0.00000  Uiso   1.00
C2802  C     0.67271   0.67795   0.96039   0.00000  Uiso   1.00
C2803  C     0.50024   0.74884   0.39782   0.00000  Uiso   1.00
C2804  C     0.88663   0.71898   0.03991   0.00000  Uiso   1.00
C2805  C     0.84877   0.72158   0.05737   0.00000  Uiso   1.00
C2806  C     0.83104   0.68431   0.05987   0.00000  Uiso   1.00
C2807  C     0.78354   0.61312   0.95483   0.00000  Uiso   1.00
C2808  C     0.78124   0.65265   0.94138   0.00000  Uiso   1.00
C2809  C     0.81804   0.66677   0.92868   0.00000  Uiso   1.00
C2810  C     0.77880   0.88652   0.04757   0.00000  Uiso   1.00
C2811  C     0.77490   0.84820   0.06426   0.00000  Uiso   1.00
C2812  C     0.81087   0.83371   0.07956   0.00000  Uiso   1.00
C2813  C     0.89611   0.79360   0.94977   0.00000  Uiso   1.00
C2814  C     0.99977   0.74925   0.60215   0.00000  Uiso   1.00
C2815  C     0.87748   0.81463   0.98278   0.00000  Uiso   1.00
C2816  C     0.86436   0.85179   0.96882   0.00000  Uiso   1.00
C2817  C     0.60788   0.78598   0.05085   0.00000  Uiso   1.00
C2818  C     0.62670   0.80771   0.01859   0.00000  Uiso   1.00
C2819  C     0.64007   0.84416   0.03404   0.00000  Uiso   1.00
C2820  C     0.59718   0.95717   0.20183   0.00000  Uiso   1.00
C2821  C     0.57665   0.96628   0.16435   0.00000  Uiso   1.00
C2822  C     0.54964   0.99691   0.17078   0.00000  Uiso   1.00
C2823  C     0.86479   0.57263   0.83912   0.00000  Uiso   1.00
C2824  C     0.86491   0.53647   0.86140   0.00000  Uiso   1.00
C2825  C     0.75017   0.50065   0.39763   0.00000  Uiso   1.00
C2826  C     0.84807   0.53998   0.90182   0.00000  Uiso   1.00
C2827  C     0.53414   0.60098   0.24316   0.00000  Uiso   1.00
C2828  C     0.52388   0.56099   0.24061   0.00000  Uiso   1.00
C2829  C     0.99604   0.55107   0.27166   0.00000  Uiso   1.00
C2830  C     0.93138   0.88164   0.82782   0.00000  Uiso   1.00
C2831  C     0.96603   0.88295   0.85207   0.00000  Uiso   1.00
C2832  C     0.96006   0.86856   0.89330   0.00000  Uiso   1.00
C2833  C     0.90384   0.54225   0.20272   0.00000  Uiso   1.00
C2834  C     0.92435   0.53358   0.16516   0.00000  Uiso   1.00
C2835  C     0.95108   0.50258   0.17109   0.00000  Uiso   1.00
C2836  C     0.99109   0.71689   0.58238   0.00000  Uiso   1.00
C2837  C     0.74951   0.99957   0.60187   0.00000  Uiso   1.00
C2838  C     0.63316   0.92515   0.83815   0.00000  Uiso   1.00
C2839  C     0.63035   0.95903   0.86387   0.00000  Uiso   1.00
C2840  C     0.64945   0.95388   0.90296   0.00000  Uiso   1.00
C2841  C     0.96382   0.90169   0.25117   0.00000  Uiso   1.00
C2842  C     0.98815   0.93358   0.24070   0.00000  Uiso   1.00
C2843  C     0.51441   0.94204   0.27388   0.00000  Uiso   1.00
C2844  C     0.57749   0.62998   0.83689   0.00000  Uiso   1.00
C2845  C     0.54594   0.62774   0.86548   0.00000  Uiso   1.00
C2846  C     0.55469   0.64559   0.90454   0.00000  Uiso   1.00
C2847  C     0.60044   0.53425   0.75699   0.00000  Uiso   1.00
C2848  C     0.75026   0.50032   0.89799   0.00000  Uiso   1.00
C2849  C     0.55937   0.53285   0.75247   0.00000  Uiso   1.00
C2850  C     0.54847   0.51379   0.71476   0.00000  Uiso   1.00
C2851  C     0.86971   0.92452   0.16496   0.00000  Uiso   1.00
C2852  C     0.87058   0.95695   0.13707   0.00000  Uiso   1.00
C2853  C     0.84875   0.95009   0.10007   0.00000  Uiso   1.00
C2854  C     0.54288   0.91202   0.78350   0.00000  Uiso   1.00
C2855  C     0.51868   0.89799   0.75062   0.00000  Uiso   1.00
C2856  C     0.99403   0.92767   0.73520   0.00000  Uiso   1.00
C2857  C     0.92711   0.63384   0.16266   0.00000  Uiso   1.00
C2858  C     0.96260   0.63454   0.13969   0.00000  Uiso   1.00
C2859  C     0.74985   0.99997   0.10224   0.00000  Uiso   1.00
C2860  C     0.95765   0.65014   0.09877   0.00000  Uiso   1.00
C2861  C     0.89077   0.97569   0.74818   0.00000  Uiso   1.00
C2862  C     0.92721   0.99037   0.73473   0.00000  Uiso   1.00
C2863  C     0.92335   0.52642   0.71282   0.00000  Uiso   1.00
C2864  C     0.63135   0.57609   0.16391   0.00000  Uiso   1.00
C2865  C     0.63024   0.54367   0.13606   0.00000  Uiso   1.00
C2866  C     0.65177   0.55055   0.09890   0.00000  Uiso   1.00
C2867  C     0.95607   0.59573   0.79843   0.00000  Uiso   1.00
C2868  C     0.96543   0.57561   0.83619   0.00000  Uiso   1.00
C2869  C     0.99476   0.54715   0.82977   0.00000  Uiso   1.00
C2870  C     0.50073   0.75011   0.89757   0.00000  Uiso   1.00
C2871  C     0.57007   0.86677   0.16312   0.00000  Uiso   1.00
C2872  C     0.53323   0.86721   0.14264   0.00000  Uiso   1.00
C2873  C     0.53480   0.84993   0.10228   0.00000  Uiso   1.00
C2874  C     0.84478   0.70995   0.71116   0.00000  Uiso   1.00
C2875  C     0.81797   0.71829   0.67837   0.00000  Uiso   1.00
C2876  C     0.79577   0.75214   0.68721   0.00000  Uiso   1.00
C2877  C     0.61612   0.82181   0.33761   0.00000  Uiso   1.00
C2878  C     0.61562   0.78554   0.35969   0.00000  Uiso   1.00
C2879  C     0.59788   0.78894   0.39964   0.00000  Uiso   1.00
C2880  C     0.79482   0.84092   0.74762   0.00000  Uiso   1.00
C2881  C     0.50071   0.75000   0.10185   0.00000  Uiso   1.00
C2882  C     0.75602   0.83036   0.73816   0.00000  Uiso   1.00
C2883  C     0.73907   0.80949   0.77222   0.00000  Uiso   1.00
C2884  C     0.67808   0.63126   0.33449   0.00000  Uiso   1.00
C2885  C     0.69340   0.66265   0.35857   0.00000  Uiso   1.00
C2886  C     0.68469   0.65844   0.40186   0.00000  Uiso   1.00
C2887  C     0.65167   0.79450   0.69973   0.00000  Uiso   1.00
C2888  C     0.67203   0.78564   0.66218   0.00000  Uiso   1.00
C2889  C     0.69888   0.75483   0.66869   0.00000  Uiso   1.00
C2890  C     0.88927   0.67275   0.34150   0.00000  Uiso   1.00
C2891  C     0.88610   0.70646   0.36750   0.00000  Uiso   1.00
C2892  C     0.99923   0.68220   0.47963   0.00000  Uiso   1.00
C2893  C     0.90295   0.70056   0.40766   0.00000  Uiso   1.00
C2894  C     0.71648   0.64857   0.74084   0.00000  Uiso   1.00
C2895  C     0.72193   0.68959   0.74309   0.00000  Uiso   1.00
C2896  C     0.74776   0.69935   0.77619   0.00000  Uiso   1.00
C2897  C     0.82578   0.87848   0.33532   0.00000  Uiso   1.00
C2898  C     0.79428   0.87468   0.36381   0.00000  Uiso   1.00
C2899  C     0.80158   0.89355   0.40264   0.00000  Uiso   1.00
C2900  C     0.84953   0.78395   0.25178   0.00000  Uiso   1.00
C2901  C     0.81093   0.79051   0.23677   0.00000  Uiso   1.00
C2902  C     0.80156   0.76523   0.20288   0.00000  Uiso   1.00
C2903  C     0.50041   0.81538   0.52006   0.00000  Uiso   1.00
C2904  C     0.61857   0.67380   0.66404   0.00000  Uiso   1.00
C2905  C     0.61973   0.70591   0.63572   0.00000  Uiso   1.00
C2906  C     0.59823   0.69860   0.59861   0.00000  Uiso   1.00
C2907  C     0.80171   0.65373   0.31487   0.00000  Uiso   1.00
C2908  C     0.78725   0.67077   0.27672   0.00000  Uiso   1.00
C2909  C     0.77080   0.70787   0.28520   0.00000  Uiso   1.00
C2910  C     0.66946   0.88781   0.65829   0.00000  Uiso   1.00
C2911  C     0.70237   0.88989   0.63140   0.00000  Uiso   1.00
C2912  C     0.69229   0.90386   0.59085   0.00000  Uiso   1.00
C2913  C     0.64555   0.71877   0.25735   0.00000  Uiso   1.00
C2914  C     0.81591   0.99928   0.47989   0.00000  Uiso   1.00
C2915  C     0.68519   0.72878   0.25677   0.00000  Uiso   1.00
C2916  C     0.69245   0.75894   0.22719   0.00000  Uiso   1.00
C2917  C     0.88114   0.82233   0.66310   0.00000  Uiso   1.00
C2918  C     0.87787   0.78797   0.63829   0.00000  Uiso   1.00
C2919  C     0.89686   0.79194   0.59902   0.00000  Uiso   1.00
C2920  C     0.70738   0.84530   0.29623   0.00000  Uiso   1.00
C2921  C     0.71585   0.82313   0.33293   0.00000  Uiso   1.00
C2922  C     0.74652   0.79622   0.32618   0.00000  Uiso   1.00
C2923  C     0.82298   0.61732   0.66352   0.00000  Uiso   1.00
C2924  C     0.78779   0.61648   0.64004   0.00000  Uiso   1.00
C2925  C     0.68340   0.50456   0.51991   0.00000  Uiso   1.00
C2926  C     0.79211   0.59536   0.60203   0.00000  Uiso   1.00
C2927  C     0.97563   0.81207   0.39676   0.00000  Uiso   1.00
C2928  C     0.99483   0.83236   0.36895   0.00000  Uiso   1.00
C2929  C     0.97793   0.86101   0.34924   0.00000  Uiso   1.00
C2930  C     0.94177   0.86934   0.35685   0.00000  Uiso   1.00
C2931  C     0.92260   0.84924   0.38450   0.00000  Uiso   1.00
C2932  C     0.93941   0.82074   0.40439   0.00000  Uiso   1.00
C2933  C     0.97418   0.68645   0.60452   0.00000  Uiso   1.00
C2934  C     0.99261   0.66834   0.63485   0.00000  Uiso   1.00
C2935  C     0.97524   0.64139   0.65661   0.00000  Uiso   1.00
C2936  C     0.99928   0.81525   0.47928   0.00000  Uiso   1.00
C2937  C     0.93958   0.63204   0.64804   0.00000  Uiso   1.00
C2938  C     0.92125   0.64970   0.61776   0.00000  Uiso   1.00
C2939  C     0.93831   0.67691   0.59626   0.00000  Uiso   1.00
C2940  C     0.68423   0.98871   0.39434   0.00000  Uiso   1.00
C2941  C     0.66809   0.51444   0.36940   0.00000  Uiso   1.00
C2942  C     0.63979   0.50430   0.34469   0.00000  Uiso   1.00
C2943  C     0.62775   0.96834   0.34431   0.00000  Uiso   1.00
C2944  C     0.64382   0.94256   0.36886   0.00000  Uiso   1.00
C2945  C     0.67181   0.95271   0.39402   0.00000  Uiso   1.00
C2946  C     0.80872   0.96716   0.60083   0.00000  Uiso   1.00
C2947  C     0.71708   0.99813   0.41730   0.00000  Uiso   1.00
C2948  C     0.99598   0.68232   0.52044   0.00000  Uiso   1.00
C2949  C     0.83461   0.98259   0.62565   0.00000  Uiso   1.00
C2950  C     0.86230   0.96089   0.64085   0.00000  Uiso   1.00
C2951  C     0.86328   0.92366   0.63315   0.00000  Uiso   1.00
C2952  C     0.83710   0.90810   0.60905   0.00000  Uiso   1.00
C2953  C     0.81004   0.92979   0.59277   0.00000  Uiso   1.00
C2954  C     0.52276   0.68447   0.39621   0.00000  Uiso   1.00
C2955  C     0.50246   0.66693   0.36715   0.00000  Uiso   1.00
C2956  C     0.51656   0.63682   0.34749   0.00000  Uiso   1.00
C2957  C     0.55125   0.62420   0.35631   0.00000  Uiso   1.00
C2958  C     0.57186   0.64177   0.38472   0.00000  Uiso   1.00
C2959  C     0.68371   0.50681   0.47900   0.00000  Uiso   1.00
C2960  C     0.55774   0.67176   0.40469   0.00000  Uiso   1.00
C2961  C     0.52220   0.81324   0.60313   0.00000  Uiso   1.00
C2962  C     0.50100   0.83271   0.62995   0.00000  Uiso   1.00
C2963  C     0.51496   0.86338   0.64847   0.00000  Uiso   1.00
C2964  C     0.55016   0.87477   0.64061   0.00000  Uiso   1.00
C2965  C     0.57138   0.85548   0.61398   0.00000  Uiso   1.00
C2966  C     0.55759   0.82472   0.59543   0.00000  Uiso   1.00
C2967  C     0.81497   0.51899   0.39530   0.00000  Uiso   1.00
C2968  C     0.83160   0.99728   0.36659   0.00000  Uiso   1.00
C2969  C     0.86057   0.51076   0.34489   0.00000  Uiso   1.00
C2970  C     0.81535   0.99649   0.52059   0.00000  Uiso   1.00
C2971  C     0.87324   0.54591   0.35168   0.00000  Uiso   1.00
C2972  C     0.85692   0.56758   0.38017   0.00000  Uiso   1.00
C2973  C     0.82784   0.55433   0.40176   0.00000  Uiso   1.00
C2974  C     0.68685   0.52487   0.60383   0.00000  Uiso   1.00
C2975  C     0.66819   0.50476   0.63220   0.00000  Uiso   1.00
C2976  C     0.63904   0.52025   0.65200   0.00000  Uiso   1.00
C2977  C     0.62860   0.55605   0.64404   0.00000  Uiso   1.00
C2978  C     0.64710   0.57620   0.61589   0.00000  Uiso   1.00
C2979  C     0.67624   0.56080   0.59601   0.00000  Uiso   1.00
C2980  C     0.72703   0.56431   0.89632   0.00000  Uiso   1.00
C2981  C     0.75189   0.93373   0.97975   0.00000  Uiso   1.00
C2982  C     0.74733   0.58263   0.86783   0.00000  Uiso   1.00
C2983  C     0.73256   0.61229   0.84789   0.00000  Uiso   1.00
C2984  C     0.69736   0.62380   0.85602   0.00000  Uiso   1.00
C2985  C     0.67696   0.60565   0.88419   0.00000  Uiso   1.00
C2986  C     0.69165   0.57599   0.90424   0.00000  Uiso   1.00
C2987  C     0.72355   0.93730   0.10374   0.00000  Uiso   1.00
C2988  C     0.74198   0.91850   0.13359   0.00000  Uiso   1.00
C2989  C     0.72470   0.89096   0.15452   0.00000  Uiso   1.00
C2990  C     0.68904   0.88177   0.14572   0.00000  Uiso   1.00
C2991  C     0.67061   0.90018   0.11604   0.00000  Uiso   1.00
C2992  C     0.75323   0.56661   0.02060   0.00000  Uiso   1.00
C2993  C     0.68768   0.92787   0.09520   0.00000  Uiso   1.00
C2994  C     0.93615   0.73152   0.89527   0.00000  Uiso   1.00
C2995  C     0.91886   0.75363   0.86734   0.00000  Uiso   1.00
C2996  C     0.89110   0.73956   0.84420   0.00000  Uiso   1.00
C2997  C     0.88058   0.70335   0.84856   0.00000  Uiso   1.00
C2998  C     0.89764   0.68127   0.87627   0.00000  Uiso   1.00
C2999  C     0.92519   0.69528   0.89968   0.00000  Uiso   1.00
C3000  C     0.56424   0.72707   0.10367   0.00000  Uiso   1.00
C3001  C     0.58237   0.74766   0.13209   0.00000  Uiso   1.00
C3002  C     0.61187   0.73292   0.15202   0.00000  Uiso   1.00
C3003  C     0.56699   0.74935   0.97923   0.00000  Uiso   1.00
C3004  C     0.62313   0.69734   0.14429   0.00000  Uiso   1.00
C3005  C     0.60500   0.67661   0.11631   0.00000  Uiso   1.00
C3006  C     0.57570   0.69138   0.09601   0.00000  Uiso   1.00
C3007  C     0.77616   0.93754   0.89671   0.00000  Uiso   1.00
C3008  C     0.75681   0.91770   0.86867   0.00000  Uiso   1.00
C3009  C     0.77359   0.88948   0.84832   0.00000  Uiso   1.00
C3010  C     0.80988   0.88112   0.85534   0.00000  Uiso   1.00
C3011  C     0.82942   0.90101   0.88287   0.00000  Uiso   1.00
C3012  C     0.81262   0.92903   0.90365   0.00000  Uiso   1.00
C3013  C     0.77652   0.56238   0.10394   0.00000  Uiso   1.00
C3014  C     0.93472   0.75277   0.01982   0.00000  Uiso   1.00
C3015  C     0.75833   0.58163   0.13355   0.00000  Uiso   1.00
C3016  C     0.77606   0.60900   0.15433   0.00000  Uiso   1.00
C3017  C     0.81189   0.61752   0.14559   0.00000  Uiso   1.00
C3018  C     0.83002   0.59859   0.11613   0.00000  Uiso   1.00
C3019  C     0.81254   0.57108   0.09550   0.00000  Uiso   1.00
C3020  C     0.56482   0.77092   0.89544   0.00000  Uiso   1.00
C3021  C     0.58212   0.75061   0.86606   0.00000  Uiso   1.00
C3022  C     0.61030   0.76587   0.84450   0.00000  Uiso   1.00
C3023  C     0.62148   0.80140   0.85213   0.00000  Uiso   1.00
C3024  C     0.60457   0.82164   0.88143   0.00000  Uiso   1.00
C3025  C     0.74984   0.56679   0.97987   0.00000  Uiso   1.00
C3026  C     0.57633   0.80657   0.90294   0.00000  Uiso   1.00
C3027  C     0.93791   0.77424   0.10297   0.00000  Uiso   1.00
C3028  C     0.91865   0.75395   0.13057   0.00000  Uiso   1.00
C3029  C     0.89015   0.76982   0.15088   0.00000  Uiso   1.00
C3030  C     0.88075   0.80615   0.14404   0.00000  Uiso   1.00
C3031  C     0.89954   0.82634   0.11618   0.00000  Uiso   1.00
C3032  C     0.92814   0.81053   0.09578   0.00000  Uiso   1.00
C3033  C     0.74747   0.93367   0.02038   0.00000  Uiso   1.00
C3034  C     0.93472   0.75285   0.97906   0.00000  Uiso   1.00
C3035  C     0.78071   0.98957   0.58136   0.00000  Uiso   1.00
C3036  C     0.56701   0.74886   0.02003   0.00000  Uiso   1.00
C3037  C     0.75018   0.50009   0.35550   0.00000  Uiso   1.00
C3038  C     0.75028   0.99993   0.64429   0.00000  Uiso   1.00
C3039  C     0.50006   0.74935   0.35553   0.00000  Uiso   1.00
C3040  C     0.99996   0.74982   0.64446   0.00000  Uiso   1.00
C3041  C     0.50046   0.75001   0.85549   0.00000  Uiso   1.00
C3042  C     0.50039   0.74999   0.14431   0.00000  Uiso   1.00
C3043  C     0.75004   0.50013   0.85559   0.00000  Uiso   1.00
C3044  C     0.74996   0.99993   0.14448   0.00000  Uiso   1.00
C3045  C     0.68015   0.57031   0.24975   0.00000  Uiso   1.00
C3046  C     0.50786   0.71629   0.41790   0.00000  Uiso   1.00
C3047  C     0.82044   0.93044   0.74924   0.00000  Uiso   1.00
C3048  C     0.93023   0.67968   0.25032   0.00000  Uiso   1.00
C3049  C     0.56979   0.82039   0.74964   0.00000  Uiso   1.00
C3050  C     0.82004   0.92992   0.25006   0.00000  Uiso   1.00
C3051  C     0.68001   0.57005   0.74994   0.00000  Uiso   1.00
C3052  C     0.57002   0.82009   0.25002   0.00000  Uiso   1.00
C3053  C     0.92975   0.68008   0.75036   0.00000  Uiso   1.00
C3054  C     0.67993   0.93001   0.74982   0.00000  Uiso   1.00
C3055  C     0.82036   0.56983   0.25041   0.00000  Uiso   1.00
C3056  C     0.93051   0.82075   0.74917   0.00000  Uiso   1.00
C3057  C     0.50733   0.78143   0.58179   0.00000  Uiso   1.00
C3058  C     0.56990   0.67990   0.25006   0.00000  Uiso   1.00
C3059  C     0.81990   0.57021   0.75024   0.00000  Uiso   1.00
C3060  C     0.68002   0.92981   0.24993   0.00000  Uiso   1.00
C3061  C     0.57009   0.67998   0.75013   0.00000  Uiso   1.00
C3062  C     0.93006   0.82009   0.25005   0.00000  Uiso   1.00
C3063  C     0.62322   0.90357   0.22280   0.00000  Uiso   1.00
C3064  C     0.87605   0.59694   0.77862   0.00000  Uiso   1.00
C3065  C     0.59243   0.61873   0.23023   0.00000  Uiso   1.00
C3066  C     0.90965   0.88420   0.76582   0.00000  Uiso   1.00
C3067  C     0.87774   0.59560   0.22397   0.00000  Uiso   1.00
C3068  C     0.78284   0.50603   0.41757   0.00000  Uiso   1.00
C3069  C     0.62292   0.90431   0.77625   0.00000  Uiso   1.00
C3070  C     0.90818   0.88189   0.23181   0.00000  Uiso   1.00
C3071  C     0.59484   0.62095   0.77422   0.00000  Uiso   1.00
C3072  C     0.61914   0.59233   0.77000   0.00000  Uiso   1.00
C3073  C     0.87956   0.90610   0.22715   0.00000  Uiso   1.00
C3074  C     0.59484   0.87916   0.77436   0.00000  Uiso   1.00
C3075  C     0.90428   0.62245   0.22376   0.00000  Uiso   1.00
C3076  C     0.88535   0.91303   0.76045   0.00000  Uiso   1.00
C3077  C     0.62107   0.59455   0.22603   0.00000  Uiso   1.00
C3078  C     0.90318   0.62330   0.77810   0.00000  Uiso   1.00
C3079  C     0.71757   0.50873   0.58190   0.00000  Uiso   1.00
C3080  C     0.59633   0.87702   0.22295   0.00000  Uiso   1.00
C3081  C     0.87163   0.65505   0.72527   0.00000  Uiso   1.00
C3082  C     0.62707   0.84593   0.27692   0.00000  Uiso   1.00
C3083  C     0.84444   0.87079   0.72752   0.00000  Uiso   1.00
C3084  C     0.65679   0.63081   0.27155   0.00000  Uiso   1.00
C3085  C     0.62556   0.84761   0.72113   0.00000  Uiso   1.00
C3086  C     0.87578   0.65138   0.28037   0.00000  Uiso   1.00
C3087  C     0.65769   0.63144   0.73016   0.00000  Uiso   1.00
C3088  C     0.84407   0.87014   0.27289   0.00000  Uiso   1.00
C3089  C     0.86816   0.84140   0.26796   0.00000  Uiso   1.00
C3090  C     0.74227   0.53269   0.91807   0.00000  Uiso   1.00
C3091  C     0.62915   0.65584   0.72634   0.00000  Uiso   1.00
C3092  C     0.84889   0.62446   0.28046   0.00000  Uiso   1.00
C3093  C     0.65203   0.87465   0.72068   0.00000  Uiso   1.00
C3094  C     0.63149   0.65875   0.26837   0.00000  Uiso   1.00
C3095  C     0.87281   0.84621   0.72343   0.00000  Uiso   1.00
C3096  C     0.65403   0.87240   0.27663   0.00000  Uiso   1.00
C3097  C     0.84540   0.62798   0.72467   0.00000  Uiso   1.00
C3098  C     0.50261   0.71530   0.45883   0.00000  Uiso   1.00
C3099  C     0.50245   0.78222   0.54098   0.00000  Uiso   1.00
C3100  C     0.78320   0.50241   0.45863   0.00000  Uiso   1.00
H3101  H     0.95550   0.63963   0.42518   0.00000  Uiso   1.00
H3102  H     0.97629   0.90125   0.58610   0.00000  Uiso   1.00
H3103  H     0.92140   0.80769   0.94099   0.00000  Uiso   1.00
H3104  H     0.85402   0.79887   0.99370   0.00000  Uiso   1.00
H3105  H     0.89676   0.81877   0.00722   0.00000  Uiso   1.00
H3106  H     0.88700   0.86741   0.95591   0.00000  Uiso   1.00
H3107  H     0.85347   0.86739   0.99392   0.00000  Uiso   1.00
H3108  H     0.84264   0.84855   0.94674   0.00000  Uiso   1.00
H3109  H     0.62646   0.78415   0.07627   0.00000  Uiso   1.00
H3110  H     0.58352   0.80092   0.06104   0.00000  Uiso   1.00
H3111  H     0.65003   0.79198   0.00710   0.00000  Uiso   1.00
H3112  H     0.60748   0.81298   0.99431   0.00000  Uiso   1.00
H3113  H     0.98271   0.91780   0.53706   0.00000  Uiso   1.00
H3114  H     0.61739   0.85989   0.04695   0.00000  Uiso   1.00
H3115  H     0.65163   0.86025   0.00974   0.00000  Uiso   1.00
H3116  H     0.66132   0.83985   0.05651   0.00000  Uiso   1.00
H3117  H     0.61168   0.98181   0.21199   0.00000  Uiso   1.00
H3118  H     0.57736   0.94973   0.22491   0.00000  Uiso   1.00
H3119  H     0.59592   0.97383   0.14096   0.00000  Uiso   1.00
H3120  H     0.56172   0.94215   0.15424   0.00000  Uiso   1.00
H3121  H     0.53011   0.98901   0.19372   0.00000  Uiso   1.00
H3122  H     0.53481   0.50253   0.14323   0.00000  Uiso   1.00
H3123  H     0.56374   0.52195   0.17999   0.00000  Uiso   1.00
H3124  H     0.91682   0.92068   0.52631   0.00000  Uiso   1.00
H3125  H     0.83642   0.58251   0.83631   0.00000  Uiso   1.00
H3126  H     0.88070   0.59289   0.85585   0.00000  Uiso   1.00
H3127  H     0.84983   0.51578   0.84441   0.00000  Uiso   1.00
H3128  H     0.89303   0.52644   0.86474   0.00000  Uiso   1.00
H3129  H     0.86126   0.56203   0.91869   0.00000  Uiso   1.00
H3130  H     0.85140   0.51400   0.91797   0.00000  Uiso   1.00
H3131  H     0.81884   0.54568   0.89913   0.00000  Uiso   1.00
H3132  H     0.50937   0.61746   0.23813   0.00000  Uiso   1.00
H3133  H     0.54350   0.60698   0.27343   0.00000  Uiso   1.00
H3134  H     0.51237   0.55571   0.21123   0.00000  Uiso   1.00
H3135  H     0.92802   0.94466   0.57060   0.00000  Uiso   1.00
H3136  H     0.54835   0.54387   0.24481   0.00000  Uiso   1.00
H3137  H     0.50801   0.55372   0.30128   0.00000  Uiso   1.00
H3138  H     0.98724   0.52254   0.26746   0.00000  Uiso   1.00
H3139  H     0.97204   0.56913   0.26946   0.00000  Uiso   1.00
H3140  H     0.91942   0.85394   0.83047   0.00000  Uiso   1.00
H3141  H     0.91191   0.90198   0.83964   0.00000  Uiso   1.00
H3142  H     0.98726   0.86617   0.83776   0.00000  Uiso   1.00
H3143  H     0.97566   0.91147   0.85368   0.00000  Uiso   1.00
H3144  H     0.93821   0.88408   0.90804   0.00000  Uiso   1.00
H3145  H     0.98532   0.87136   0.91053   0.00000  Uiso   1.00
H3146  H     0.90867   0.89973   0.57320   0.00000  Uiso   1.00
H3147  H     0.95282   0.83936   0.89214   0.00000  Uiso   1.00
H3148  H     0.88944   0.51747   0.21266   0.00000  Uiso   1.00
H3149  H     0.92375   0.54954   0.22590   0.00000  Uiso   1.00
H3150  H     0.90505   0.52662   0.14155   0.00000  Uiso   1.00
H3151  H     0.93951   0.55779   0.15561   0.00000  Uiso   1.00
H3152  H     0.97105   0.51027   0.19363   0.00000  Uiso   1.00
H3153  H     0.96540   0.99683   0.14330   0.00000  Uiso   1.00
H3154  H     0.93700   0.97764   0.18069   0.00000  Uiso   1.00
H3155  H     0.66200   0.91658   0.83612   0.00000  Uiso   1.00
H3156  H     0.61717   0.90302   0.85175   0.00000  Uiso   1.00
H3157  H     0.84747   0.95167   0.43327   0.00000  Uiso   1.00
H3158  H     0.64263   0.98257   0.84850   0.00000  Uiso   1.00
H3159  H     0.60139   0.96536   0.86913   0.00000  Uiso   1.00
H3160  H     0.63957   0.92904   0.91793   0.00000  Uiso   1.00
H3161  H     0.64417   0.97777   0.92193   0.00000  Uiso   1.00
H3162  H     0.67898   0.95178   0.89829   0.00000  Uiso   1.00
H3163  H     0.98121   0.87819   0.25909   0.00000  Uiso   1.00
H3164  H     0.94793   0.90985   0.27750   0.00000  Uiso   1.00
H3165  H     0.50356   0.92731   0.21369   0.00000  Uiso   1.00
H3166  H     0.97104   0.95786   0.23551   0.00000  Uiso   1.00
H3167  H     0.99951   0.94688   0.30154   0.00000  Uiso   1.00
H3168  H     0.86211   0.94922   0.48364   0.00000  Uiso   1.00
H3169  H     0.52985   0.96698   0.26684   0.00000  Uiso   1.00
H3170  H     0.53365   0.91912   0.27803   0.00000  Uiso   1.00
H3171  H     0.58651   0.65882   0.83498   0.00000  Uiso   1.00
H3172  H     0.60001   0.61295   0.84840   0.00000  Uiso   1.00
H3173  H     0.52188   0.64137   0.85259   0.00000  Uiso   1.00
H3174  H     0.53957   0.59874   0.87090   0.00000  Uiso   1.00
H3175  H     0.58002   0.63417   0.91698   0.00000  Uiso   1.00
H3176  H     0.53232   0.64064   0.92540   0.00000  Uiso   1.00
H3177  H     0.55750   0.67535   0.90078   0.00000  Uiso   1.00
H3178  H     0.61015   0.50677   0.76560   0.00000  Uiso   1.00
H3179  H     0.90468   0.98836   0.41902   0.00000  Uiso   1.00
H3180  H     0.61320   0.54012   0.72826   0.00000  Uiso   1.00
H3181  H     0.54790   0.51770   0.77757   0.00000  Uiso   1.00
H3182  H     0.54792   0.56078   0.75209   0.00000  Uiso   1.00
H3183  H     0.55754   0.52973   0.68906   0.00000  Uiso   1.00
H3184  H     0.51862   0.51153   0.71350   0.00000  Uiso   1.00
H3185  H     0.56067   0.98619   0.71349   0.00000  Uiso   1.00
H3186  H     0.84128   0.91488   0.16748   0.00000  Uiso   1.00
H3187  H     0.88656   0.90239   0.15239   0.00000  Uiso   1.00
H3188  H     0.85936   0.98133   0.15197   0.00000  Uiso   1.00
H3189  H     0.89893   0.96226   0.12849   0.00000  Uiso   1.00
H3190  H     0.91902   0.97889   0.46835   0.00000  Uiso   1.00
H3191  H     0.85743   0.92433   0.08592   0.00000  Uiso   1.00
H3192  H     0.85277   0.97285   0.07924   0.00000  Uiso   1.00
H3193  H     0.81966   0.94880   0.10730   0.00000  Uiso   1.00
H3194  H     0.55823   0.93614   0.77312   0.00000  Uiso   1.00
H3195  H     0.52562   0.92185   0.80778   0.00000  Uiso   1.00
H3196  H     0.53542   0.88771   0.72617   0.00000  Uiso   1.00
H3197  H     0.50193   0.87548   0.76178   0.00000  Uiso   1.00
H3198  H     0.98164   0.94262   0.75992   0.00000  Uiso   1.00
H3199  H     0.97227   0.91535   0.71732   0.00000  Uiso   1.00
H3200  H     0.50943   0.94672   0.71663   0.00000  Uiso   1.00
H3201  H     0.91514   0.91158   0.45392   0.00000  Uiso   1.00
H3202  H     0.91659   0.66216   0.16537   0.00000  Uiso   1.00
H3203  H     0.90721   0.61722   0.14644   0.00000  Uiso   1.00
H3204  H     0.98278   0.65104   0.15574   0.00000  Uiso   1.00
H3205  H     0.97369   0.60658   0.13714   0.00000  Uiso   1.00
H3206  H     0.93674   0.63475   0.08250   0.00000  Uiso   1.00
H3207  H     0.98355   0.64833   0.08257   0.00000  Uiso   1.00
H3208  H     0.94972   0.67911   0.10045   0.00000  Uiso   1.00
H3209  H     0.87642   0.99811   0.76332   0.00000  Uiso   1.00
H3210  H     0.87458   0.96854   0.72208   0.00000  Uiso   1.00
H3211  H     0.94491   0.99465   0.76050   0.00000  Uiso   1.00
H3212  H     0.94323   0.64983   0.47484   0.00000  Uiso   1.00
H3213  H     0.94617   0.93487   0.42201   0.00000  Uiso   1.00
H3214  H     0.93966   0.97047   0.71459   0.00000  Uiso   1.00
H3215  H     0.90806   0.52289   0.68528   0.00000  Uiso   1.00
H3216  H     0.95053   0.53712   0.70560   0.00000  Uiso   1.00
H3217  H     0.90904   0.54671   0.73096   0.00000  Uiso   1.00
H3218  H     0.65988   0.58538   0.16670   0.00000  Uiso   1.00
H3219  H     0.61481   0.59844   0.15117   0.00000  Uiso   1.00
H3220  H     0.64158   0.51930   0.15092   0.00000  Uiso   1.00
H3221  H     0.60180   0.53834   0.12774   0.00000  Uiso   1.00
H3222  H     0.64284   0.57622   0.08470   0.00000  Uiso   1.00
H3223  H     0.64771   0.52770   0.07820   0.00000  Uiso   1.00
H3224  H     0.90194   0.92264   0.40434   0.00000  Uiso   1.00
H3225  H     0.68091   0.55204   0.10594   0.00000  Uiso   1.00
H3226  H     0.98068   0.60949   0.78735   0.00000  Uiso   1.00
H3227  H     0.94775   0.57544   0.77605   0.00000  Uiso   1.00
H3228  H     0.97437   0.59536   0.85866   0.00000  Uiso   1.00
H3229  H     0.94113   0.56186   0.84752   0.00000  Uiso   1.00
H3230  H     0.98575   0.52669   0.80805   0.00000  Uiso   1.00
H3231  H     0.50074   0.53306   0.85773   0.00000  Uiso   1.00
H3232  H     0.51974   0.56039   0.81928   0.00000  Uiso   1.00
H3233  H     0.57993   0.83817   0.16513   0.00000  Uiso   1.00
H3234  H     0.58958   0.88277   0.14559   0.00000  Uiso   1.00
H3235  H     0.64994   0.94735   0.53115   0.00000  Uiso   1.00
H3236  H     0.51324   0.85234   0.16071   0.00000  Uiso   1.00
H3237  H     0.52341   0.89561   0.13960   0.00000  Uiso   1.00
H3238  H     0.55578   0.86318   0.08410   0.00000  Uiso   1.00
H3239  H     0.50824   0.85304   0.08756   0.00000  Uiso   1.00
H3240  H     0.54072   0.82055   0.10504   0.00000  Uiso   1.00
H3241  H     0.86046   0.73487   0.71790   0.00000  Uiso   1.00
H3242  H     0.82938   0.70273   0.73810   0.00000  Uiso   1.00
H3243  H     0.83272   0.72212   0.65048   0.00000  Uiso   1.00
H3244  H     0.79925   0.69513   0.67461   0.00000  Uiso   1.00
H3245  H     0.77928   0.74789   0.71380   0.00000  Uiso   1.00
H3246  H     0.61805   0.97380   0.50263   0.00000  Uiso   1.00
H3247  H     0.77785   0.75820   0.66206   0.00000  Uiso   1.00
H3248  H     0.81344   0.77585   0.69198   0.00000  Uiso   1.00
H3249  H     0.58790   0.83223   0.33505   0.00000  Uiso   1.00
H3250  H     0.63245   0.84178   0.35437   0.00000  Uiso   1.00
H3251  H     0.60078   0.76500   0.34223   0.00000  Uiso   1.00
H3252  H     0.64360   0.77531   0.36372   0.00000  Uiso   1.00
H3253  H     0.61130   0.81035   0.41724   0.00000  Uiso   1.00
H3254  H     0.60004   0.76265   0.41543   0.00000  Uiso   1.00
H3255  H     0.56890   0.79558   0.39615   0.00000  Uiso   1.00
H3256  H     0.79445   0.85799   0.77437   0.00000  Uiso   1.00
H3257  H     0.61597   0.96007   0.59113   0.00000  Uiso   1.00
H3258  H     0.81055   0.81562   0.75363   0.00000  Uiso   1.00
H3259  H     0.73987   0.85523   0.73216   0.00000  Uiso   1.00
H3260  H     0.75574   0.81332   0.71148   0.00000  Uiso   1.00
H3261  H     0.75948   0.79277   0.78790   0.00000  Uiso   1.00
H3262  H     0.71795   0.79081   0.76147   0.00000  Uiso   1.00
H3263  H     0.72658   0.82870   0.79324   0.00000  Uiso   1.00
H3264  H     0.69061   0.60544   0.34462   0.00000  Uiso   1.00
H3265  H     0.64847   0.62933   0.34044   0.00000  Uiso   1.00
H3266  H     0.72309   0.66351   0.35506   0.00000  Uiso   1.00
H3267  H     0.68205   0.68884   0.34796   0.00000  Uiso   1.00
H3268  H     0.58635   0.99103   0.56567   0.00000  Uiso   1.00
H3269  H     0.65511   0.66028   0.40655   0.00000  Uiso   1.00
H3270  H     0.69782   0.68059   0.41862   0.00000  Uiso   1.00
H3271  H     0.69481   0.63192   0.41298   0.00000  Uiso   1.00
H3272  H     0.63764   0.76968   0.71012   0.00000  Uiso   1.00
H3273  H     0.67166   0.80229   0.72246   0.00000  Uiso   1.00
H3274  H     0.65266   0.77808   0.63883   0.00000  Uiso   1.00
H3275  H     0.68700   0.80993   0.65227   0.00000  Uiso   1.00
H3276  H     0.71863   0.76272   0.69141   0.00000  Uiso   1.00
H3277  H     0.71335   0.74878   0.64107   0.00000  Uiso   1.00
H3278  H     0.68480   0.72999   0.67860   0.00000  Uiso   1.00
H3279  H     0.56297   0.94038   0.52476   0.00000  Uiso   1.00
H3280  H     0.91821   0.66564   0.33746   0.00000  Uiso   1.00
H3281  H     0.87535   0.64979   0.35607   0.00000  Uiso   1.00
H3282  H     0.89957   0.72982   0.35306   0.00000  Uiso   1.00
H3283  H     0.85712   0.71351   0.37131   0.00000  Uiso   1.00
H3284  H     0.89119   0.67625   0.42202   0.00000  Uiso   1.00
H3285  H     0.89772   0.72470   0.42630   0.00000  Uiso   1.00
H3286  H     0.93252   0.69714   0.40497   0.00000  Uiso   1.00
H3287  H     0.74247   0.63590   0.73192   0.00000  Uiso   1.00
H3288  H     0.71029   0.63781   0.77051   0.00000  Uiso   1.00
H3289  H     0.73337   0.69914   0.71499   0.00000  Uiso   1.00
H3290  H     0.55796   0.93025   0.57591   0.00000  Uiso   1.00
H3291  H     0.69561   0.70339   0.74813   0.00000  Uiso   1.00
H3292  H     0.73578   0.69199   0.80483   0.00000  Uiso   1.00
H3293  H     0.75286   0.72898   0.77599   0.00000  Uiso   1.00
H3294  H     0.77389   0.68483   0.77260   0.00000  Uiso   1.00
H3295  H     0.83387   0.90761   0.33394   0.00000  Uiso   1.00
H3296  H     0.84882   0.86211   0.34661   0.00000  Uiso   1.00
H3297  H     0.76951   0.88660   0.35059   0.00000  Uiso   1.00
H3298  H     0.78976   0.84544   0.36983   0.00000  Uiso   1.00
H3299  H     0.82824   0.88521   0.41463   0.00000  Uiso   1.00
H3300  H     0.78028   0.88611   0.42395   0.00000  Uiso   1.00
H3301  H     0.59376   0.90890   0.54832   0.00000  Uiso   1.00
H3302  H     0.80073   0.92340   0.39869   0.00000  Uiso   1.00
H3303  H     0.85139   0.75566   0.26301   0.00000  Uiso   1.00
H3304  H     0.86894   0.78573   0.22727   0.00000  Uiso   1.00
H3305  H     0.79173   0.78557   0.26082   0.00000  Uiso   1.00
H3306  H     0.80762   0.81905   0.22677   0.00000  Uiso   1.00
H3307  H     0.81601   0.77347   0.17609   0.00000  Uiso   1.00
H3308  H     0.77231   0.76699   0.19640   0.00000  Uiso   1.00
H3309  H     0.80853   0.73660   0.21004   0.00000  Uiso   1.00
H3310  H     0.59004   0.66455   0.66690   0.00000  Uiso   1.00
H3311  H     0.63510   0.65134   0.65166   0.00000  Uiso   1.00
H3312  H     0.55101   0.84270   0.43755   0.00000  Uiso   1.00
H3313  H     0.60845   0.73048   0.65019   0.00000  Uiso   1.00
H3314  H     0.64816   0.71113   0.62737   0.00000  Uiso   1.00
H3315  H     0.60710   0.67273   0.58484   0.00000  Uiso   1.00
H3316  H     0.60236   0.72116   0.57754   0.00000  Uiso   1.00
H3317  H     0.56909   0.69729   0.60558   0.00000  Uiso   1.00
H3318  H     0.81535   0.67402   0.33352   0.00000  Uiso   1.00
H3319  H     0.77797   0.64529   0.33225   0.00000  Uiso   1.00
H3320  H     0.80894   0.67499   0.25489   0.00000  Uiso   1.00
H3321  H     0.76654   0.65269   0.26361   0.00000  Uiso   1.00
H3322  H     0.74774   0.70520   0.30562   0.00000  Uiso   1.00
H3323  H     0.98469   0.58109   0.44873   0.00000  Uiso   1.00
H3324  H     0.54873   0.86204   0.48614   0.00000  Uiso   1.00
H3325  H     0.76139   0.72031   0.25755   0.00000  Uiso   1.00
H3326  H     0.79133   0.72610   0.29833   0.00000  Uiso   1.00
H3327  H     0.65845   0.91578   0.66256   0.00000  Uiso   1.00
H3328  H     0.64872   0.87065   0.64409   0.00000  Uiso   1.00
H3329  H     0.72280   0.90815   0.64452   0.00000  Uiso   1.00
H3330  H     0.71484   0.86255   0.62840   0.00000  Uiso   1.00
H3331  H     0.67262   0.88530   0.57675   0.00000  Uiso   1.00
H3332  H     0.71687   0.90534   0.57239   0.00000  Uiso   1.00
H3333  H     0.68032   0.93142   0.59277   0.00000  Uiso   1.00
H3334  H     0.62993   0.74343   0.26556   0.00000  Uiso   1.00
H3335  H     0.52046   0.89900   0.41134   0.00000  Uiso   1.00
H3336  H     0.63696   0.71103   0.22731   0.00000  Uiso   1.00
H3337  H     0.69300   0.73807   0.28641   0.00000  Uiso   1.00
H3338  H     0.70120   0.70428   0.24893   0.00000  Uiso   1.00
H3339  H     0.69077   0.74804   0.19701   0.00000  Uiso   1.00
H3340  H     0.71982   0.77006   0.23203   0.00000  Uiso   1.00
H3341  H     0.67264   0.78147   0.23046   0.00000  Uiso   1.00
H3342  H     0.91006   0.83058   0.66424   0.00000  Uiso   1.00
H3343  H     0.86518   0.84419   0.64888   0.00000  Uiso   1.00
H3344  H     0.88982   0.76449   0.65424   0.00000  Uiso   1.00
H3345  H     0.84888   0.78251   0.63276   0.00000  Uiso   1.00
H3346  H     0.52050   0.91787   0.45990   0.00000  Uiso   1.00
H3347  H     0.88639   0.81608   0.58306   0.00000  Uiso   1.00
H3348  H     0.89197   0.76732   0.58105   0.00000  Uiso   1.00
H3349  H     0.92638   0.79465   0.60337   0.00000  Uiso   1.00
H3350  H     0.73216   0.85984   0.28691   0.00000  Uiso   1.00
H3351  H     0.69988   0.82631   0.27221   0.00000  Uiso   1.00
H3352  H     0.72292   0.84161   0.35734   0.00000  Uiso   1.00
H3353  H     0.69169   0.80768   0.34171   0.00000  Uiso   1.00
H3354  H     0.73932   0.77719   0.30246   0.00000  Uiso   1.00
H3355  H     0.75165   0.78040   0.35326   0.00000  Uiso   1.00
H3356  H     0.77150   0.81073   0.31798   0.00000  Uiso   1.00
H3357  H     0.58826   0.91403   0.46139   0.00000  Uiso   1.00
H3358  H     0.83386   0.58908   0.66604   0.00000  Uiso   1.00
H3359  H     0.84275   0.63443   0.64769   0.00000  Uiso   1.00
H3360  H     0.76622   0.60355   0.65773   0.00000  Uiso   1.00
H3361  H     0.77913   0.64472   0.63322   0.00000  Uiso   1.00
H3362  H     0.81400   0.60726   0.58400   0.00000  Uiso   1.00
H3363  H     0.76647   0.59637   0.58522   0.00000  Uiso   1.00
H3364  H     0.79849   0.56651   0.60852   0.00000  Uiso   1.00
H3365  H     0.52279   0.82621   0.36270   0.00000  Uiso   1.00
H3366  H     0.99302   0.87689   0.32836   0.00000  Uiso   1.00
H3367  H     0.92865   0.89158   0.34170   0.00000  Uiso   1.00
H3368  H     0.57230   0.94077   0.42063   0.00000  Uiso   1.00
H3369  H     0.89484   0.85595   0.39100   0.00000  Uiso   1.00
H3370  H     0.92422   0.80534   0.42572   0.00000  Uiso   1.00
H3371  H     0.52022   0.67519   0.64190   0.00000  Uiso   1.00
H3372  H     0.98946   0.62772   0.68006   0.00000  Uiso   1.00
H3373  H     0.92618   0.61110   0.66479   0.00000  Uiso   1.00
H3374  H     0.89379   0.64237   0.61079   0.00000  Uiso   1.00
H3375  H     0.92355   0.69069   0.57325   0.00000  Uiso   1.00
H3376  H     0.67779   0.54215   0.36880   0.00000  Uiso   1.00
H3377  H     0.62754   0.52421   0.32545   0.00000  Uiso   1.00
H3378  H     0.60619   0.96037   0.32477   0.00000  Uiso   1.00
H3379  H     0.58785   0.89479   0.41277   0.00000  Uiso   1.00
H3380  H     0.63493   0.91461   0.36800   0.00000  Uiso   1.00
H3381  H     0.68452   0.93235   0.41236   0.00000  Uiso   1.00
H3382  H     0.83417   0.51143   0.63190   0.00000  Uiso   1.00
H3383  H     0.88361   0.97296   0.65774   0.00000  Uiso   1.00
H3384  H     0.88482   0.90712   0.64515   0.00000  Uiso   1.00
H3385  H     0.83810   0.87946   0.60213   0.00000  Uiso   1.00
H3386  H     0.79026   0.91756   0.57355   0.00000  Uiso   1.00
H3387  H     0.97570   0.67640   0.35991   0.00000  Uiso   1.00
H3388  H     0.50049   0.62328   0.32550   0.00000  Uiso   1.00
H3389  H     0.56219   0.60079   0.34123   0.00000  Uiso   1.00
H3390  H     0.54220   0.65328   0.56643   0.00000  Uiso   1.00
H3391  H     0.59868   0.63191   0.39140   0.00000  Uiso   1.00
H3392  H     0.57395   0.68502   0.42680   0.00000  Uiso   1.00
H3393  H     0.97358   0.82457   0.63603   0.00000  Uiso   1.00
H3394  H     0.99816   0.87857   0.66838   0.00000  Uiso   1.00
H3395  H     0.56084   0.89873   0.65479   0.00000  Uiso   1.00
H3396  H     0.59828   0.86466   0.60712   0.00000  Uiso   1.00
H3397  H     0.57422   0.81015   0.57462   0.00000  Uiso   1.00
H3398  H     0.82201   0.97016   0.36071   0.00000  Uiso   1.00
H3399  H     0.87312   0.99397   0.32274   0.00000  Uiso   1.00
H3400  H     0.89565   0.55637   0.33486   0.00000  Uiso   1.00
H3401  H     0.54241   0.63052   0.51950   0.00000  Uiso   1.00
H3402  H     0.86678   0.59468   0.38564   0.00000  Uiso   1.00
H3403  H     0.81526   0.57161   0.42347   0.00000  Uiso   1.00
H3404  H     0.67609   0.97716   0.63892   0.00000  Uiso   1.00
H3405  H     0.62450   0.50429   0.67329   0.00000  Uiso   1.00
H3406  H     0.60609   0.56814   0.65946   0.00000  Uiso   1.00
H3407  H     0.63867   0.60360   0.60901   0.00000  Uiso   1.00
H3408  H     0.69042   0.57674   0.57434   0.00000  Uiso   1.00
H3409  H     0.77460   0.57417   0.86121   0.00000  Uiso   1.00
H3410  H     0.74858   0.62641   0.82634   0.00000  Uiso   1.00
H3411  H     0.68594   0.64686   0.84065   0.00000  Uiso   1.00
H3412  H     0.50297   0.60034   0.59154   0.00000  Uiso   1.00
H3413  H     0.64990   0.61478   0.89086   0.00000  Uiso   1.00
H3414  H     0.67557   0.56220   0.92606   0.00000  Uiso   1.00
H3415  H     0.76959   0.92519   0.14080   0.00000  Uiso   1.00
H3416  H     0.73896   0.87673   0.17756   0.00000  Uiso   1.00
H3417  H     0.67566   0.86046   0.16195   0.00000  Uiso   1.00
H3418  H     0.64303   0.89309   0.10920   0.00000  Uiso   1.00
H3419  H     0.67292   0.94216   0.07254   0.00000  Uiso   1.00
H3420  H     0.92715   0.78156   0.86326   0.00000  Uiso   1.00
H3421  H     0.87802   0.75663   0.82261   0.00000  Uiso   1.00
H3422  H     0.85935   0.69234   0.83037   0.00000  Uiso   1.00
H3423  H     0.51245   0.57759   0.54623   0.00000  Uiso   1.00
H3424  H     0.88978   0.65318   0.87942   0.00000  Uiso   1.00
H3425  H     0.93860   0.67769   0.92057   0.00000  Uiso   1.00
H3426  H     0.57407   0.77523   0.13837   0.00000  Uiso   1.00
H3427  H     0.62600   0.74928   0.17328   0.00000  Uiso   1.00
H3428  H     0.64599   0.68590   0.15977   0.00000  Uiso   1.00
H3429  H     0.61382   0.64922   0.10997   0.00000  Uiso   1.00
H3430  H     0.56195   0.67507   0.07431   0.00000  Uiso   1.00
H3431  H     0.72876   0.92390   0.86275   0.00000  Uiso   1.00
H3432  H     0.75829   0.87411   0.82724   0.00000  Uiso   1.00
H3433  H     0.82289   0.85924   0.83952   0.00000  Uiso   1.00
H3434  H     0.96843   0.59123   0.49710   0.00000  Uiso   1.00
H3435  H     0.56856   0.60393   0.60645   0.00000  Uiso   1.00
H3436  H     0.85754   0.89464   0.88818   0.00000  Uiso   1.00
H3437  H     0.82801   0.94427   0.92494   0.00000  Uiso   1.00
H3438  H     0.73061   0.57540   0.14068   0.00000  Uiso   1.00
H3439  H     0.76202   0.62361   0.17720   0.00000  Uiso   1.00
H3440  H     0.82560   0.63874   0.16163   0.00000  Uiso   1.00
H3441  H     0.85763   0.60519   0.10908   0.00000  Uiso   1.00
H3442  H     0.82708   0.55643   0.07300   0.00000  Uiso   1.00
H3443  H     0.57357   0.72323   0.85950   0.00000  Uiso   1.00
H3444  H     0.62334   0.75020   0.82175   0.00000  Uiso   1.00
H3445  H     0.64323   0.81324   0.83536   0.00000  Uiso   1.00
H3446  H     0.57899   0.58180   0.56053   0.00000  Uiso   1.00
H3447  H     0.61328   0.84904   0.88757   0.00000  Uiso   1.00
H3448  H     0.56321   0.82274   0.92526   0.00000  Uiso   1.00
H3449  H     0.92565   0.72594   0.13644   0.00000  Uiso   1.00
H3450  H     0.87547   0.75354   0.17169   0.00000  Uiso   1.00
H3451  H     0.85885   0.81869   0.16004   0.00000  Uiso   1.00
H3452  H     0.89186   0.85412   0.11009   0.00000  Uiso   1.00
H3453  H     0.94265   0.82646   0.07436   0.00000  Uiso   1.00
H3454  H     0.55476   0.55760   0.59802   0.00000  Uiso   1.00
H3455  H     0.62940   0.55598   0.42850   0.00000  Uiso   1.00
H3456  H     0.67353   0.56567   0.44638   0.00000  Uiso   1.00
H3457  H     0.60637   0.55448   0.49920   0.00000  Uiso   1.00
H3458  H     0.64998   0.57149   0.51391   0.00000  Uiso   1.00
H3459  H     0.64108   0.62521   0.46875   0.00000  Uiso   1.00
H3460  H     0.60855   0.62255   0.50766   0.00000  Uiso   1.00
H3461  H     0.59574   0.60901   0.45903   0.00000  Uiso   1.00
H3462  H     0.90453   0.59267   0.47071   0.00000  Uiso   1.00
H3463  H     0.84505   0.54403   0.56807   0.00000  Uiso   1.00
H3464  H     0.86187   0.54587   0.51852   0.00000  Uiso   1.00
H3465  H     0.90159   0.50847   0.58670   0.00000  Uiso   1.00
H3466  H     0.91789   0.51491   0.53764   0.00000  Uiso   1.00
H3467  H     0.89901   0.57513   0.59702   0.00000  Uiso   1.00
H3468  H     0.91433   0.58291   0.54747   0.00000  Uiso   1.00
H3469  H     0.94367   0.56096   0.58246   0.00000  Uiso   1.00
H3470  H     0.70726   0.90318   0.93030   0.00000  Uiso   1.00
H3471  H     0.70353   0.88579   0.97949   0.00000  Uiso   1.00
H3472  H     0.74573   0.84679   0.91437   0.00000  Uiso   1.00
H3473  H     0.92665   0.54931   0.46448   0.00000  Uiso   1.00
H3474  H     0.73454   0.82973   0.96213   0.00000  Uiso   1.00
H3475  H     0.66831   0.83361   0.94440   0.00000  Uiso   1.00
H3476  H     0.69344   0.80434   0.91200   0.00000  Uiso   1.00
H3477  H     0.68094   0.84945   0.89621   0.00000  Uiso   1.00
H3478  H     0.70801   0.59780   0.06873   0.00000  Uiso   1.00
H3479  H     0.70552   0.61575   0.01952   0.00000  Uiso   1.00
H3480  H     0.74572   0.65279   0.08737   0.00000  Uiso   1.00
H3481  H     0.73807   0.67067   0.03902   0.00000  Uiso   1.00
H3482  H     0.67076   0.66889   0.05164   0.00000  Uiso   1.00
H3483  H     0.69459   0.69714   0.08611   0.00000  Uiso   1.00
H3484  H     0.92224   0.57964   0.42338   0.00000  Uiso   1.00
H3485  H     0.68010   0.65234   0.10050   0.00000  Uiso   1.00
H3486  H     0.61031   0.70282   0.92846   0.00000  Uiso   1.00
H3487  H     0.60129   0.69382   0.97922   0.00000  Uiso   1.00
H3488  H     0.66768   0.73540   0.94844   0.00000  Uiso   1.00
H3489  H     0.65875   0.72273   0.99835   0.00000  Uiso   1.00
H3490  H     0.65931   0.65640   0.97780   0.00000  Uiso   1.00
H3491  H     0.70153   0.67931   0.96914   0.00000  Uiso   1.00
H3492  H     0.67127   0.67088   0.92893   0.00000  Uiso   1.00
H3493  H     0.90344   0.70075   0.05845   0.00000  Uiso   1.00
H3494  H     0.88437   0.70704   0.01010   0.00000  Uiso   1.00
H3495  H     0.94823   0.84494   0.56105   0.00000  Uiso   1.00
H3496  H     0.85039   0.73344   0.08715   0.00000  Uiso   1.00
H3497  H     0.83179   0.73977   0.03898   0.00000  Uiso   1.00
H3498  H     0.82758   0.67253   0.03025   0.00000  Uiso   1.00
H3499  H     0.80409   0.68699   0.07373   0.00000  Uiso   1.00
H3500  H     0.84787   0.66575   0.07787   0.00000  Uiso   1.00
H3501  H     0.79690   0.59669   0.93179   0.00000  Uiso   1.00
H3502  H     0.80033   0.61204   0.98186   0.00000  Uiso   1.00
H3503  H     0.76215   0.65492   0.91641   0.00000  Uiso   1.00
H3504  H     0.77086   0.66973   0.96570   0.00000  Uiso   1.00
H3505  H     0.83777   0.66474   0.95306   0.00000  Uiso   1.00
H3506  H     0.95117   0.86208   0.51152   0.00000  Uiso   1.00
H3507  H     0.81565   0.69569   0.91974   0.00000  Uiso   1.00
H3508  H     0.82799   0.65074   0.90340   0.00000  Uiso   1.00
H3509  H     0.79231   0.90399   0.06952   0.00000  Uiso   1.00
H3510  H     0.79592   0.88498   0.02093   0.00000  Uiso   1.00
H3511  H     0.75509   0.84850   0.08860   0.00000  Uiso   1.00
H3512  H     0.76460   0.82975   0.04112   0.00000  Uiso   1.00
H3513  H     0.83126   0.83305   0.05585   0.00000  Uiso   1.00
H3514  H     0.80728   0.80568   0.09092   0.00000  Uiso   1.00
H3515  H     0.82079   0.85122   0.10368   0.00000  Uiso   1.00
H3516  H     0.87810   0.79396   0.92381   0.00000  Uiso   1.00
O3517  O     0.75000   0.50000   0.25000   0.00000  Uiso   1.00
O3518  O     0.75000   0.96964   0.66245   0.00000  Uiso   1.00
O3519  O     0.81566   0.63244   0.70059   0.00000  Uiso   1.00
O3520  O     0.96964   0.75000   0.33755   0.00000  Uiso   1.00
O3521  O     0.53037   0.75000   0.66245   0.00000  Uiso   1.00
O3522  O     0.50000   0.71964   0.83755   0.00000  Uiso   1.00
O3523  O     0.50000   0.78037   0.16245   0.00000  Uiso   1.00
O3524  O     0.78037   0.50000   0.83755   0.00000  Uiso   1.00
O3525  O     0.71964   0.50000   0.16245   0.00000  Uiso   1.00
O3526  O     0.50000   0.78037   0.83755   0.00000  Uiso   1.00
O3527  O     0.50000   0.71964   0.16245   0.00000  Uiso   1.00
O3528  O     0.71964   0.50000   0.83755   0.00000  Uiso   1.00
O3529  O     0.75000   0.50000   0.75000   0.00000  Uiso   1.00
O3530  O     0.78037   0.50000   0.16245   0.00000  Uiso   1.00
O3531  O     0.70725   0.57308   0.27302   0.00000  Uiso   1.00
O3532  O     0.79276   0.92693   0.72698   0.00000  Uiso   1.00
O3533  O     0.92693   0.70725   0.27302   0.00000  Uiso   1.00
O3534  O     0.57308   0.79276   0.72698   0.00000  Uiso   1.00
O3535  O     0.79276   0.92693   0.27302   0.00000  Uiso   1.00
O3536  O     0.70725   0.57308   0.72698   0.00000  Uiso   1.00
O3537  O     0.57308   0.79276   0.27302   0.00000  Uiso   1.00
O3538  O     0.92693   0.70725   0.72698   0.00000  Uiso   1.00
O3539  O     0.70725   0.92693   0.72698   0.00000  Uiso   1.00
O3540  O     0.50000   0.75000   0.25000   0.00000  Uiso   1.00
O3541  O     0.79276   0.57308   0.27302   0.00000  Uiso   1.00
O3542  O     0.92693   0.79276   0.72698   0.00000  Uiso   1.00
O3543  O     0.57308   0.70725   0.27302   0.00000  Uiso   1.00
O3544  O     0.79276   0.57308   0.72698   0.00000  Uiso   1.00
O3545  O     0.70725   0.92693   0.27302   0.00000  Uiso   1.00
O3546  O     0.57308   0.70725   0.72698   0.00000  Uiso   1.00
O3547  O     0.92693   0.79276   0.27302   0.00000  Uiso   1.00
O3548  O     0.95725   0.82308   0.77302   0.00000  Uiso   1.00
O3549  O     0.54276   0.67693   0.22698   0.00000  Uiso   1.00
O3550  O     0.67693   0.95725   0.77302   0.00000  Uiso   1.00
O3551  O     0.50000   0.75000   0.75000   0.00000  Uiso   1.00
O3552  O     0.82308   0.54276   0.22698   0.00000  Uiso   1.00
O3553  O     0.54276   0.67693   0.77302   0.00000  Uiso   1.00
O3554  O     0.95725   0.82308   0.22698   0.00000  Uiso   1.00
O3555  O     0.82308   0.54276   0.77302   0.00000  Uiso   1.00
O3556  O     0.67693   0.95725   0.22698   0.00000  Uiso   1.00
O3557  O     0.95725   0.67693   0.22698   0.00000  Uiso   1.00
O3558  O     0.54276   0.82308   0.77302   0.00000  Uiso   1.00
O3559  O     0.67693   0.54276   0.22698   0.00000  Uiso   1.00
O3560  O     0.82308   0.95725   0.77302   0.00000  Uiso   1.00
O3561  O     0.54276   0.82308   0.22698   0.00000  Uiso   1.00
O3562  O     0.75000   0.96964   0.33755   0.00000  Uiso   1.00
O3563  O     0.95725   0.67693   0.77302   0.00000  Uiso   1.00
O3564  O     0.82308   0.95725   0.22698   0.00000  Uiso   1.00
O3565  O     0.67693   0.54276   0.77302   0.00000  Uiso   1.00
O3566  O     0.99938   0.64900   0.46054   0.00000  Uiso   1.00
O3567  O     0.50019   0.84862   0.53902   0.00000  Uiso   1.00
O3568  O     0.84920   0.50112   0.46169   0.00000  Uiso   1.00
O3569  O     0.65071   0.50397   0.53973   0.00000  Uiso   1.00
O3570  O     0.99937   0.84834   0.45994   0.00000  Uiso   1.00
O3571  O     0.99233   0.64924   0.53929   0.00000  Uiso   1.00
O3572  O     0.65151   0.51408   0.45980   0.00000  Uiso   1.00
O3573  O     0.75000   0.53037   0.66245   0.00000  Uiso   1.00
O3574  O     0.84802   0.99422   0.54017   0.00000  Uiso   1.00
O3575  O     0.75540   0.90059   0.96096   0.00000  Uiso   1.00
O3576  O     0.75677   0.59967   0.03946   0.00000  Uiso   1.00
O3577  O     0.59992   0.74909   0.96010   0.00000  Uiso   1.00
O3578  O     0.90182   0.75410   0.03893   0.00000  Uiso   1.00
O3579  O     0.74821   0.60009   0.96109   0.00000  Uiso   1.00
O3580  O     0.74413   0.90048   0.03910   0.00000  Uiso   1.00
O3581  O     0.90183   0.75669   0.96008   0.00000  Uiso   1.00
O3582  O     0.60019   0.74997   0.03879   0.00000  Uiso   1.00
O3583  O     0.62286   0.92966   0.19357   0.00000  Uiso   1.00
O3584  O     0.53037   0.75000   0.33755   0.00000  Uiso   1.00
O3585  O     0.88069   0.56666   0.80220   0.00000  Uiso   1.00
O3586  O     0.55951   0.60972   0.21354   0.00000  Uiso   1.00
O3587  O     0.93990   0.88981   0.78859   0.00000  Uiso   1.00
O3588  O     0.87795   0.56967   0.19465   0.00000  Uiso   1.00
O3589  O     0.61924   0.93388   0.80095   0.00000  Uiso   1.00
O3590  O     0.94199   0.89225   0.21861   0.00000  Uiso   1.00
O3591  O     0.56632   0.61705   0.79991   0.00000  Uiso   1.00
O3592  O     0.61055   0.55911   0.78674   0.00000  Uiso   1.00
O3593  O     0.88361   0.93506   0.20179   0.00000  Uiso   1.00
O3594  O     0.56514   0.88380   0.79843   0.00000  Uiso   1.00
O3595  O     0.96964   0.75000   0.66245   0.00000  Uiso   1.00
O3596  O     0.93398   0.61811   0.19958   0.00000  Uiso   1.00
O3597  O     0.89493   0.94688   0.77565   0.00000  Uiso   1.00
O3598  O     0.61718   0.56563   0.20060   0.00000  Uiso   1.00
O3599  O     0.92960   0.62248   0.80680   0.00000  Uiso   1.00
O3600  O     0.56571   0.88258   0.20041   0.00000  Uiso   1.00
O3601  O     0.86928   0.68290   0.69818   0.00000  Uiso   1.00
O3602  O     0.63170   0.81567   0.30053   0.00000  Uiso   1.00
O3603  O     0.81021   0.86020   0.71604   0.00000  Uiso   1.00
O3604  O     0.68707   0.63626   0.29456   0.00000  Uiso   1.00
O3605  O     0.62556   0.82168   0.69180   0.00000  Uiso   1.00
O3606  O     0.75000   0.53037   0.33755   0.00000  Uiso   1.00
O3607  O     0.87280   0.68079   0.30533   0.00000  Uiso   1.00
O3608  O     0.69017   0.63980   0.71219   0.00000  Uiso   1.00
O3609  O     0.81520   0.86575   0.29803   0.00000  Uiso   1.00
O3610  O     0.85866   0.80771   0.28289   0.00000  Uiso   1.00
O3611  O     0.63274   0.68461   0.70062   0.00000  Uiso   1.00
O3612  O     0.82347   0.62221   0.31027   0.00000  Uiso   1.00
O3613  O     0.68011   0.87206   0.69413   0.00000  Uiso   1.00
O3614  O     0.63923   0.69172   0.28606   0.00000  Uiso   1.00
O3615  O     0.86750   0.81548   0.70094   0.00000  Uiso   1.00
O3616  O     0.68047   0.87141   0.30533   0.00000  Uiso   1.00
Zn3617 Zn    0.70660   0.50000   0.21735   0.00000  Uiso   1.00
Zn3618 Zn    0.54341   0.75000   0.28265   0.00000  Uiso   1.00
Zn3619 Zn    0.75000   0.95660   0.71735   0.00000  Uiso   1.00
Zn3620 Zn    0.75000   0.54341   0.28265   0.00000  Uiso   1.00
Zn3621 Zn    0.54341   0.75000   0.71735   0.00000  Uiso   1.00
Zn3622 Zn    0.95660   0.75000   0.28265   0.00000  Uiso   1.00
Zn3623 Zn    0.75000   0.54341   0.71735   0.00000  Uiso   1.00
Zn3624 Zn    0.75000   0.95660   0.28265   0.00000  Uiso   1.00
Zn3625 Zn    0.79341   0.50000   0.78265   0.00000  Uiso   1.00
Zn3626 Zn    0.50000   0.70660   0.21735   0.00000  Uiso   1.00
Zn3627 Zn    0.50000   0.79341   0.78265   0.00000  Uiso   1.00
Zn3628 Zn    0.79341   0.50000   0.21735   0.00000  Uiso   1.00
Zn3629 Zn    0.70660   0.50000   0.78265   0.00000  Uiso   1.00
Zn3630 Zn    0.50000   0.79341   0.21735   0.00000  Uiso   1.00
Zn3631 Zn    0.50000   0.70660   0.78265   0.00000  Uiso   1.00
Zn3632 Zn    0.95660   0.75000   0.71735   0.00000  Uiso   1.00
loop_
_geom_bond_atom_site_label_1
_geom_bond_atom_site_label_2
_geom_bond_distance
_geom_bond_site_symmetry_2
_ccdc_geom_bond_type
C1     C203    1.487   .     S
C1     C4      1.407   .     A
C1     C987    1.402   .     S
C2     C14     1.413   .     A
C2     C135    1.407   .     A
C2     C263    1.494   .     S
C3     C38     1.420   .     A
C3     C355    1.416   .     A
C3     C201    1.415   .     A
C4     C34     1.419   .     A
C4     C212    1.413   .     A
C5     C36     1.421   .     A
C5     C112    1.416   .     A
C5     C224    1.418   .     A
C6     C37     1.421   .     A
C6     C235    1.416   .     A
C6     C2039   1.410   1_545 S
C7     C246    1.413   .     A
C7     C311    1.407   .     A
C7     C1854   1.416   .     S
C8     C35     1.412   .     A
C8     C257    1.417   .     A
C8     C1855   1.418   .     S
C9     C46     1.412   .     A
C9     C40     1.419   .     A
C9     C268    1.416   .     A
C10    C41     1.421   .     A
C10    C279    1.414   .     A
C10    C57     1.411   .     A
C11    C290    1.416   .     A
C11    C68     1.410   .     A
C11    C950    1.419   .     S
C12    C301    1.417   .     A
C12    C39     1.420   .     A
C12    C366    1.414   .     A
C13    C15     1.408   .     A
C13    C270    1.491   .     S
C13    C1054   1.401   .     S
C14    C309    1.417   .     A
C14    C1856   1.420   .     S
C15    C310    1.415   .     A
C15    C949    1.422   .     S
C16    C312    1.419   .     A
C16    C24     1.414   .     A
C16    C42     1.420   .     A
C17    C328    1.468   .     S
C17    C358    1.415   .     A
C17    C356    1.412   .     A
C18    C357    1.413   .     A
C18    C354    1.413   .     A
C18    C329    1.471   .     S
C19    C321    1.467   .     S
C19    C353    1.414   .     A
C19    C360    1.413   .     A
C20    C359    1.412   .     A
C20    C323    1.464   .     S
C20    C352    1.422   .     A
C21    C362    1.414   .     A
C21    C324    1.469   .     S
C21    C351    1.410   .     A
C22    C361    1.412   .     A
C22    C325    1.473   .     S
C22    C350    1.413   .     A
C23    C364    1.411   .     A
C23    C326    1.466   .     S
C23    C349    1.413   .     A
C24    C157    1.405   .     A
C24    C276    1.487   .     S
C25    C363    1.414   .     A
C25    C327    1.463   .     S
C25    C348    1.415   .     A
C26    C347    1.411   .     A
C26    C337    1.465   .     S
C26    C367    1.414   .     A
C27    C346    1.412   .     A
C27    C338    1.462   .     S
C27    C365    1.416   .     A
C28    C369    1.411   .     A
C28    C345    1.410   .     A
C28    C330    1.467   .     S
C29    C343    1.414   .     A
C29    C368    1.413   .     A
C29    C331    1.474   .     S
C30    C342    1.417   .     A
C30    C371    1.408   .     A
C30    C332    1.475   .     S
C31    C334    1.461   .     S
C31    C370    1.413   .     A
C31    C341    1.413   .     A
C32    C340    1.415   .     A
C32    C373    1.410   .     A
C32    C335    1.468   .     S
C33    C339    1.414   .     A
C33    C372    1.413   .     A
C33    C336    1.470   .     S
C34    C36     1.411   .     A
C34    C1282   1.419   .     S
C35    C283    1.487   .     S
C35    C1940   1.406   .     S
C36    C1283   1.420   .     S
C37    C38     1.411   .     A
C37    C376    1.425   .     A
C38    C1823   1.416   1_545 S
C39    C1824   1.418   1_545 S
C39    C40     1.410   1_556 S
C40    C1830   1.420   1_545 S
C40    C39     1.410   1_554 S
C41    C923    1.422   1_455 S
C41    C42     1.411   1_556 S
C42    C919    1.419   1_455 S
C42    C41     1.411   1_554 S
C43    C44     1.529   .     S
C43    H488    1.118   .     S
C43    H377    1.109   .     S
C43    O842    1.417   .     S
C44    C45     1.525   .     S
C44    H710    1.109   .     S
C44    H599    1.112   .     S
C45    H760    1.109   .     S
C45    H738    1.111   .     S
C45    H749    1.110   .     S
C46    C289    1.492   .     S
C46    C1951   1.406   1_545 S
C47    H782    1.115   .     S
C47    H771    1.112   .     S
C47    C48     1.528   .     S
C47    O1751   1.413   .     S
C48    H378    1.111   .     S
C48    C49     1.525   .     S
C48    H389    1.112   .     S
C49    H411    1.110   .     S
C49    H422    1.109   .     S
C49    H400    1.110   .     S
C50    H444    1.115   .     S
C50    C51     1.528   .     S
C50    H433    1.109   .     S
C50    O2660   1.411   .     S
C51    H466    1.112   .     S
C51    C52     1.523   .     S
C51    H455    1.112   .     S
C52    H500    1.110   .     S
C52    H477    1.110   .     S
C52    H489    1.111   .     S
C53    H511    1.115   .     S
C53    C54     1.529   .     S
C53    H522    1.111   .     S
C53    O2661   1.416   .     S
C54    H544    1.112   .     S
C54    H533    1.111   .     S
C54    C55     1.527   .     S
C55    H566    1.110   .     S
C55    H555    1.111   .     S
C55    H577    1.111   .     S
C56    H588    1.110   .     S
C56    C58     1.527   .     S
C56    H600    1.115   .     S
C56    O1754   1.412   1_455 S
C57    C296    1.492   .     S
C57    C146    1.404   .     A
C58    H622    1.112   .     S
C58    C59     1.526   .     S
C58    H611    1.111   .     S
C59    H655    1.110   .     S
C59    H644    1.110   .     S
C59    H633    1.111   .     S
C60    C61     1.529   .     S
C60    H677    1.114   .     S
C60    H666    1.110   .     S
C60    O1755   1.411   1_455 S
C61    H699    1.111   .     S
C61    H688    1.110   .     S
C61    C62     1.524   .     S
C62    H711    1.111   .     S
C62    H722    1.110   .     S
C62    H730    1.110   .     S
C63    O848    1.419   .     S
C63    H731    1.111   .     S
C63    C64     1.535   .     S
C63    H732    1.116   .     S
C64    H734    1.109   .     S
C64    C65     1.525   .     S
C64    H733    1.112   .     S
C65    H737    1.109   .     S
C65    H736    1.110   .     S
C65    H735    1.110   .     S
C66    H740    1.115   .     S
C66    C67     1.528   .     S
C66    H739    1.110   .     S
C66    O2666   1.413   1_545 S
C67    H742    1.112   .     S
C67    H741    1.111   .     S
C67    C69     1.525   .     S
C68    C303    1.482   .     S
C68    C1065   1.403   .     S
C69    H743    1.110   .     S
C69    H744    1.111   .     S
C69    H745    1.110   .     S
C70    H746    1.110   .     S
C70    C71     1.528   .     S
C70    O851    1.412   .     S
C70    H747    1.113   .     S
C71    H750    1.112   .     S
C71    H748    1.111   .     S
C71    C72     1.525   .     S
C72    H752    1.110   .     S
C72    H753    1.111   .     S
C72    H751    1.110   .     S
C73    H754    1.110   .     S
C73    C74     1.527   .     S
C73    H755    1.115   .     S
C73    O852    1.411   .     S
C74    H756    1.111   .     S
C74    H757    1.112   .     S
C74    C75     1.524   .     S
C75    H758    1.110   .     S
C75    H759    1.110   .     S
C75    H761    1.110   .     S
C76    H762    1.110   .     S
C76    C77     1.529   .     S
C76    O853    1.416   .     S
C76    H763    1.118   .     S
C77    H765    1.111   .     S
C77    C78     1.526   .     S
C77    H764    1.112   .     S
C78    H766    1.111   .     S
C78    H767    1.110   .     S
C78    H768    1.109   .     S
C79    C315    1.448   .     S
C79    C322    1.408   .     A
C79    C909    1.402   1_455 S
C80    H770    1.115   .     S
C80    O854    1.412   .     S
C80    C81     1.528   .     S
C80    H769    1.112   .     S
C81    H773    1.112   .     S
C81    C82     1.525   .     S
C81    H772    1.111   .     S
C82    H776    1.109   .     S
C82    H774    1.111   .     S
C82    H775    1.110   .     S
C83    H777    1.110   .     S
C83    O855    1.412   .     S
C83    C84     1.528   .     S
C83    H778    1.115   .     S
C84    H780    1.112   .     S
C84    C85     1.525   .     S
C84    H779    1.112   .     S
C85    H784    1.110   .     S
C85    H781    1.111   .     S
C85    H783    1.110   .     S
C86    H785    1.109   .     S
C86    O856    1.411   .     S
C86    H786    1.113   .     S
C86    C87     1.528   .     S
C87    H787    1.111   .     S
C87    C88     1.525   .     S
C87    H788    1.112   .     S
C88    H791    1.111   .     S
C88    H790    1.111   .     S
C88    H789    1.110   .     S
C89    C91     1.534   .     S
C89    H379    1.114   .     S
C89    O857    1.418   .     S
C89    H792    1.111   .     S
C90    C316    1.449   .     S
C90    C112    1.408   .     A
C90    C1241   1.403   .     S
C91    C92     1.526   .     S
C91    H380    1.112   .     S
C91    H381    1.110   1_556 S
C92    H382    1.110   .     S
C92    H384    1.111   .     S
C92    H383    1.109   .     S
C93    O858    1.418   .     S
C93    H386    1.112   .     S
C93    C94     1.533   .     S
C93    H385    1.111   .     S
C94    H387    1.111   .     S
C94    C95     1.526   .     S
C94    H388    1.110   1_554 S
C95    H391    1.108   .     S
C95    H392    1.111   .     S
C95    H390    1.111   .     S
C96    H393    1.111   .     S
C96    O859    1.415   .     S
C96    C97     1.528   .     S
C96    H394    1.114   .     S
C97    H395    1.109   .     S
C97    H396    1.104   .     S
C97    C98     1.520   .     S
C98    H397    1.108   .     S
C98    H2214   1.110   .     S
C98    H2215   1.107   .     S
C99    O861    1.412   .     S
C99    C100    1.533   .     S
C99    H402    1.111   .     S
C99    H401    1.115   .     S
C100   H404    1.110   .     S
C100   C102    1.524   .     S
C100   H403    1.111   .     S
C101   C344    1.403   .     A
C101   C313    1.443   .     S
C101   C2039   1.403   1_545 S
C102   H406    1.110   .     S
C102   H407    1.106   .     S
C102   H405    1.111   .     S
C103   H409    1.115   .     S
C103   O862    1.421   .     S
C103   C104    1.524   .     S
C103   H408    1.111   .     S
C104   H410    1.110   .     S
C104   H412    1.111   .     S
C104   C1013   1.527   1_455 S
C105   H415    1.111   .     S
C105   H414    1.110   .     S
C105   C1012   1.527   .     S
C105   H1321   1.111   .     S
C106   C107    1.529   .     S
C106   H416    1.116   .     S
C106   O863    1.413   .     S
C106   H417    1.114   .     S
C107   H419    1.111   .     S
C107   H418    1.112   .     S
C107   C108    1.524   .     S
C108   H421    1.110   .     S
C108   H423    1.109   .     S
C108   H420    1.111   .     S
C109   O864    1.416   .     S
C109   C110    1.528   .     S
C109   H425    1.116   .     S
C109   H424    1.111   .     S
C110   H426    1.109   .     S
C110   C111    1.521   .     S
C110   H427    1.105   .     S
C111   H428    1.106   .     S
C111   H2245   1.110   1_545 S
C111   H2246   1.107   1_545 S
C112   C209    1.492   .     S
C113   C311    1.401   .     A
C113   C314    1.453   .     S
C113   C2171   1.406   .     S
C114   C115    1.530   .     S
C114   H431    1.115   .     S
C114   O865    1.410   .     S
C114   H432    1.111   .     S
C115   C116    1.525   .     S
C115   H434    1.112   .     S
C115   H435    1.112   .     S
C116   H437    1.110   .     S
C116   H436    1.111   .     S
C116   H438    1.108   .     S
C117   O866    1.421   .     S
C117   H439    1.110   .     S
C117   C118    1.525   .     S
C117   H440    1.118   .     S
C118   H442    1.108   .     S
C118   C1027   1.528   .     S
C118   H1349   1.111   .     S
C119   H445    1.110   .     S
C119   H446    1.111   .     S
C119   C1026   1.528   1_455 S
C119   H1351   1.111   1_455 S
C120   H448    1.113   .     S
C120   O867    1.415   .     S
C120   H447    1.115   .     S
C120   C121    1.528   .     S
C121   H449    1.112   .     S
C121   C122    1.526   .     S
C121   H450    1.109   .     S
C122   H451    1.111   .     S
C122   H452    1.110   .     S
C122   H453    1.107   .     S
C123   H456    1.113   .     S
C123   H454    1.111   .     S
C123   O868    1.420   .     S
C123   C125    1.530   .     S
C124   C319    1.452   .     S
C124   C366    1.406   .     A
C124   C1851   1.406   1_545 S
C125   H458    1.110   .     S
C125   H457    1.110   .     S
C125   C126    1.525   .     S
C126   H460    1.110   .     S
C126   H459    1.110   .     S
C126   H2277   1.111   1_545 S
C127   H463    1.111   .     S
C127   H462    1.116   .     S
C127   O869    1.416   .     S
C127   C128    1.528   .     S
C128   C129    1.524   .     S
C128   H465    1.109   .     S
C128   H464    1.112   .     S
C129   H469    1.107   .     S
C129   H468    1.110   .     S
C129   H467    1.111   .     S
C130   H471    1.110   .     S
C130   C131    1.529   .     S
C130   O870    1.418   .     S
C130   H470    1.114   .     S
C131   H472    1.108   .     S
C131   H473    1.105   .     S
C131   C1040   1.515   1_455 S
C132   H475    1.110   .     S
C132   H474    1.108   .     S
C132   C1039   1.515   .     S
C132   H1384   1.107   .     S
C133   H478    1.115   .     S
C133   H479    1.108   .     S
C133   O872    1.413   .     S
C133   C134    1.533   .     S
C134   H480    1.110   .     S
C134   C136    1.525   .     S
C134   H481    1.110   .     S
C135   C320    1.446   .     S
C135   C1862   1.406   .     S
C136   H483    1.111   .     S
C136   H484    1.106   .     S
C136   H482    1.111   .     S
C137   H485    1.109   .     S
C137   O873    1.425   .     S
C137   H486    1.108   .     S
C137   C138    1.527   .     S
C138   H487    1.110   .     S
C138   H490    1.106   .     S
C138   C1955   1.529   .     S
C139   H492    1.110   .     S
C139   H493    1.106   .     S
C139   H491    1.108   .     S
C139   C1954   1.529   1_545 S
C140   C141    1.528   .     S
C140   O874    1.416   .     S
C140   H494    1.116   .     S
C140   H495    1.112   .     S
C141   H496    1.112   .     S
C141   H497    1.109   .     S
C141   C142    1.524   .     S
C142   H501    1.107   .     S
C142   H499    1.110   .     S
C142   H498    1.111   .     S
C143   H502    1.112   .     S
C143   O875    1.416   .     S
C143   C144    1.528   .     S
C143   H503    1.114   .     S
C144   C145    1.523   .     S
C144   H505    1.105   .     S
C144   H504    1.110   .     S
C145   H506    1.110   .     S
C145   H1415   1.110   .     S
C145   H1416   1.108   .     S
C146   C317    1.441   .     S
C146   C921    1.401   1_455 S
C147   C148    1.534   .     S
C147   H510    1.110   .     S
C147   O876    1.412   .     S
C147   H509    1.115   .     S
C148   C149    1.523   .     S
C148   H513    1.110   .     S
C148   H512    1.111   .     S
C149   H514    1.110   .     S
C149   H515    1.110   .     S
C149   H516    1.106   .     S
C150   H517    1.111   .     S
C150   O877    1.417   .     S
C150   H518    1.118   .     S
C150   C151    1.528   .     S
C151   H519    1.110   .     S
C151   C152    1.521   .     S
C151   H520    1.108   .     S
C152   H524    1.105   .     S
C152   H521    1.108   .     S
C152   H523    1.109   .     S
C153   H526    1.113   .     S
C153   H525    1.115   .     S
C153   O878    1.413   .     S
C153   C154    1.534   .     S
C154   C155    1.523   .     S
C154   H528    1.110   .     S
C154   H527    1.111   .     S
C155   H530    1.111   .     S
C155   H531    1.106   .     S
C155   H529    1.111   .     S
C156   C158    1.525   .     S
C156   H532    1.111   .     S
C156   O879    1.414   .     S
C156   H534    1.115   .     S
C157   C318    1.454   .     S
C157   C976    1.403   1_455 S
C158   C159    1.532   .     S
C158   H535    1.110   .     S
C158   H536    1.109   .     S
C159   H537    1.110   .     S
C159   H538    1.106   .     S
C159   H539    1.109   .     S
C160   O880    1.420   .     S
C160   H540    1.111   .     S
C160   H541    1.118   .     S
C160   C161    1.530   .     S
C161   H543    1.111   .     S
C161   C162    1.525   .     S
C161   H542    1.107   .     S
C162   H546    1.110   .     S
C162   H547    1.111   .     S
C162   H545    1.109   .     S
C163   H548    1.111   .     S
C163   C164    1.526   .     S
C163   O881    1.414   .     S
C163   H549    1.112   .     S
C164   H551    1.107   .     S
C164   C165    1.521   .     S
C164   H550    1.110   .     S
C165   H554    1.107   .     S
C165   H552    1.107   .     S
C165   H553    1.110   .     S
C166   H556    1.112   .     S
C166   C167    1.531   .     S
C166   O883    1.411   .     S
C166   H557    1.110   .     S
C167   C169    1.524   .     S
C167   H558    1.111   .     S
C167   H559    1.111   .     S
C168   O842    1.386   .     S
C168   C224    1.403   .     A
C168   C1282   1.416   .     S
C169   H562    1.106   .     S
C169   H560    1.111   .     S
C169   H561    1.110   .     S
C170   H563    1.111   .     S
C170   C171    1.525   .     S
C170   H564    1.115   .     S
C170   O884    1.420   .     S
C171   H565    1.110   .     S
C171   H567    1.111   .     S
C171   C172    1.526   .     S
C172   H569    1.107   .     S
C172   H570    1.111   .     S
C172   H568    1.111   .     S
C173   H571    1.115   .     S
C173   H572    1.112   .     S
C173   O885    1.416   .     S
C173   C174    1.529   .     S
C174   H574    1.109   .     S
C174   C175    1.524   .     S
C174   H573    1.111   .     S
C175   H575    1.111   .     S
C175   H578    1.107   .     S
C175   H576    1.110   .     S
C176   O886    1.420   .     S
C176   H580    1.108   .     S
C176   C177    1.537   .     S
C176   H579    1.111   .     S
C177   H581    1.104   .     S
C177   C178    1.528   .     S
C177   H582    1.110   .     S
C178   H583    1.106   .     S
C178   H585    1.111   .     S
C178   H584    1.107   .     S
C179   C375    1.416   .     A
C179   O843    1.385   .     S
C179   C1120   1.397   1_455 S
C180   O887    1.415   .     S
C180   C181    1.529   .     S
C180   H586    1.116   .     S
C180   H587    1.111   .     S
C181   H590    1.109   .     S
C181   C182    1.524   .     S
C181   H589    1.112   .     S
C182   H592    1.110   .     S
C182   H591    1.111   .     S
C182   H593    1.107   .     S
C183   O888    1.419   .     S
C183   H595    1.107   .     S
C183   H594    1.106   .     S
C183   C184    1.543   .     S
C184   C185    1.521   .     S
C184   H597    1.112   .     S
C184   H596    1.109   .     S
C185   H601    1.107   .     S
C185   H602    1.111   .     S
C185   H598    1.109   .     S
C186   C187    1.530   .     S
C186   H603    1.115   .     S
C186   O889    1.412   .     S
C186   H604    1.109   .     S
C187   H606    1.110   .     S
C187   H605    1.109   .     S
C187   C188    1.526   .     S
C188   H607    1.111   .     S
C188   H609    1.107   .     S
C188   H608    1.110   .     S
C189   H612    1.113   .     S
C189   C191    1.515   .     S
C189   O890    1.419   .     S
C189   H610    1.111   .     S
C190   C246    1.397   .     A
C190   C2192   1.417   .     S
C190   O2660   1.384   .     S
C191   H614    1.110   .     S
C191   C192    1.527   .     S
C191   H613    1.109   .     S
C192   H616    1.107   .     S
C192   H617    1.111   .     S
C192   H615    1.111   .     S
C193   H619    1.108   .     S
C193   H618    1.115   .     S
C193   C194    1.529   .     S
C193   O891    1.414   .     S
C194   H620    1.112   .     S
C194   H621    1.109   .     S
C194   C195    1.526   .     S
C195   H624    1.110   .     S
C195   H623    1.111   .     S
C195   H625    1.108   .     S
C196   O892    1.417   .     S
C196   H627    1.115   .     S
C196   H626    1.111   .     S
C196   C197    1.529   .     S
C197   H629    1.104   .     S
C197   H628    1.110   .     S
C197   C198    1.522   .     S
C198   H630    1.106   .     S
C198   H631    1.110   .     S
C198   H632    1.106   .     S
C199   H634    1.116   .     S
C199   O795    1.412   .     S
C199   H635    1.109   .     S
C199   C200    1.531   .     S
C200   H636    1.111   .     S
C200   C202    1.524   .     S
C200   H637    1.111   .     S
C201   O845    1.389   .     S
C201   C235    1.403   .     A
C202   H638    1.111   .     S
C202   H639    1.111   .     S
C202   H640    1.109   .     S
C203   C208    1.403   .     A
C203   C204    1.405   .     A
C204   C205    1.397   .     A
C204   H1549   1.081   .     S
C205   H642    1.081   .     S
C205   C206    1.398   .     A
C206   C207    1.397   .     A
C206   H643    1.082   .     S
C207   C208    1.394   .     A
C207   H645    1.080   .     S
C208   H646    1.083   .     S
C209   C215    1.404   .     A
C209   C210    1.408   .     A
C210   C211    1.399   .     A
C210   H1555   1.081   .     S
C211   H648    1.083   .     S
C211   C213    1.397   .     A
C212   O846    1.386   .     S
C212   C1087   1.397   .     S
C213   H649    1.083   .     S
C213   C214    1.397   .     A
C214   C215    1.396   .     A
C214   H650    1.080   .     S
C215   H651    1.083   .     S
C216   C221    1.404   .     A
C216   C223    1.490   .     S
C216   C2033   1.406   .     S
C217   C218    1.398   .     A
C217   H652    1.082   .     S
C217   C2032   1.406   1_545 S
C218   H653    1.083   .     S
C218   C2035   1.398   1_545 S
C219   H654    1.083   .     S
C219   C220    1.398   .     A
C219   C2034   1.398   .     S
C220   C221    1.399   .     A
C220   H656    1.082   .     S
C221   H657    1.083   .     S
C222   C229    1.403   .     A
C222   C225    1.402   .     A
C222   C311    1.481   .     S
C223   C1822   1.410   .     S
C223   C1917   1.403   .     S
C224   O847    1.385   .     S
C225   C226    1.398   .     A
C225   H2474   1.083   .     S
C226   C227    1.395   .     A
C226   H659    1.075   .     S
C227   H660    1.082   .     S
C227   C228    1.397   .     A
C228   C229    1.394   .     A
C228   H661    1.081   .     S
C229   H662    1.083   .     S
C230   C236    1.406   .     A
C230   C322    1.491   .     S
C230   C231    1.405   .     A
C231   C232    1.397   .     A
C231   H1571   1.078   1_455 S
C232   H664    1.082   .     S
C232   C233    1.397   .     A
C233   C234    1.396   .     A
C233   H665    1.082   .     S
C234   H667    1.081   .     S
C234   C236    1.399   .     A
C235   O848    1.386   .     S
C236   H668    1.083   .     S
C237   C242    1.404   .     A
C237   C238    1.404   .     A
C237   C333    1.487   .     S
C238   C239    1.395   .     A
C238   H1577   1.081   1_455 S
C239   C240    1.397   .     A
C239   H1578   1.078   1_455 S
C240   H671    1.083   .     S
C240   C241    1.397   .     A
C241   H672    1.079   .     S
C241   C242    1.396   .     A
C242   H673    1.083   .     S
C243   C249    1.404   .     A
C243   C344    1.494   .     S
C243   C2060   1.408   1_545 S
C244   H674    1.080   .     S
C244   C2059   1.408   .     S
C244   C2061   1.398   .     S
C245   C247    1.397   .     A
C245   C2060   1.398   1_545 S
C245   H2491   1.083   1_545 S
C246   O850    1.385   .     S
C247   H676    1.083   .     S
C247   C248    1.397   .     A
C248   H678    1.079   .     S
C248   C249    1.396   .     A
C249   H679    1.083   .     S
C250   C355    1.487   .     S
C250   C255    1.403   .     A
C250   C251    1.405   .     A
C251   C252    1.396   .     A
C251   H2496   1.080   1_545 S
C252   H681    1.081   .     S
C252   C253    1.398   .     A
C253   C254    1.397   .     A
C253   H682    1.082   .     S
C254   H683    1.080   .     S
C254   C255    1.395   .     A
C255   H684    1.083   .     S
C256   C262    1.404   .     A
C256   C258    1.406   .     A
C256   C366    1.490   .     S
C257   O851    1.384   .     S
C257   C309    1.401   1_556 S
C258   H685    1.080   .     S
C258   C259    1.396   .     A
C259   H686    1.082   .     S
C259   C260    1.398   .     A
C260   C261    1.397   .     A
C260   H687    1.082   .     S
C261   H689    1.081   .     S
C261   C262    1.397   .     A
C262   H690    1.083   .     S
C263   C264    1.408   .     A
C263   C269    1.405   .     A
C264   C265    1.399   .     A
C264   H691    1.081   .     S
C265   H692    1.083   .     S
C265   C266    1.397   .     A
C266   H693    1.083   .     S
C266   C267    1.397   .     A
C267   H694    1.081   .     S
C267   C269    1.397   .     A
C268   O852    1.384   .     S
C268   C301    1.400   1_554 S
C269   H695    1.083   .     S
C270   C275    1.403   .     A
C270   C271    1.407   .     A
C271   C272    1.398   .     A
C271   H696    1.083   .     S
C272   C273    1.398   .     A
C272   H697    1.083   .     S
C273   H698    1.083   .     S
C273   C274    1.398   .     A
C274   C275    1.397   .     A
C274   H700    1.080   .     S
C275   H701    1.083   .     S
C276   C277    1.405   .     A
C276   C282    1.404   .     A
C277   H702    1.081   .     S
C277   C278    1.395   .     A
C278   H703    1.081   .     S
C278   C280    1.398   .     A
C279   O853    1.385   .     S
C279   C312    1.397   1_556 S
C280   C281    1.398   .     A
C280   H704    1.082   .     S
C281   H705    1.081   .     S
C281   C282    1.396   .     A
C282   H706    1.083   .     S
C283   C288    1.405   .     A
C283   C284    1.404   .     A
C284   C285    1.395   .     A
C284   H707    1.082   .     S
C285   H708    1.079   .     S
C285   C286    1.398   .     A
C286   H709    1.082   .     S
C286   C287    1.397   .     A
C287   H712    1.082   .     S
C287   C288    1.398   .     A
C288   H713    1.083   .     S
C289   C295    1.404   .     A
C289   C291    1.408   .     A
C290   O854    1.385   .     S
C290   C310    1.396   1_554 S
C291   C292    1.399   .     A
C291   H714    1.081   .     S
C292   H715    1.083   .     S
C292   C293    1.397   .     A
C293   C294    1.397   .     A
C293   H716    1.083   .     S
C294   H717    1.080   .     S
C294   C295    1.396   .     A
C295   H718    1.083   .     S
C296   C302    1.404   .     A
C296   C297    1.407   .     A
C297   H719    1.081   .     S
C297   C298    1.399   .     A
C298   C299    1.397   .     A
C298   H720    1.083   .     S
C299   C300    1.397   .     A
C299   H721    1.083   .     S
C300   H723    1.080   .     S
C300   C302    1.396   .     A
C301   O855    1.385   .     S
C301   C268    1.400   1_556 S
C302   H724    1.083   .     S
C303   C304    1.402   .     A
C303   C308    1.404   .     A
C304   H725    1.080   .     S
C304   C305    1.392   .     A
C305   H726    1.079   .     S
C305   C306    1.400   .     A
C306   C307    1.397   .     A
C306   H727    1.082   .     S
C307   H728    1.080   .     S
C307   C308    1.395   .     A
C308   H729    1.083   .     S
C309   O856    1.385   .     S
C309   C257    1.401   1_554 S
C310   O857    1.387   .     S
C310   C290    1.396   1_556 S
C312   O858    1.387   .     S
C312   C279    1.397   1_554 S
C313   O882    1.272   .     A
C313   O2654   1.278   1_545 S
C314   O794    1.276   .     A
C314   O2665   1.281   .     S
C315   O860    1.281   .     A
C315   O1704   1.284   1_455 S
C316   O871    1.282   .     A
C316   O1705   1.283   .     S
C317   O798    1.276   .     S
C317   O802    1.274   .     S
C318   O799    1.279   .     S
C318   O803    1.278   .     S
C319   O800    1.283   .     S
C319   O804    1.284   .     S
C320   O2622   1.283   .     A
C320   O2617   1.282   .     A
C321   O807    1.285   .     A
C321   O835    1.285   .     A
C322   C374    1.415   .     A
C323   O836    1.283   .     A
C323   O808    1.284   .     A
C324   O833    1.285   .     A
C324   O809    1.284   .     A
C325   O810    1.285   .     A
C325   O834    1.286   .     A
C326   O811    1.286   .     A
C326   O840    1.284   .     A
C327   O812    1.285   .     A
C327   O841    1.283   .     A
C328   O813    1.282   .     A
C328   O837    1.285   .     A
C329   O839    1.284   .     A
C329   O814    1.284   .     A
C330   O815    1.284   .     A
C330   O826    1.284   .     A
C331   O817    1.289   .     A
C331   O828    1.283   .     A
C332   O818    1.287   .     A
C332   O824    1.286   .     A
C333   C375    1.409   .     A
C333   C998    1.403   1_455 S
C334   O825    1.283   .     A
C334   O819    1.283   .     A
C335   O831    1.281   .     A
C335   O820    1.286   .     A
C336   O821    1.285   .     A
C336   O832    1.284   .     A
C337   O829    1.286   .     A
C337   O822    1.284   .     A
C338   O823    1.282   .     A
C338   O830    1.286   .     A
C339   O859    1.386   .     S
C339   C356    1.398   .     A
C340   O861    1.386   .     S
C340   C354    1.399   .     A
C341   O862    1.388   .     S
C341   C353    1.390   .     A
C342   C352    1.400   .     A
C342   O863    1.380   .     S
C343   O864    1.385   .     S
C343   C351    1.396   .     A
C344   C376    1.412   .     A
C345   C350    1.396   .     A
C345   O865    1.385   .     S
C346   C349    1.391   .     A
C346   O866    1.387   .     S
C347   C348    1.390   .     A
C347   O867    1.384   .     S
C348   O868    1.388   .     S
C349   O869    1.383   .     S
C350   O870    1.386   .     S
C351   O872    1.386   .     S
C352   O873    1.397   .     S
C353   O874    1.383   .     S
C354   O875    1.386   .     S
C355   C1929   1.406   1_545 S
C356   O876    1.386   .     S
C357   C373    1.394   .     A
C357   O877    1.384   .     S
C358   C372    1.397   .     A
C358   O878    1.386   .     S
C359   C371    1.391   .     A
C359   O879    1.385   .     S
C360   C370    1.393   .     A
C360   O880    1.385   .     S
C361   O881    1.386   .     S
C361   C369    1.400   .     A
C362   C368    1.407   .     A
C362   O883    1.383   .     S
C363   C367    1.390   .     A
C363   O884    1.388   .     S
C364   O885    1.384   .     S
C364   C365    1.391   .     A
C365   O886    1.387   .     S
C367   O887    1.384   .     S
C368   O888    1.392   .     S
C369   O889    1.385   .     S
C370   O890    1.387   .     S
C371   O891    1.383   .     S
C372   O892    1.387   .     S
C373   O795    1.384   .     S
C374   C1076   1.416   1_455 S
C374   C942    1.419   1_455 S
C375   C944    1.420   1_455 S
C376   C2006   1.417   1_545 S
H381   C91     1.110   1_554 S
H388   C94     1.110   1_556 S
H398   C1914   1.110   1_545 S
H399   C1914   1.107   1_545 S
H413   C1013   1.111   1_455 S
H429   C1927   1.110   .     S
H430   C1927   1.107   .     S
H441   C1026   1.111   1_455 S
H443   C1027   1.111   .     S
H461   C1942   1.111   .     S
H476   C1040   1.107   1_455 S
H507   C1053   1.110   1_455 S
H508   C1053   1.108   1_455 S
H641   C1112   1.081   1_455 S
H647   C1118   1.081   1_455 S
H658   C2041   1.083   1_545 S
H663   C1139   1.078   .     S
H669   C1146   1.081   .     S
H670   C1147   1.078   .     S
H675   C2061   1.083   .     S
H680   C2067   1.080   .     S
O793   Zn2716  1.949   1_545 S
O793   Zn893   1.957   .     S
O793   Zn904   1.959   .     S
O793   Zn896   1.950   .     S
O794   Zn895   1.940   .     S
O796   Zn898   1.940   .     S
O796   C1223   1.284   .     S
O797   Zn897   1.940   .     S
O797   C1224   1.283   1_455 S
O798   Zn907   1.940   .     S
O799   Zn906   1.940   .     S
O800   Zn901   1.941   .     S
O801   Zn893   1.941   .     S
O801   C2136   1.282   1_545 A
O802   Zn903   1.940   .     S
O803   Zn902   1.940   .     S
O804   Zn905   1.940   .     S
O805   Zn905   1.959   .     S
O805   Zn2711  1.950   1_545 S
O805   Zn901   1.957   .     S
O805   Zn899   1.949   .     S
O806   C2136   1.283   1_545 A
O806   Zn904   1.940   .     S
O807   Zn896   1.948   .     S
O808   Zn895   1.948   .     S
O809   Zn898   1.950   .     S
O810   Zn897   1.950   .     S
O811   Zn900   1.949   .     S
O812   Zn899   1.949   .     S
O813   Zn894   1.951   .     S
O814   Zn908   1.951   .     S
O815   Zn895   1.955   .     S
O816   Zn902   1.950   .     S
O816   Zn906   1.949   .     S
O816   Zn1806  1.959   1_455 S
O816   Zn894   1.957   .     S
O817   Zn896   1.955   .     S
O818   Zn908   1.944   .     S
O819   Zn894   1.944   .     S
O820   Zn899   1.955   .     S
O821   Zn900   1.955   .     S
O822   Zn897   1.943   .     S
O823   Zn898   1.943   .     S
O824   Zn1811  1.948   .     S
O825   Zn902   1.948   .     S
O826   Zn2721  1.950   .     S
O827   Zn1816  1.957   1_455 S
O827   Zn907   1.949   .     S
O827   Zn903   1.950   .     S
O827   Zn897   1.959   .     S
O828   Zn904   1.950   .     S
O829   Zn907   1.949   .     S
O830   Zn1814  1.949   .     S
O831   Zn901   1.951   .     S
O832   Zn2709  1.951   .     S
O833   Zn1810  1.955   .     S
O834   Zn903   1.955   .     S
O835   Zn893   1.944   .     S
O836   Zn2717  1.944   .     S
O837   Zn906   1.955   .     S
O838   Zn900   1.940   .     S
O838   C2129   1.278   .     S
O839   Zn1815  1.955   .     S
O840   Zn2720  1.943   .     S
O841   Zn905   1.943   .     S
O843   C955    1.413   1_455 S
O844   C2006   1.384   1_545 S
O844   C1866   1.411   1_545 S
O845   C1869   1.416   1_545 S
O846   C964    1.412   .     S
O847   C968    1.411   .     S
O849   Zn899   1.940   .     S
O849   C2130   1.281   1_545 S
O850   C1882   1.413   .     S
O860   Zn894   1.941   .     S
O871   Zn908   1.941   .     S
O882   Zn896   1.940   .     S
Zn893  O2648   1.951   1_545 S
Zn895  O2621   1.950   .     S
Zn898  O1724   1.959   .     S
Zn900  O2609   1.949   .     S
Zn901  O2652   1.944   1_545 S
Zn902  O1741   1.955   1_455 S
Zn903  O1732   1.948   1_455 S
Zn904  O2656   1.943   1_545 S
Zn905  O2642   1.950   1_545 S
Zn906  O1738   1.949   1_455 S
Zn907  O1747   1.955   1_455 S
Zn908  O1735   1.957   .     S
C909   C1111   1.487   .     S
C909   C912    1.407   .     A
C909   C79     1.402   1_655 S
C910   C922    1.413   .     A
C910   C1043   1.407   .     A
C910   C1171   1.494   .     S
C911   C946    1.420   .     A
C911   C1263   1.416   .     A
C911   C1109   1.415   .     A
C912   C942    1.419   .     A
C912   C1120   1.413   .     A
C913   C944    1.421   .     A
C913   C1020   1.416   .     A
C913   C1132   1.418   .     A
C914   C945    1.421   .     A
C914   C1143   1.416   .     A
C914   C2947   1.410   1_545 S
C915   C1154   1.413   .     A
C915   C1219   1.407   .     A
C915   C2762   1.416   .     S
C916   C943    1.412   .     A
C916   C1165   1.417   .     A
C916   C2763   1.418   .     S
C917   C954    1.412   .     A
C917   C948    1.419   .     A
C917   C1176   1.416   .     A
C918   C949    1.421   .     A
C918   C1187   1.414   .     A
C918   C965    1.411   .     A
C919   C1198   1.416   .     A
C919   C976    1.410   .     A
C919   C42     1.419   1_655 S
C920   C1209   1.417   .     A
C920   C947    1.420   .     A
C920   C1274   1.414   .     A
C921   C923    1.408   .     A
C921   C1178   1.491   .     S
C921   C146    1.401   1_655 S
C922   C1217   1.417   .     A
C922   C2764   1.420   .     S
C923   C1218   1.415   .     A
C923   C41     1.422   1_655 S
C924   C1220   1.419   .     A
C924   C932    1.414   .     A
C924   C950    1.420   .     A
C925   C1236   1.468   .     S
C925   C1266   1.415   .     A
C925   C1264   1.412   .     A
C926   C1265   1.413   .     A
C926   C1262   1.413   .     A
C926   C1237   1.471   .     S
C927   C1229   1.467   .     S
C927   C1261   1.414   .     A
C927   C1268   1.413   .     A
C928   C1267   1.412   .     A
C928   C1231   1.464   .     S
C928   C1260   1.422   .     A
C929   C1270   1.414   .     A
C929   C1232   1.469   .     S
C929   C1259   1.410   .     A
C930   C1269   1.412   .     A
C930   C1233   1.473   .     S
C930   C1258   1.413   .     A
C931   C1272   1.411   .     A
C931   C1234   1.466   .     S
C931   C1257   1.413   .     A
C932   C1065   1.405   .     A
C932   C1184   1.487   .     S
C933   C1271   1.414   .     A
C933   C1235   1.463   .     S
C933   C1256   1.415   .     A
C934   C1255   1.411   .     A
C934   C1245   1.465   .     S
C934   C1275   1.414   .     A
C935   C1254   1.412   .     A
C935   C1246   1.462   .     S
C935   C1273   1.416   .     A
C936   C1277   1.411   .     A
C936   C1253   1.410   .     A
C936   C1238   1.467   .     S
C937   C1251   1.414   .     A
C937   C1276   1.413   .     A
C937   C1239   1.474   .     S
C938   C1250   1.417   .     A
C938   C1279   1.408   .     A
C938   C1240   1.475   .     S
C939   C1242   1.461   .     S
C939   C1278   1.413   .     A
C939   C1249   1.413   .     A
C940   C1248   1.415   .     A
C940   C1281   1.410   .     A
C940   C1243   1.468   .     S
C941   C1247   1.414   .     A
C941   C1280   1.413   .     A
C941   C1244   1.470   .     S
C942   C944    1.411   .     A
C942   C374    1.419   1_655 S
C943   C1191   1.487   .     S
C943   C2848   1.406   .     S
C944   C375    1.420   1_655 S
C945   C946    1.411   .     A
C945   C1284   1.425   .     A
C946   C2731   1.416   1_545 S
C947   C2732   1.418   1_545 S
C947   C948    1.410   1_556 S
C948   C2738   1.420   1_545 S
C948   C947    1.410   1_554 S
C949   C950    1.411   1_556 S
C950   C949    1.411   1_554 S
C951   C952    1.529   .     S
C951   H1396   1.118   .     S
C951   H1285   1.109   .     S
C951   O1750   1.417   .     S
C952   C953    1.525   .     S
C952   H1618   1.109   .     S
C952   H1507   1.112   .     S
C953   H1668   1.109   .     S
C953   H1646   1.111   .     S
C953   H1657   1.110   .     S
C954   C1197   1.492   .     S
C954   C2859   1.406   1_545 S
C955   H1690   1.115   .     S
C955   H1679   1.112   .     S
C955   C956    1.528   .     S
C955   O843    1.413   1_655 S
C956   H1286   1.111   .     S
C956   C957    1.525   .     S
C956   H1297   1.112   .     S
C957   H1319   1.110   .     S
C957   H1330   1.109   .     S
C957   H1308   1.110   .     S
C958   H1352   1.115   .     S
C958   C959    1.528   .     S
C958   H1341   1.109   .     S
C958   O3568   1.411   .     S
C959   H1374   1.112   .     S
C959   C960    1.523   .     S
C959   H1363   1.112   .     S
C960   H1408   1.110   .     S
C960   H1385   1.110   .     S
C960   H1397   1.111   .     S
C961   H1419   1.115   .     S
C961   C962    1.529   .     S
C961   H1430   1.111   .     S
C961   O3569   1.416   .     S
C962   H1452   1.112   .     S
C962   H1441   1.111   .     S
C962   C963    1.527   .     S
C963   H1474   1.110   .     S
C963   H1463   1.111   .     S
C963   H1485   1.111   .     S
C964   H1496   1.110   .     S
C964   C966    1.527   .     S
C964   H1508   1.115   .     S
C965   C1204   1.492   .     S
C965   C1054   1.404   .     A
C966   H1530   1.112   .     S
C966   C967    1.526   .     S
C966   H1519   1.111   .     S
C967   H1563   1.110   .     S
C967   H1552   1.110   .     S
C967   H1541   1.111   .     S
C968   C969    1.529   .     S
C968   H1585   1.114   .     S
C968   H1574   1.110   .     S
C969   H1607   1.111   .     S
C969   H1596   1.110   .     S
C969   C970    1.524   .     S
C970   H1619   1.111   .     S
C970   H1630   1.110   .     S
C970   H1638   1.110   .     S
C971   O1756   1.419   .     S
C971   H1639   1.111   .     S
C971   C972    1.535   .     S
C971   H1640   1.116   .     S
C972   H1642   1.109   .     S
C972   C973    1.525   .     S
C972   H1641   1.112   .     S
C973   H1645   1.109   .     S
C973   H1644   1.110   .     S
C973   H1643   1.110   .     S
C974   H1648   1.115   .     S
C974   C975    1.528   .     S
C974   H1647   1.110   .     S
C974   O3574   1.413   1_545 S
C975   H1650   1.112   .     S
C975   H1649   1.111   .     S
C975   C977    1.525   .     S
C976   C1211   1.482   .     S
C976   C157    1.403   1_655 S
C977   H1651   1.110   .     S
C977   H1652   1.111   .     S
C977   H1653   1.110   .     S
C978   H1654   1.110   .     S
C978   C979    1.528   .     S
C978   O1759   1.412   .     S
C978   H1655   1.113   .     S
C979   H1658   1.112   .     S
C979   H1656   1.111   .     S
C979   C980    1.525   .     S
C980   H1660   1.110   .     S
C980   H1661   1.111   .     S
C980   H1659   1.110   .     S
C981   H1662   1.110   .     S
C981   C982    1.527   .     S
C981   H1663   1.115   .     S
C981   O1760   1.411   .     S
C982   H1664   1.111   .     S
C982   H1665   1.112   .     S
C982   C983    1.524   .     S
C983   H1666   1.110   .     S
C983   H1667   1.110   .     S
C983   H1669   1.110   .     S
C984   H1670   1.110   .     S
C984   C985    1.529   .     S
C984   O1761   1.416   .     S
C984   H1671   1.118   .     S
C985   H1673   1.111   .     S
C985   C986    1.526   .     S
C985   H1672   1.112   .     S
C986   H1674   1.111   .     S
C986   H1675   1.110   .     S
C986   H1676   1.109   .     S
C987   C1223   1.448   .     S
C987   C1230   1.408   .     A
C988   H1678   1.115   .     S
C988   O1762   1.412   .     S
C988   C989    1.528   .     S
C988   H1677   1.112   .     S
C989   H1681   1.112   .     S
C989   C990    1.525   .     S
C989   H1680   1.111   .     S
C990   H1684   1.109   .     S
C990   H1682   1.111   .     S
C990   H1683   1.110   .     S
C991   H1685   1.110   .     S
C991   O1763   1.412   .     S
C991   C992    1.528   .     S
C991   H1686   1.115   .     S
C992   H1688   1.112   .     S
C992   C993    1.525   .     S
C992   H1687   1.112   .     S
C993   H1692   1.110   .     S
C993   H1689   1.111   .     S
C993   H1691   1.110   .     S
C994   H1693   1.109   .     S
C994   O1764   1.411   .     S
C994   H1694   1.113   .     S
C994   C995    1.528   .     S
C995   H1695   1.111   .     S
C995   C996    1.525   .     S
C995   H1696   1.112   .     S
C996   H1699   1.111   .     S
C996   H1698   1.111   .     S
C996   H1697   1.110   .     S
C997   C999    1.534   .     S
C997   H1287   1.114   .     S
C997   O1765   1.418   .     S
C997   H1700   1.111   .     S
C998   C1224   1.449   .     S
C998   C1020   1.408   .     A
C998   C333    1.403   1_655 S
C999   C1000   1.526   .     S
C999   H1288   1.112   .     S
C999   H1289   1.110   1_556 S
C1000  H1290   1.110   .     S
C1000  H1292   1.111   .     S
C1000  H1291   1.109   .     S
C1001  O1766   1.418   .     S
C1001  H1294   1.112   .     S
C1001  C1002   1.533   .     S
C1001  H1293   1.111   .     S
C1002  H1295   1.111   .     S
C1002  C1003   1.526   .     S
C1002  H1296   1.110   1_554 S
C1003  H1299   1.108   .     S
C1003  H1300   1.111   .     S
C1003  H1298   1.111   .     S
C1004  H1301   1.111   .     S
C1004  O1767   1.415   .     S
C1004  C1005   1.528   .     S
C1004  H1302   1.114   .     S
C1005  H1303   1.109   .     S
C1005  H1304   1.104   .     S
C1005  C1006   1.520   .     S
C1006  H1305   1.108   .     S
C1006  H3122   1.110   .     S
C1006  H3123   1.107   .     S
C1007  O1769   1.412   .     S
C1007  C1008   1.533   .     S
C1007  H1310   1.111   .     S
C1007  H1309   1.115   .     S
C1008  H1312   1.110   .     S
C1008  C1010   1.524   .     S
C1008  H1311   1.111   .     S
C1009  C1252   1.403   .     A
C1009  C1221   1.443   .     S
C1009  C2947   1.403   1_545 S
C1010  H1314   1.110   .     S
C1010  H1315   1.106   .     S
C1010  H1313   1.111   .     S
C1011  H1317   1.115   .     S
C1011  O1770   1.421   .     S
C1011  C1012   1.524   .     S
C1011  H1316   1.111   .     S
C1012  H1318   1.110   .     S
C1012  H1320   1.111   .     S
C1013  H1323   1.111   .     S
C1013  H1322   1.110   .     S
C1013  C104    1.527   1_655 S
C1013  H413    1.111   1_655 S
C1014  C1015   1.529   .     S
C1014  H1324   1.116   .     S
C1014  O1771   1.413   .     S
C1014  H1325   1.114   .     S
C1015  H1327   1.111   .     S
C1015  H1326   1.112   .     S
C1015  C1016   1.524   .     S
C1016  H1329   1.110   .     S
C1016  H1331   1.109   .     S
C1016  H1328   1.111   .     S
C1017  O1772   1.416   .     S
C1017  C1018   1.528   .     S
C1017  H1333   1.116   .     S
C1017  H1332   1.111   .     S
C1018  H1334   1.109   .     S
C1018  C1019   1.521   .     S
C1018  H1335   1.105   .     S
C1019  H1336   1.106   .     S
C1019  H3153   1.110   1_545 S
C1019  H3154   1.107   1_545 S
C1020  C1117   1.492   .     S
C1021  C1219   1.401   .     A
C1021  C1222   1.453   .     S
C1021  C3079   1.406   .     S
C1022  C1023   1.530   .     S
C1022  H1339   1.115   .     S
C1022  O1773   1.410   .     S
C1022  H1340   1.111   .     S
C1023  C1024   1.525   .     S
C1023  H1342   1.112   .     S
C1023  H1343   1.112   .     S
C1024  H1345   1.110   .     S
C1024  H1344   1.111   .     S
C1024  H1346   1.108   .     S
C1025  O1774   1.421   .     S
C1025  H1347   1.110   .     S
C1025  C1026   1.525   .     S
C1025  H1348   1.118   .     S
C1026  H1350   1.108   .     S
C1026  C119    1.528   1_655 S
C1026  H441    1.111   1_655 S
C1027  H1353   1.110   .     S
C1027  H1354   1.111   .     S
C1028  H1356   1.113   .     S
C1028  O1775   1.415   .     S
C1028  H1355   1.115   .     S
C1028  C1029   1.528   .     S
C1029  H1357   1.112   .     S
C1029  C1030   1.526   .     S
C1029  H1358   1.109   .     S
C1030  H1359   1.111   .     S
C1030  H1360   1.110   .     S
C1030  H1361   1.107   .     S
C1031  H1364   1.113   .     S
C1031  H1362   1.111   .     S
C1031  O1776   1.420   .     S
C1031  C1033   1.530   .     S
C1032  C1227   1.452   .     S
C1032  C1274   1.406   .     A
C1032  C2759   1.406   1_545 S
C1033  H1366   1.110   .     S
C1033  H1365   1.110   .     S
C1033  C1034   1.525   .     S
C1034  H1368   1.110   .     S
C1034  H1367   1.110   .     S
C1034  H3185   1.111   1_545 S
C1035  H1371   1.111   .     S
C1035  H1370   1.116   .     S
C1035  O1777   1.416   .     S
C1035  C1036   1.528   .     S
C1036  C1037   1.524   .     S
C1036  H1373   1.109   .     S
C1036  H1372   1.112   .     S
C1037  H1377   1.107   .     S
C1037  H1376   1.110   .     S
C1037  H1375   1.111   .     S
C1038  H1379   1.110   .     S
C1038  C1039   1.529   .     S
C1038  O1778   1.418   .     S
C1038  H1378   1.114   .     S
C1039  H1380   1.108   .     S
C1039  H1381   1.105   .     S
C1040  H1383   1.110   .     S
C1040  H1382   1.108   .     S
C1040  C131    1.515   1_655 S
C1040  H476    1.107   1_655 S
C1041  H1386   1.115   .     S
C1041  H1387   1.108   .     S
C1041  O1780   1.413   .     S
C1041  C1042   1.533   .     S
C1042  H1388   1.110   .     S
C1042  C1044   1.525   .     S
C1042  H1389   1.110   .     S
C1043  C1228   1.446   .     S
C1043  C2770   1.406   .     S
C1044  H1391   1.111   .     S
C1044  H1392   1.106   .     S
C1044  H1390   1.111   .     S
C1045  H1393   1.109   .     S
C1045  O1781   1.425   .     S
C1045  H1394   1.108   .     S
C1045  C1046   1.527   .     S
C1046  H1395   1.110   .     S
C1046  H1398   1.106   .     S
C1046  C2863   1.529   .     S
C1047  H1400   1.110   .     S
C1047  H1401   1.106   .     S
C1047  H1399   1.108   .     S
C1047  C2862   1.529   1_545 S
C1048  C1049   1.528   .     S
C1048  O1782   1.416   .     S
C1048  H1402   1.116   .     S
C1048  H1403   1.112   .     S
C1049  H1404   1.112   .     S
C1049  H1405   1.109   .     S
C1049  C1050   1.524   .     S
C1050  H1409   1.107   .     S
C1050  H1407   1.110   .     S
C1050  H1406   1.111   .     S
C1051  H1410   1.112   .     S
C1051  O1783   1.416   .     S
C1051  C1052   1.528   .     S
C1051  H1411   1.114   .     S
C1052  C1053   1.523   .     S
C1052  H1413   1.105   .     S
C1052  H1412   1.110   .     S
C1053  H1414   1.110   .     S
C1053  H507    1.110   1_655 S
C1053  H508    1.108   1_655 S
C1054  C1225   1.441   .     S
C1055  C1056   1.534   .     S
C1055  H1418   1.110   .     S
C1055  O1784   1.412   .     S
C1055  H1417   1.115   .     S
C1056  C1057   1.523   .     S
C1056  H1421   1.110   .     S
C1056  H1420   1.111   .     S
C1057  H1422   1.110   .     S
C1057  H1423   1.110   .     S
C1057  H1424   1.106   .     S
C1058  H1425   1.111   .     S
C1058  O1785   1.417   .     S
C1058  H1426   1.118   .     S
C1058  C1059   1.528   .     S
C1059  H1427   1.110   .     S
C1059  C1060   1.521   .     S
C1059  H1428   1.108   .     S
C1060  H1432   1.105   .     S
C1060  H1429   1.108   .     S
C1060  H1431   1.109   .     S
C1061  H1434   1.113   .     S
C1061  H1433   1.115   .     S
C1061  O1786   1.413   .     S
C1061  C1062   1.534   .     S
C1062  C1063   1.523   .     S
C1062  H1436   1.110   .     S
C1062  H1435   1.111   .     S
C1063  H1438   1.111   .     S
C1063  H1439   1.106   .     S
C1063  H1437   1.111   .     S
C1064  C1066   1.525   .     S
C1064  H1440   1.111   .     S
C1064  O1787   1.414   .     S
C1064  H1442   1.115   .     S
C1065  C1226   1.454   .     S
C1066  C1067   1.532   .     S
C1066  H1443   1.110   .     S
C1066  H1444   1.109   .     S
C1067  H1445   1.110   .     S
C1067  H1446   1.106   .     S
C1067  H1447   1.109   .     S
C1068  O1788   1.420   .     S
C1068  H1448   1.111   .     S
C1068  H1449   1.118   .     S
C1068  C1069   1.530   .     S
C1069  H1451   1.111   .     S
C1069  C1070   1.525   .     S
C1069  H1450   1.107   .     S
C1070  H1454   1.110   .     S
C1070  H1455   1.111   .     S
C1070  H1453   1.109   .     S
C1071  H1456   1.111   .     S
C1071  C1072   1.526   .     S
C1071  O1789   1.414   .     S
C1071  H1457   1.112   .     S
C1072  H1459   1.107   .     S
C1072  C1073   1.521   .     S
C1072  H1458   1.110   .     S
C1073  H1462   1.107   .     S
C1073  H1460   1.107   .     S
C1073  H1461   1.110   .     S
C1074  H1464   1.112   .     S
C1074  C1075   1.531   .     S
C1074  O1791   1.411   .     S
C1074  H1465   1.110   .     S
C1075  C1077   1.524   .     S
C1075  H1466   1.111   .     S
C1075  H1467   1.111   .     S
C1076  O1750   1.386   .     S
C1076  C1132   1.403   .     A
C1076  C374    1.416   1_655 S
C1077  H1470   1.106   .     S
C1077  H1468   1.111   .     S
C1077  H1469   1.110   .     S
C1078  H1471   1.111   .     S
C1078  C1079   1.525   .     S
C1078  H1472   1.115   .     S
C1078  O1792   1.420   .     S
C1079  H1473   1.110   .     S
C1079  H1475   1.111   .     S
C1079  C1080   1.526   .     S
C1080  H1477   1.107   .     S
C1080  H1478   1.111   .     S
C1080  H1476   1.111   .     S
C1081  H1479   1.115   .     S
C1081  H1480   1.112   .     S
C1081  O1793   1.416   .     S
C1081  C1082   1.529   .     S
C1082  H1482   1.109   .     S
C1082  C1083   1.524   .     S
C1082  H1481   1.111   .     S
C1083  H1483   1.111   .     S
C1083  H1486   1.107   .     S
C1083  H1484   1.110   .     S
C1084  O1794   1.420   .     S
C1084  H1488   1.108   .     S
C1084  C1085   1.537   .     S
C1084  H1487   1.111   .     S
C1085  H1489   1.104   .     S
C1085  C1086   1.528   .     S
C1085  H1490   1.110   .     S
C1086  H1491   1.106   .     S
C1086  H1493   1.111   .     S
C1086  H1492   1.107   .     S
C1087  C1283   1.416   .     A
C1087  O1751   1.385   .     S
C1088  O1795   1.415   .     S
C1088  C1089   1.529   .     S
C1088  H1494   1.116   .     S
C1088  H1495   1.111   .     S
C1089  H1498   1.109   .     S
C1089  C1090   1.524   .     S
C1089  H1497   1.112   .     S
C1090  H1500   1.110   .     S
C1090  H1499   1.111   .     S
C1090  H1501   1.107   .     S
C1091  O1796   1.419   .     S
C1091  H1503   1.107   .     S
C1091  H1502   1.106   .     S
C1091  C1092   1.543   .     S
C1092  C1093   1.521   .     S
C1092  H1505   1.112   .     S
C1092  H1504   1.109   .     S
C1093  H1509   1.107   .     S
C1093  H1510   1.111   .     S
C1093  H1506   1.109   .     S
C1094  C1095   1.530   .     S
C1094  H1511   1.115   .     S
C1094  O1797   1.412   .     S
C1094  H1512   1.109   .     S
C1095  H1514   1.110   .     S
C1095  H1513   1.109   .     S
C1095  C1096   1.526   .     S
C1096  H1515   1.111   .     S
C1096  H1517   1.107   .     S
C1096  H1516   1.110   .     S
C1097  H1520   1.113   .     S
C1097  C1099   1.515   .     S
C1097  O1798   1.419   .     S
C1097  H1518   1.111   .     S
C1098  C1154   1.397   .     A
C1098  C3100   1.417   .     S
C1098  O3568   1.384   .     S
C1099  H1522   1.110   .     S
C1099  C1100   1.527   .     S
C1099  H1521   1.109   .     S
C1100  H1524   1.107   .     S
C1100  H1525   1.111   .     S
C1100  H1523   1.111   .     S
C1101  H1527   1.108   .     S
C1101  H1526   1.115   .     S
C1101  C1102   1.529   .     S
C1101  O1799   1.414   .     S
C1102  H1528   1.112   .     S
C1102  H1529   1.109   .     S
C1102  C1103   1.526   .     S
C1103  H1532   1.110   .     S
C1103  H1531   1.111   .     S
C1103  H1533   1.108   .     S
C1104  O1800   1.417   .     S
C1104  H1535   1.115   .     S
C1104  H1534   1.111   .     S
C1104  C1105   1.529   .     S
C1105  H1537   1.104   .     S
C1105  H1536   1.110   .     S
C1105  C1106   1.522   .     S
C1106  H1538   1.106   .     S
C1106  H1539   1.110   .     S
C1106  H1540   1.106   .     S
C1107  H1542   1.116   .     S
C1107  O1703   1.412   .     S
C1107  H1543   1.109   .     S
C1107  C1108   1.531   .     S
C1108  H1544   1.111   .     S
C1108  C1110   1.524   .     S
C1108  H1545   1.111   .     S
C1109  O1753   1.389   .     S
C1109  C1143   1.403   .     A
C1110  H1546   1.111   .     S
C1110  H1547   1.111   .     S
C1110  H1548   1.109   .     S
C1111  C1116   1.403   .     A
C1111  C1112   1.405   .     A
C1112  C1113   1.397   .     A
C1112  H641    1.081   1_655 S
C1113  H1550   1.081   .     S
C1113  C1114   1.398   .     A
C1114  C1115   1.397   .     A
C1114  H1551   1.082   .     S
C1115  C1116   1.394   .     A
C1115  H1553   1.080   .     S
C1116  H1554   1.083   .     S
C1117  C1123   1.404   .     A
C1117  C1118   1.408   .     A
C1118  C1119   1.399   .     A
C1118  H647    1.081   1_655 S
C1119  H1556   1.083   .     S
C1119  C1121   1.397   .     A
C1120  O1754   1.386   .     S
C1120  C179    1.397   1_655 S
C1121  H1557   1.083   .     S
C1121  C1122   1.397   .     A
C1122  C1123   1.396   .     A
C1122  H1558   1.080   .     S
C1123  H1559   1.083   .     S
C1124  C1129   1.404   .     A
C1124  C1131   1.490   .     S
C1124  C2941   1.406   .     S
C1125  C1126   1.398   .     A
C1125  H1560   1.082   .     S
C1125  C2940   1.406   1_545 S
C1126  H1561   1.083   .     S
C1126  C2943   1.398   1_545 S
C1127  H1562   1.083   .     S
C1127  C1128   1.398   .     A
C1127  C2942   1.398   .     S
C1128  C1129   1.399   .     A
C1128  H1564   1.082   .     S
C1129  H1565   1.083   .     S
C1130  C1137   1.403   .     A
C1130  C1133   1.402   .     A
C1130  C1219   1.481   .     S
C1131  C2730   1.410   .     S
C1131  C2825   1.403   .     S
C1132  O1755   1.385   .     S
C1133  C1134   1.398   .     A
C1133  H3382   1.083   .     S
C1134  C1135   1.395   .     A
C1134  H1567   1.075   .     S
C1135  H1568   1.082   .     S
C1135  C1136   1.397   .     A
C1136  C1137   1.394   .     A
C1136  H1569   1.081   .     S
C1137  H1570   1.083   .     S
C1138  C1144   1.406   .     A
C1138  C1230   1.491   .     S
C1138  C1139   1.405   .     A
C1139  C1140   1.397   .     A
C1140  H1572   1.082   .     S
C1140  C1141   1.397   .     A
C1141  C1142   1.396   .     A
C1141  H1573   1.082   .     S
C1142  H1575   1.081   .     S
C1142  C1144   1.399   .     A
C1143  O1756   1.386   .     S
C1144  H1576   1.083   .     S
C1145  C1150   1.404   .     A
C1145  C1146   1.404   .     A
C1145  C1241   1.487   .     S
C1146  C1147   1.395   .     A
C1147  C1148   1.397   .     A
C1148  H1579   1.083   .     S
C1148  C1149   1.397   .     A
C1149  H1580   1.079   .     S
C1149  C1150   1.396   .     A
C1150  H1581   1.083   .     S
C1151  C1157   1.404   .     A
C1151  C1252   1.494   .     S
C1151  C2968   1.408   1_545 S
C1152  H1582   1.080   .     S
C1152  C2967   1.408   .     S
C1152  C2969   1.398   .     S
C1153  C1155   1.397   .     A
C1153  C2968   1.398   1_545 S
C1153  H3399   1.083   1_545 S
C1154  O1758   1.385   .     S
C1155  H1584   1.083   .     S
C1155  C1156   1.397   .     A
C1156  H1586   1.079   .     S
C1156  C1157   1.396   .     A
C1157  H1587   1.083   .     S
C1158  C1263   1.487   .     S
C1158  C1163   1.403   .     A
C1158  C1159   1.405   .     A
C1159  C1160   1.396   .     A
C1159  H3404   1.080   1_545 S
C1160  H1589   1.081   .     S
C1160  C1161   1.398   .     A
C1161  C1162   1.397   .     A
C1161  H1590   1.082   .     S
C1162  H1591   1.080   .     S
C1162  C1163   1.395   .     A
C1163  H1592   1.083   .     S
C1164  C1170   1.404   .     A
C1164  C1166   1.406   .     A
C1164  C1274   1.490   .     S
C1165  O1759   1.384   .     S
C1165  C1217   1.401   1_556 S
C1166  H1593   1.080   .     S
C1166  C1167   1.396   .     A
C1167  H1594   1.082   .     S
C1167  C1168   1.398   .     A
C1168  C1169   1.397   .     A
C1168  H1595   1.082   .     S
C1169  H1597   1.081   .     S
C1169  C1170   1.397   .     A
C1170  H1598   1.083   .     S
C1171  C1172   1.408   .     A
C1171  C1177   1.405   .     A
C1172  C1173   1.399   .     A
C1172  H1599   1.081   .     S
C1173  H1600   1.083   .     S
C1173  C1174   1.397   .     A
C1174  H1601   1.083   .     S
C1174  C1175   1.397   .     A
C1175  H1602   1.081   .     S
C1175  C1177   1.397   .     A
C1176  O1760   1.384   .     S
C1176  C1209   1.400   1_554 S
C1177  H1603   1.083   .     S
C1178  C1183   1.403   .     A
C1178  C1179   1.407   .     A
C1179  C1180   1.398   .     A
C1179  H1604   1.083   .     S
C1180  C1181   1.398   .     A
C1180  H1605   1.083   .     S
C1181  H1606   1.083   .     S
C1181  C1182   1.398   .     A
C1182  C1183   1.397   .     A
C1182  H1608   1.080   .     S
C1183  H1609   1.083   .     S
C1184  C1185   1.405   .     A
C1184  C1190   1.404   .     A
C1185  H1610   1.081   .     S
C1185  C1186   1.395   .     A
C1186  H1611   1.081   .     S
C1186  C1188   1.398   .     A
C1187  O1761   1.385   .     S
C1187  C1220   1.397   1_556 S
C1188  C1189   1.398   .     A
C1188  H1612   1.082   .     S
C1189  H1613   1.081   .     S
C1189  C1190   1.396   .     A
C1190  H1614   1.083   .     S
C1191  C1196   1.405   .     A
C1191  C1192   1.404   .     A
C1192  C1193   1.395   .     A
C1192  H1615   1.082   .     S
C1193  H1616   1.079   .     S
C1193  C1194   1.398   .     A
C1194  H1617   1.082   .     S
C1194  C1195   1.397   .     A
C1195  H1620   1.082   .     S
C1195  C1196   1.398   .     A
C1196  H1621   1.083   .     S
C1197  C1203   1.404   .     A
C1197  C1199   1.408   .     A
C1198  O1762   1.385   .     S
C1198  C1218   1.396   1_554 S
C1199  C1200   1.399   .     A
C1199  H1622   1.081   .     S
C1200  H1623   1.083   .     S
C1200  C1201   1.397   .     A
C1201  C1202   1.397   .     A
C1201  H1624   1.083   .     S
C1202  H1625   1.080   .     S
C1202  C1203   1.396   .     A
C1203  H1626   1.083   .     S
C1204  C1210   1.404   .     A
C1204  C1205   1.407   .     A
C1205  H1627   1.081   .     S
C1205  C1206   1.399   .     A
C1206  C1207   1.397   .     A
C1206  H1628   1.083   .     S
C1207  C1208   1.397   .     A
C1207  H1629   1.083   .     S
C1208  H1631   1.080   .     S
C1208  C1210   1.396   .     A
C1209  O1763   1.385   .     S
C1209  C1176   1.400   1_556 S
C1210  H1632   1.083   .     S
C1211  C1212   1.402   .     A
C1211  C1216   1.404   .     A
C1212  H1633   1.080   .     S
C1212  C1213   1.392   .     A
C1213  H1634   1.079   .     S
C1213  C1214   1.400   .     A
C1214  C1215   1.397   .     A
C1214  H1635   1.082   .     S
C1215  H1636   1.080   .     S
C1215  C1216   1.395   .     A
C1216  H1637   1.083   .     S
C1217  O1764   1.385   .     S
C1217  C1165   1.401   1_554 S
C1218  O1765   1.387   .     S
C1218  C1198   1.396   1_556 S
C1220  O1766   1.387   .     S
C1220  C1187   1.397   1_554 S
C1221  O1790   1.272   .     A
C1221  O3562   1.278   1_545 S
C1222  O1702   1.276   .     A
C1222  O3573   1.281   .     S
C1223  O1768   1.281   .     A
C1224  O1779   1.282   .     A
C1224  O797    1.283   1_655 S
C1225  O1706   1.276   .     S
C1225  O1710   1.274   .     S
C1226  O1707   1.279   .     S
C1226  O1711   1.278   .     S
C1227  O1708   1.283   .     S
C1227  O1712   1.284   .     S
C1228  O3530   1.283   .     A
C1228  O3525   1.282   .     A
C1229  O1715   1.285   .     A
C1229  O1743   1.285   .     A
C1230  C1282   1.415   .     A
C1231  O1744   1.283   .     A
C1231  O1716   1.284   .     A
C1232  O1741   1.285   .     A
C1232  O1717   1.284   .     A
C1233  O1718   1.285   .     A
C1233  O1742   1.286   .     A
C1234  O1719   1.286   .     A
C1234  O1748   1.284   .     A
C1235  O1720   1.285   .     A
C1235  O1749   1.283   .     A
C1236  O1721   1.282   .     A
C1236  O1745   1.285   .     A
C1237  O1747   1.284   .     A
C1237  O1722   1.284   .     A
C1238  O1723   1.284   .     A
C1238  O1734   1.284   .     A
C1239  O1725   1.289   .     A
C1239  O1736   1.283   .     A
C1240  O1726   1.287   .     A
C1240  O1732   1.286   .     A
C1241  C1283   1.409   .     A
C1242  O1733   1.283   .     A
C1242  O1727   1.283   .     A
C1243  O1739   1.281   .     A
C1243  O1728   1.286   .     A
C1244  O1729   1.285   .     A
C1244  O1740   1.284   .     A
C1245  O1737   1.286   .     A
C1245  O1730   1.284   .     A
C1246  O1731   1.282   .     A
C1246  O1738   1.286   .     A
C1247  O1767   1.386   .     S
C1247  C1264   1.398   .     A
C1248  O1769   1.386   .     S
C1248  C1262   1.399   .     A
C1249  O1770   1.388   .     S
C1249  C1261   1.390   .     A
C1250  C1260   1.400   .     A
C1250  O1771   1.380   .     S
C1251  O1772   1.385   .     S
C1251  C1259   1.396   .     A
C1252  C1284   1.412   .     A
C1253  C1258   1.396   .     A
C1253  O1773   1.385   .     S
C1254  C1257   1.391   .     A
C1254  O1774   1.387   .     S
C1255  C1256   1.390   .     A
C1255  O1775   1.384   .     S
C1256  O1776   1.388   .     S
C1257  O1777   1.383   .     S
C1258  O1778   1.386   .     S
C1259  O1780   1.386   .     S
C1260  O1781   1.397   .     S
C1261  O1782   1.383   .     S
C1262  O1783   1.386   .     S
C1263  C2837   1.406   1_545 S
C1264  O1784   1.386   .     S
C1265  C1281   1.394   .     A
C1265  O1785   1.384   .     S
C1266  C1280   1.397   .     A
C1266  O1786   1.386   .     S
C1267  C1279   1.391   .     A
C1267  O1787   1.385   .     S
C1268  C1278   1.393   .     A
C1268  O1788   1.385   .     S
C1269  O1789   1.386   .     S
C1269  C1277   1.400   .     A
C1270  C1276   1.407   .     A
C1270  O1791   1.383   .     S
C1271  C1275   1.390   .     A
C1271  O1792   1.388   .     S
C1272  O1793   1.384   .     S
C1272  C1273   1.391   .     A
C1273  O1794   1.387   .     S
C1275  O1795   1.384   .     S
C1276  O1796   1.392   .     S
C1277  O1797   1.385   .     S
C1278  O1798   1.387   .     S
C1279  O1799   1.383   .     S
C1280  O1800   1.387   .     S
C1281  O1703   1.384   .     S
C1284  C2914   1.417   1_545 S
H1289  C999    1.110   1_554 S
H1296  C1002   1.110   1_556 S
H1306  C2822   1.110   1_545 S
H1307  C2822   1.107   1_545 S
H1337  C2835   1.110   .     S
H1338  C2835   1.107   .     S
H1351  C119    1.111   1_655 S
H1369  C2850   1.111   .     S
H1566  C2949   1.083   1_545 S
H1571  C231    1.078   1_655 S
H1577  C238    1.081   1_655 S
H1578  C239    1.078   1_655 S
H1583  C2969   1.083   .     S
H1588  C2975   1.080   .     S
O1701  Zn3624  1.949   1_545 S
O1701  Zn1801  1.957   .     S
O1701  Zn1812  1.959   .     S
O1701  Zn1804  1.950   .     S
O1702  Zn1803  1.940   .     S
O1704  Zn1806  1.940   .     S
O1704  C315    1.284   1_655 S
O1705  Zn1805  1.940   .     S
O1706  Zn1815  1.940   .     S
O1707  Zn1814  1.940   .     S
O1708  Zn1809  1.941   .     S
O1709  Zn1801  1.941   .     S
O1709  C3044   1.282   1_545 A
O1710  Zn1811  1.940   .     S
O1711  Zn1810  1.940   .     S
O1712  Zn1813  1.940   .     S
O1713  Zn1813  1.959   .     S
O1713  Zn3619  1.950   1_545 S
O1713  Zn1809  1.957   .     S
O1713  Zn1807  1.949   .     S
O1714  C3044   1.283   1_545 A
O1714  Zn1812  1.940   .     S
O1715  Zn1804  1.948   .     S
O1716  Zn1803  1.948   .     S
O1717  Zn1806  1.950   .     S
O1718  Zn1805  1.950   .     S
O1719  Zn1808  1.949   .     S
O1720  Zn1807  1.949   .     S
O1721  Zn1802  1.951   .     S
O1722  Zn1816  1.951   .     S
O1723  Zn1803  1.955   .     S
O1724  Zn1810  1.950   .     S
O1724  Zn1814  1.949   .     S
O1724  Zn1802  1.957   .     S
O1725  Zn1804  1.955   .     S
O1726  Zn1816  1.944   .     S
O1727  Zn1802  1.944   .     S
O1728  Zn1807  1.955   .     S
O1729  Zn1808  1.955   .     S
O1730  Zn1805  1.943   .     S
O1731  Zn1806  1.943   .     S
O1732  Zn903   1.948   1_655 S
O1733  Zn1810  1.948   .     S
O1734  Zn3629  1.950   .     S
O1735  Zn1815  1.949   .     S
O1735  Zn1811  1.950   .     S
O1735  Zn1805  1.959   .     S
O1736  Zn1812  1.950   .     S
O1737  Zn1815  1.949   .     S
O1738  Zn906   1.949   1_655 S
O1739  Zn1809  1.951   .     S
O1740  Zn3617  1.951   .     S
O1741  Zn902   1.955   1_655 S
O1742  Zn1811  1.955   .     S
O1743  Zn1801  1.944   .     S
O1744  Zn3625  1.944   .     S
O1745  Zn1814  1.955   .     S
O1746  Zn1808  1.940   .     S
O1746  C3037   1.278   .     S
O1747  Zn907   1.955   1_655 S
O1748  Zn3628  1.943   .     S
O1749  Zn1813  1.943   .     S
O1752  C2914   1.384   1_545 S
O1752  C2774   1.411   1_545 S
O1753  C2777   1.416   1_545 S
O1754  C56     1.412   1_655 S
O1755  C60     1.411   1_655 S
O1757  Zn1807  1.940   .     S
O1757  C3038   1.281   1_545 S
O1758  C2790   1.413   .     S
O1768  Zn1802  1.941   .     S
O1779  Zn1816  1.941   .     S
O1790  Zn1804  1.940   .     S
Zn1801 O3556   1.951   1_545 S
Zn1803 O3529   1.950   .     S
Zn1806 O816    1.959   1_655 S
Zn1808 O3517   1.949   .     S
Zn1809 O3560   1.944   1_545 S
Zn1812 O3564   1.943   1_545 S
Zn1813 O3550   1.950   1_545 S
Zn1816 O827    1.957   1_655 S
C1817  C2019   1.487   .     S
C1817  C1820   1.407   .     A
C1817  C2803   1.402   .     S
C1818  C1830   1.413   .     A
C1818  C1951   1.407   .     A
C1818  C2079   1.494   .     S
C1819  C1854   1.420   .     A
C1819  C2171   1.416   .     A
C1819  C2017   1.415   .     A
C1820  C1850   1.419   .     A
C1820  C2028   1.413   .     A
C1821  C1852   1.421   .     A
C1821  C1928   1.416   .     A
C1821  C2040   1.418   .     A
C1822  C1853   1.421   .     A
C1822  C2051   1.416   .     A
C1823  C2062   1.413   .     A
C1823  C2127   1.407   .     A
C1823  C38     1.416   1_565 S
C1824  C1851   1.412   .     A
C1824  C2073   1.417   .     A
C1824  C39     1.418   1_565 S
C1825  C1862   1.412   .     A
C1825  C1856   1.419   .     A
C1825  C2084   1.416   .     A
C1826  C1857   1.421   .     A
C1826  C2095   1.414   .     A
C1826  C1873   1.411   .     A
C1827  C2106   1.416   .     A
C1827  C1884   1.410   .     A
C1827  C2766   1.419   .     S
C1828  C2117   1.417   .     A
C1828  C1855   1.420   .     A
C1828  C2182   1.414   .     A
C1829  C1831   1.408   .     A
C1829  C2086   1.491   .     S
C1829  C2870   1.401   .     S
C1830  C2125   1.417   .     A
C1830  C40     1.420   1_565 S
C1831  C2126   1.415   .     A
C1831  C2765   1.422   .     S
C1832  C2128   1.419   .     A
C1832  C1840   1.414   .     A
C1832  C1858   1.420   .     A
C1833  C2144   1.468   .     S
C1833  C2174   1.415   .     A
C1833  C2172   1.412   .     A
C1834  C2173   1.413   .     A
C1834  C2170   1.413   .     A
C1834  C2145   1.471   .     S
C1835  C2137   1.467   .     S
C1835  C2169   1.414   .     A
C1835  C2176   1.413   .     A
C1836  C2175   1.412   .     A
C1836  C2139   1.464   .     S
C1836  C2168   1.422   .     A
C1837  C2178   1.414   .     A
C1837  C2140   1.469   .     S
C1837  C2167   1.410   .     A
C1838  C2177   1.412   .     A
C1838  C2141   1.473   .     S
C1838  C2166   1.413   .     A
C1839  C2180   1.411   .     A
C1839  C2142   1.466   .     S
C1839  C2165   1.413   .     A
C1840  C1973   1.405   .     A
C1840  C2092   1.487   .     S
C1841  C2179   1.414   .     A
C1841  C2143   1.463   .     S
C1841  C2164   1.415   .     A
C1842  C2163   1.411   .     A
C1842  C2153   1.465   .     S
C1842  C2183   1.414   .     A
C1843  C2162   1.412   .     A
C1843  C2154   1.462   .     S
C1843  C2181   1.416   .     A
C1844  C2185   1.411   .     A
C1844  C2161   1.410   .     A
C1844  C2146   1.467   .     S
C1845  C2159   1.414   .     A
C1845  C2184   1.413   .     A
C1845  C2147   1.474   .     S
C1846  C2158   1.417   .     A
C1846  C2187   1.408   .     A
C1846  C2148   1.475   .     S
C1847  C2150   1.461   .     S
C1847  C2186   1.413   .     A
C1847  C2157   1.413   .     A
C1848  C2156   1.415   .     A
C1848  C2189   1.410   .     A
C1848  C2151   1.468   .     S
C1849  C2155   1.414   .     A
C1849  C2188   1.413   .     A
C1849  C2152   1.470   .     S
C1850  C1852   1.411   .     A
C1850  C3098   1.419   .     S
C1851  C2099   1.487   .     S
C1851  C124    1.406   1_565 S
C1852  C3099   1.420   .     S
C1853  C1854   1.411   .     A
C1853  C2192   1.425   .     A
C1855  C1856   1.410   1_556 S
C1856  C1855   1.410   1_554 S
C1857  C2739   1.422   1_455 S
C1857  C1858   1.411   1_556 S
C1858  C2735   1.419   1_455 S
C1858  C1857   1.411   1_554 S
C1859  C1860   1.529   .     S
C1859  H2304   1.118   .     S
C1859  H2193   1.109   .     S
C1859  O2658   1.417   .     S
C1860  C1861   1.525   .     S
C1860  H2526   1.109   .     S
C1860  H2415   1.112   .     S
C1861  H2576   1.109   .     S
C1861  H2554   1.111   .     S
C1861  H2565   1.110   .     S
C1862  C2105   1.492   .     S
C1863  H2598   1.115   .     S
C1863  H2587   1.112   .     S
C1863  C1864   1.528   .     S
C1863  O3567   1.413   .     S
C1864  H2194   1.111   .     S
C1864  C1865   1.525   .     S
C1864  H2205   1.112   .     S
C1865  H2227   1.110   .     S
C1865  H2238   1.109   .     S
C1865  H2216   1.110   .     S
C1866  H2260   1.115   .     S
C1866  C1867   1.528   .     S
C1866  H2249   1.109   .     S
C1866  O844    1.411   1_565 S
C1867  H2282   1.112   .     S
C1867  C1868   1.523   .     S
C1867  H2271   1.112   .     S
C1868  H2316   1.110   .     S
C1868  H2293   1.110   .     S
C1868  H2305   1.111   .     S
C1869  H2327   1.115   .     S
C1869  C1870   1.529   .     S
C1869  H2338   1.111   .     S
C1869  O845    1.416   1_565 S
C1870  H2360   1.112   .     S
C1870  H2349   1.111   .     S
C1870  C1871   1.527   .     S
C1871  H2382   1.110   .     S
C1871  H2371   1.111   .     S
C1871  H2393   1.111   .     S
C1872  H2404   1.110   .     S
C1872  C1874   1.527   .     S
C1872  H2416   1.115   .     S
C1872  O3570   1.412   1_455 S
C1873  C2112   1.492   .     S
C1873  C1962   1.404   .     A
C1874  H2438   1.112   .     S
C1874  C1875   1.526   .     S
C1874  H2427   1.111   .     S
C1875  H2471   1.110   .     S
C1875  H2460   1.110   .     S
C1875  H2449   1.111   .     S
C1876  C1877   1.529   .     S
C1876  H2493   1.114   .     S
C1876  H2482   1.110   .     S
C1876  O3571   1.411   1_455 S
C1877  H2515   1.111   .     S
C1877  H2504   1.110   .     S
C1877  C1878   1.524   .     S
C1878  H2527   1.111   .     S
C1878  H2538   1.110   .     S
C1878  H2546   1.110   .     S
C1879  O2664   1.419   .     S
C1879  H2547   1.111   .     S
C1879  C1880   1.535   .     S
C1879  H2548   1.116   .     S
C1880  H2550   1.109   .     S
C1880  C1881   1.525   .     S
C1880  H2549   1.112   .     S
C1881  H2553   1.109   .     S
C1881  H2552   1.110   .     S
C1881  H2551   1.110   .     S
C1882  H2556   1.115   .     S
C1882  C1883   1.528   .     S
C1882  H2555   1.110   .     S
C1883  H2558   1.112   .     S
C1883  H2557   1.111   .     S
C1883  C1885   1.525   .     S
C1884  C2119   1.482   .     S
C1884  C2881   1.403   .     S
C1885  H2559   1.110   .     S
C1885  H2560   1.111   .     S
C1885  H2561   1.110   .     S
C1886  H2562   1.110   .     S
C1886  C1887   1.528   .     S
C1886  O2667   1.412   .     S
C1886  H2563   1.113   .     S
C1887  H2566   1.112   .     S
C1887  H2564   1.111   .     S
C1887  C1888   1.525   .     S
C1888  H2568   1.110   .     S
C1888  H2569   1.111   .     S
C1888  H2567   1.110   .     S
C1889  H2570   1.110   .     S
C1889  C1890   1.527   .     S
C1889  H2571   1.115   .     S
C1889  O2668   1.411   .     S
C1890  H2572   1.111   .     S
C1890  H2573   1.112   .     S
C1890  C1891   1.524   .     S
C1891  H2574   1.110   .     S
C1891  H2575   1.110   .     S
C1891  H2577   1.110   .     S
C1892  H2578   1.110   .     S
C1892  C1893   1.529   .     S
C1892  O2669   1.416   .     S
C1892  H2579   1.118   .     S
C1893  H2581   1.111   .     S
C1893  C1894   1.526   .     S
C1893  H2580   1.112   .     S
C1894  H2582   1.111   .     S
C1894  H2583   1.110   .     S
C1894  H2584   1.109   .     S
C1895  C2131   1.448   .     S
C1895  C2138   1.408   .     A
C1895  C2725   1.402   1_455 S
C1896  H2586   1.115   .     S
C1896  O2670   1.412   .     S
C1896  C1897   1.528   .     S
C1896  H2585   1.112   .     S
C1897  H2589   1.112   .     S
C1897  C1898   1.525   .     S
C1897  H2588   1.111   .     S
C1898  H2592   1.109   .     S
C1898  H2590   1.111   .     S
C1898  H2591   1.110   .     S
C1899  H2593   1.110   .     S
C1899  O2671   1.412   .     S
C1899  C1900   1.528   .     S
C1899  H2594   1.115   .     S
C1900  H2596   1.112   .     S
C1900  C1901   1.525   .     S
C1900  H2595   1.112   .     S
C1901  H2600   1.110   .     S
C1901  H2597   1.111   .     S
C1901  H2599   1.110   .     S
C1902  H2601   1.109   .     S
C1902  O2672   1.411   .     S
C1902  H2602   1.113   .     S
C1902  C1903   1.528   .     S
C1903  H2603   1.111   .     S
C1903  C1904   1.525   .     S
C1903  H2604   1.112   .     S
C1904  H2607   1.111   .     S
C1904  H2606   1.111   .     S
C1904  H2605   1.110   .     S
C1905  C1907   1.534   .     S
C1905  H2195   1.114   .     S
C1905  O2673   1.418   .     S
C1905  H2608   1.111   .     S
C1906  C2132   1.449   .     S
C1906  C1928   1.408   .     A
C1906  C3057   1.403   .     S
C1907  C1908   1.526   .     S
C1907  H2196   1.112   .     S
C1907  H2197   1.110   1_556 S
C1908  H2198   1.110   .     S
C1908  H2200   1.111   .     S
C1908  H2199   1.109   .     S
C1909  O2674   1.418   .     S
C1909  H2202   1.112   .     S
C1909  C1910   1.533   .     S
C1909  H2201   1.111   .     S
C1910  H2203   1.111   .     S
C1910  C1911   1.526   .     S
C1910  H2204   1.110   1_554 S
C1911  H2207   1.108   .     S
C1911  H2208   1.111   .     S
C1911  H2206   1.111   .     S
C1912  H2209   1.111   .     S
C1912  O2675   1.415   .     S
C1912  C1913   1.528   .     S
C1912  H2210   1.114   .     S
C1913  H2211   1.109   .     S
C1913  H2212   1.104   .     S
C1913  C1914   1.520   .     S
C1914  H2213   1.108   .     S
C1914  H398    1.110   1_565 S
C1914  H399    1.107   1_565 S
C1915  O2677   1.412   .     S
C1915  C1916   1.533   .     S
C1915  H2218   1.111   .     S
C1915  H2217   1.115   .     S
C1916  H2220   1.110   .     S
C1916  C1918   1.524   .     S
C1916  H2219   1.111   .     S
C1917  C2160   1.403   .     A
C1917  C2129   1.443   .     S
C1918  H2222   1.110   .     S
C1918  H2223   1.106   .     S
C1918  H2221   1.111   .     S
C1919  H2225   1.115   .     S
C1919  O2678   1.421   .     S
C1919  C1920   1.524   .     S
C1919  H2224   1.111   .     S
C1920  H2226   1.110   .     S
C1920  H2228   1.111   .     S
C1920  C2829   1.527   1_455 S
C1921  H2231   1.111   .     S
C1921  H2230   1.110   .     S
C1921  C2828   1.527   .     S
C1921  H3137   1.111   .     S
C1922  C1923   1.529   .     S
C1922  H2232   1.116   .     S
C1922  O2679   1.413   .     S
C1922  H2233   1.114   .     S
C1923  H2235   1.111   .     S
C1923  H2234   1.112   .     S
C1923  C1924   1.524   .     S
C1924  H2237   1.110   .     S
C1924  H2239   1.109   .     S
C1924  H2236   1.111   .     S
C1925  O2680   1.416   .     S
C1925  C1926   1.528   .     S
C1925  H2241   1.116   .     S
C1925  H2240   1.111   .     S
C1926  H2242   1.109   .     S
C1926  C1927   1.521   .     S
C1926  H2243   1.105   .     S
C1927  H2244   1.106   .     S
C1928  C2025   1.492   .     S
C1929  C2127   1.401   .     A
C1929  C2130   1.453   .     S
C1929  C355    1.406   1_565 S
C1930  C1931   1.530   .     S
C1930  H2247   1.115   .     S
C1930  O2681   1.410   .     S
C1930  H2248   1.111   .     S
C1931  C1932   1.525   .     S
C1931  H2250   1.112   .     S
C1931  H2251   1.112   .     S
C1932  H2253   1.110   .     S
C1932  H2252   1.111   .     S
C1932  H2254   1.108   .     S
C1933  O2682   1.421   .     S
C1933  H2255   1.110   .     S
C1933  C1934   1.525   .     S
C1933  H2256   1.118   .     S
C1934  H2258   1.108   .     S
C1934  C2843   1.528   .     S
C1934  H3165   1.111   .     S
C1935  H2261   1.110   .     S
C1935  H2262   1.111   .     S
C1935  C2842   1.528   1_455 S
C1935  H3167   1.111   1_455 S
C1936  H2264   1.113   .     S
C1936  O2683   1.415   .     S
C1936  H2263   1.115   .     S
C1936  C1937   1.528   .     S
C1937  H2265   1.112   .     S
C1937  C1938   1.526   .     S
C1937  H2266   1.109   .     S
C1938  H2267   1.111   .     S
C1938  H2268   1.110   .     S
C1938  H2269   1.107   .     S
C1939  H2272   1.113   .     S
C1939  H2270   1.111   .     S
C1939  O2684   1.420   .     S
C1939  C1941   1.530   .     S
C1940  C2135   1.452   .     S
C1940  C2182   1.406   .     A
C1941  H2274   1.110   .     S
C1941  H2273   1.110   .     S
C1941  C1942   1.525   .     S
C1942  H2276   1.110   .     S
C1942  H2275   1.110   .     S
C1943  H2279   1.111   .     S
C1943  H2278   1.116   .     S
C1943  O2685   1.416   .     S
C1943  C1944   1.528   .     S
C1944  C1945   1.524   .     S
C1944  H2281   1.109   .     S
C1944  H2280   1.112   .     S
C1945  H2285   1.107   .     S
C1945  H2284   1.110   .     S
C1945  H2283   1.111   .     S
C1946  H2287   1.110   .     S
C1946  C1947   1.529   .     S
C1946  O2686   1.418   .     S
C1946  H2286   1.114   .     S
C1947  H2288   1.108   .     S
C1947  H2289   1.105   .     S
C1947  C2856   1.515   1_455 S
C1948  H2291   1.110   .     S
C1948  H2290   1.108   .     S
C1948  C2855   1.515   .     S
C1948  H3200   1.107   .     S
C1949  H2294   1.115   .     S
C1949  H2295   1.108   .     S
C1949  O2688   1.413   .     S
C1949  C1950   1.533   .     S
C1950  H2296   1.110   .     S
C1950  C1952   1.525   .     S
C1950  H2297   1.110   .     S
C1951  C2136   1.446   .     S
C1951  C46     1.406   1_565 S
C1952  H2299   1.111   .     S
C1952  H2300   1.106   .     S
C1952  H2298   1.111   .     S
C1953  H2301   1.109   .     S
C1953  O2689   1.425   .     S
C1953  H2302   1.108   .     S
C1953  C1954   1.527   .     S
C1954  H2303   1.110   .     S
C1954  H2306   1.106   .     S
C1954  C139    1.529   1_565 S
C1955  H2308   1.110   .     S
C1955  H2309   1.106   .     S
C1955  H2307   1.108   .     S
C1956  C1957   1.528   .     S
C1956  O2690   1.416   .     S
C1956  H2310   1.116   .     S
C1956  H2311   1.112   .     S
C1957  H2312   1.112   .     S
C1957  H2313   1.109   .     S
C1957  C1958   1.524   .     S
C1958  H2317   1.107   .     S
C1958  H2315   1.110   .     S
C1958  H2314   1.111   .     S
C1959  H2318   1.112   .     S
C1959  O2691   1.416   .     S
C1959  C1960   1.528   .     S
C1959  H2319   1.114   .     S
C1960  C1961   1.523   .     S
C1960  H2321   1.105   .     S
C1960  H2320   1.110   .     S
C1961  H2322   1.110   .     S
C1961  H3231   1.110   .     S
C1961  H3232   1.108   .     S
C1962  C2133   1.441   .     S
C1962  C2737   1.401   1_455 S
C1963  C1964   1.534   .     S
C1963  H2326   1.110   .     S
C1963  O2692   1.412   .     S
C1963  H2325   1.115   .     S
C1964  C1965   1.523   .     S
C1964  H2329   1.110   .     S
C1964  H2328   1.111   .     S
C1965  H2330   1.110   .     S
C1965  H2331   1.110   .     S
C1965  H2332   1.106   .     S
C1966  H2333   1.111   .     S
C1966  O2693   1.417   .     S
C1966  H2334   1.118   .     S
C1966  C1967   1.528   .     S
C1967  H2335   1.110   .     S
C1967  C1968   1.521   .     S
C1967  H2336   1.108   .     S
C1968  H2340   1.105   .     S
C1968  H2337   1.108   .     S
C1968  H2339   1.109   .     S
C1969  H2342   1.113   .     S
C1969  H2341   1.115   .     S
C1969  O2694   1.413   .     S
C1969  C1970   1.534   .     S
C1970  C1971   1.523   .     S
C1970  H2344   1.110   .     S
C1970  H2343   1.111   .     S
C1971  H2346   1.111   .     S
C1971  H2347   1.106   .     S
C1971  H2345   1.111   .     S
C1972  C1974   1.525   .     S
C1972  H2348   1.111   .     S
C1972  O2695   1.414   .     S
C1972  H2350   1.115   .     S
C1973  C2134   1.454   .     S
C1973  C2792   1.403   1_455 S
C1974  C1975   1.532   .     S
C1974  H2351   1.110   .     S
C1974  H2352   1.109   .     S
C1975  H2353   1.110   .     S
C1975  H2354   1.106   .     S
C1975  H2355   1.109   .     S
C1976  O2696   1.420   .     S
C1976  H2356   1.111   .     S
C1976  H2357   1.118   .     S
C1976  C1977   1.530   .     S
C1977  H2359   1.111   .     S
C1977  C1978   1.525   .     S
C1977  H2358   1.107   .     S
C1978  H2362   1.110   .     S
C1978  H2363   1.111   .     S
C1978  H2361   1.109   .     S
C1979  H2364   1.111   .     S
C1979  C1980   1.526   .     S
C1979  O2697   1.414   .     S
C1979  H2365   1.112   .     S
C1980  H2367   1.107   .     S
C1980  C1981   1.521   .     S
C1980  H2366   1.110   .     S
C1981  H2370   1.107   .     S
C1981  H2368   1.107   .     S
C1981  H2369   1.110   .     S
C1982  H2372   1.112   .     S
C1982  C1983   1.531   .     S
C1982  O2699   1.411   .     S
C1982  H2373   1.110   .     S
C1983  C1985   1.524   .     S
C1983  H2374   1.111   .     S
C1983  H2375   1.111   .     S
C1984  O2658   1.386   .     S
C1984  C2040   1.403   .     A
C1984  C3098   1.416   .     S
C1985  H2378   1.106   .     S
C1985  H2376   1.111   .     S
C1985  H2377   1.110   .     S
C1986  H2379   1.111   .     S
C1986  C1987   1.525   .     S
C1986  H2380   1.115   .     S
C1986  O2700   1.420   .     S
C1987  H2381   1.110   .     S
C1987  H2383   1.111   .     S
C1987  C1988   1.526   .     S
C1988  H2385   1.107   .     S
C1988  H2386   1.111   .     S
C1988  H2384   1.111   .     S
C1989  H2387   1.115   .     S
C1989  H2388   1.112   .     S
C1989  O2701   1.416   .     S
C1989  C1990   1.529   .     S
C1990  H2390   1.109   .     S
C1990  C1991   1.524   .     S
C1990  H2389   1.111   .     S
C1991  H2391   1.111   .     S
C1991  H2394   1.107   .     S
C1991  H2392   1.110   .     S
C1992  O2702   1.420   .     S
C1992  H2396   1.108   .     S
C1992  C1993   1.537   .     S
C1992  H2395   1.111   .     S
C1993  H2397   1.104   .     S
C1993  C1994   1.528   .     S
C1993  H2398   1.110   .     S
C1994  H2399   1.106   .     S
C1994  H2401   1.111   .     S
C1994  H2400   1.107   .     S
C1995  C2191   1.416   .     A
C1995  O2659   1.385   .     S
C1995  C2936   1.397   1_455 S
C1996  O2703   1.415   .     S
C1996  C1997   1.529   .     S
C1996  H2402   1.116   .     S
C1996  H2403   1.111   .     S
C1997  H2406   1.109   .     S
C1997  C1998   1.524   .     S
C1997  H2405   1.112   .     S
C1998  H2408   1.110   .     S
C1998  H2407   1.111   .     S
C1998  H2409   1.107   .     S
C1999  O2704   1.419   .     S
C1999  H2411   1.107   .     S
C1999  H2410   1.106   .     S
C1999  C2000   1.543   .     S
C2000  C2001   1.521   .     S
C2000  H2413   1.112   .     S
C2000  H2412   1.109   .     S
C2001  H2417   1.107   .     S
C2001  H2418   1.111   .     S
C2001  H2414   1.109   .     S
C2002  C2003   1.530   .     S
C2002  H2419   1.115   .     S
C2002  O2705   1.412   .     S
C2002  H2420   1.109   .     S
C2003  H2422   1.110   .     S
C2003  H2421   1.109   .     S
C2003  C2004   1.526   .     S
C2004  H2423   1.111   .     S
C2004  H2425   1.107   .     S
C2004  H2424   1.110   .     S
C2005  H2428   1.113   .     S
C2005  C2007   1.515   .     S
C2005  O2706   1.419   .     S
C2005  H2426   1.111   .     S
C2006  C2062   1.397   .     A
C2006  C376    1.417   1_565 S
C2006  O844    1.384   1_565 S
C2007  H2430   1.110   .     S
C2007  C2008   1.527   .     S
C2007  H2429   1.109   .     S
C2008  H2432   1.107   .     S
C2008  H2433   1.111   .     S
C2008  H2431   1.111   .     S
C2009  H2435   1.108   .     S
C2009  H2434   1.115   .     S
C2009  C2010   1.529   .     S
C2009  O2707   1.414   .     S
C2010  H2436   1.112   .     S
C2010  H2437   1.109   .     S
C2010  C2011   1.526   .     S
C2011  H2440   1.110   .     S
C2011  H2439   1.111   .     S
C2011  H2441   1.108   .     S
C2012  O2708   1.417   .     S
C2012  H2443   1.115   .     S
C2012  H2442   1.111   .     S
C2012  C2013   1.529   .     S
C2013  H2445   1.104   .     S
C2013  H2444   1.110   .     S
C2013  C2014   1.522   .     S
C2014  H2446   1.106   .     S
C2014  H2447   1.110   .     S
C2014  H2448   1.106   .     S
C2015  H2450   1.116   .     S
C2015  O2611   1.412   .     S
C2015  H2451   1.109   .     S
C2015  C2016   1.531   .     S
C2016  H2452   1.111   .     S
C2016  C2018   1.524   .     S
C2016  H2453   1.111   .     S
C2017  O2661   1.389   .     S
C2017  C2051   1.403   .     A
C2018  H2454   1.111   .     S
C2018  H2455   1.111   .     S
C2018  H2456   1.109   .     S
C2019  C2024   1.403   .     A
C2019  C2020   1.405   .     A
C2020  C2021   1.397   .     A
C2020  H3365   1.081   .     S
C2021  H2458   1.081   .     S
C2021  C2022   1.398   .     A
C2022  C2023   1.397   .     A
C2022  H2459   1.082   .     S
C2023  C2024   1.394   .     A
C2023  H2461   1.080   .     S
C2024  H2462   1.083   .     S
C2025  C2031   1.404   .     A
C2025  C2026   1.408   .     A
C2026  C2027   1.399   .     A
C2026  H3371   1.081   .     S
C2027  H2464   1.083   .     S
C2027  C2029   1.397   .     A
C2028  O2662   1.386   .     S
C2028  C2903   1.397   .     S
C2029  H2465   1.083   .     S
C2029  C2030   1.397   .     A
C2030  C2031   1.396   .     A
C2030  H2466   1.080   .     S
C2031  H2467   1.083   .     S
C2032  C2037   1.404   .     A
C2032  C2039   1.490   .     S
C2032  C217    1.406   1_565 S
C2033  C2034   1.398   .     A
C2033  H2468   1.082   .     S
C2034  H2469   1.083   .     S
C2035  H2470   1.083   .     S
C2035  C2036   1.398   .     A
C2035  C218    1.398   1_565 S
C2036  C2037   1.399   .     A
C2036  H2472   1.082   .     S
C2037  H2473   1.083   .     S
C2038  C2045   1.403   .     A
C2038  C2041   1.402   .     A
C2038  C2127   1.481   .     S
C2039  C6      1.410   1_565 S
C2039  C101    1.403   1_565 S
C2040  O2663   1.385   .     S
C2041  C2042   1.398   .     A
C2041  H658    1.083   1_565 S
C2042  C2043   1.395   .     A
C2042  H2475   1.075   .     S
C2043  H2476   1.082   .     S
C2043  C2044   1.397   .     A
C2044  C2045   1.394   .     A
C2044  H2477   1.081   .     S
C2045  H2478   1.083   .     S
C2046  C2052   1.406   .     A
C2046  C2138   1.491   .     S
C2046  C2047   1.405   .     A
C2047  C2048   1.397   .     A
C2047  H3387   1.078   1_455 S
C2048  H2480   1.082   .     S
C2048  C2049   1.397   .     A
C2049  C2050   1.396   .     A
C2049  H2481   1.082   .     S
C2050  H2483   1.081   .     S
C2050  C2052   1.399   .     A
C2051  O2664   1.386   .     S
C2052  H2484   1.083   .     S
C2053  C2058   1.404   .     A
C2053  C2054   1.404   .     A
C2053  C2149   1.487   .     S
C2054  C2055   1.395   .     A
C2054  H3393   1.081   1_455 S
C2055  C2056   1.397   .     A
C2055  H3394   1.078   1_455 S
C2056  H2487   1.083   .     S
C2056  C2057   1.397   .     A
C2057  H2488   1.079   .     S
C2057  C2058   1.396   .     A
C2058  H2489   1.083   .     S
C2059  C2065   1.404   .     A
C2059  C2160   1.494   .     S
C2060  H2490   1.080   .     S
C2060  C243    1.408   1_565 S
C2060  C245    1.398   1_565 S
C2061  C2063   1.397   .     A
C2062  O2666   1.385   .     S
C2063  H2492   1.083   .     S
C2063  C2064   1.397   .     A
C2064  H2494   1.079   .     S
C2064  C2065   1.396   .     A
C2065  H2495   1.083   .     S
C2066  C2171   1.487   .     S
C2066  C2071   1.403   .     A
C2066  C2067   1.405   .     A
C2067  C2068   1.396   .     A
C2068  H2497   1.081   .     S
C2068  C2069   1.398   .     A
C2069  C2070   1.397   .     A
C2069  H2498   1.082   .     S
C2070  H2499   1.080   .     S
C2070  C2071   1.395   .     A
C2071  H2500   1.083   .     S
C2072  C2078   1.404   .     A
C2072  C2074   1.406   .     A
C2072  C2182   1.490   .     S
C2073  O2667   1.384   .     S
C2073  C2125   1.401   1_556 S
C2074  H2501   1.080   .     S
C2074  C2075   1.396   .     A
C2075  H2502   1.082   .     S
C2075  C2076   1.398   .     A
C2076  C2077   1.397   .     A
C2076  H2503   1.082   .     S
C2077  H2505   1.081   .     S
C2077  C2078   1.397   .     A
C2078  H2506   1.083   .     S
C2079  C2080   1.408   .     A
C2079  C2085   1.405   .     A
C2080  C2081   1.399   .     A
C2080  H2507   1.081   .     S
C2081  H2508   1.083   .     S
C2081  C2082   1.397   .     A
C2082  H2509   1.083   .     S
C2082  C2083   1.397   .     A
C2083  H2510   1.081   .     S
C2083  C2085   1.397   .     A
C2084  O2668   1.384   .     S
C2084  C2117   1.400   1_554 S
C2085  H2511   1.083   .     S
C2086  C2091   1.403   .     A
C2086  C2087   1.407   .     A
C2087  C2088   1.398   .     A
C2087  H2512   1.083   .     S
C2088  C2089   1.398   .     A
C2088  H2513   1.083   .     S
C2089  H2514   1.083   .     S
C2089  C2090   1.398   .     A
C2090  C2091   1.397   .     A
C2090  H2516   1.080   .     S
C2091  H2517   1.083   .     S
C2092  C2093   1.405   .     A
C2092  C2098   1.404   .     A
C2093  H2518   1.081   .     S
C2093  C2094   1.395   .     A
C2094  H2519   1.081   .     S
C2094  C2096   1.398   .     A
C2095  O2669   1.385   .     S
C2095  C2128   1.397   1_556 S
C2096  C2097   1.398   .     A
C2096  H2520   1.082   .     S
C2097  H2521   1.081   .     S
C2097  C2098   1.396   .     A
C2098  H2522   1.083   .     S
C2099  C2104   1.405   .     A
C2099  C2100   1.404   .     A
C2100  C2101   1.395   .     A
C2100  H2523   1.082   .     S
C2101  H2524   1.079   .     S
C2101  C2102   1.398   .     A
C2102  H2525   1.082   .     S
C2102  C2103   1.397   .     A
C2103  H2528   1.082   .     S
C2103  C2104   1.398   .     A
C2104  H2529   1.083   .     S
C2105  C2111   1.404   .     A
C2105  C2107   1.408   .     A
C2106  O2670   1.385   .     S
C2106  C2126   1.396   1_554 S
C2107  C2108   1.399   .     A
C2107  H2530   1.081   .     S
C2108  H2531   1.083   .     S
C2108  C2109   1.397   .     A
C2109  C2110   1.397   .     A
C2109  H2532   1.083   .     S
C2110  H2533   1.080   .     S
C2110  C2111   1.396   .     A
C2111  H2534   1.083   .     S
C2112  C2118   1.404   .     A
C2112  C2113   1.407   .     A
C2113  H2535   1.081   .     S
C2113  C2114   1.399   .     A
C2114  C2115   1.397   .     A
C2114  H2536   1.083   .     S
C2115  C2116   1.397   .     A
C2115  H2537   1.083   .     S
C2116  H2539   1.080   .     S
C2116  C2118   1.396   .     A
C2117  O2671   1.385   .     S
C2117  C2084   1.400   1_556 S
C2118  H2540   1.083   .     S
C2119  C2120   1.402   .     A
C2119  C2124   1.404   .     A
C2120  H2541   1.080   .     S
C2120  C2121   1.392   .     A
C2121  H2542   1.079   .     S
C2121  C2122   1.400   .     A
C2122  C2123   1.397   .     A
C2122  H2543   1.082   .     S
C2123  H2544   1.080   .     S
C2123  C2124   1.395   .     A
C2124  H2545   1.083   .     S
C2125  O2672   1.385   .     S
C2125  C2073   1.401   1_554 S
C2126  O2673   1.387   .     S
C2126  C2106   1.396   1_556 S
C2128  O2674   1.387   .     S
C2128  C2095   1.397   1_554 S
C2129  O2698   1.272   .     A
C2130  O2610   1.276   .     A
C2130  O849    1.281   1_565 S
C2131  O2676   1.281   .     A
C2131  O3520   1.284   1_455 S
C2132  O2687   1.282   .     A
C2132  O3521   1.283   .     S
C2133  O2614   1.276   .     S
C2133  O2618   1.274   .     S
C2134  O2615   1.279   .     S
C2134  O2619   1.278   .     S
C2135  O2616   1.283   .     S
C2135  O2620   1.284   .     S
C2136  O806    1.283   1_565 A
C2136  O801    1.282   1_565 A
C2137  O2623   1.285   .     A
C2137  O2651   1.285   .     A
C2138  C2190   1.415   .     A
C2139  O2652   1.283   .     A
C2139  O2624   1.284   .     A
C2140  O2649   1.285   .     A
C2140  O2625   1.284   .     A
C2141  O2626   1.285   .     A
C2141  O2650   1.286   .     A
C2142  O2627   1.286   .     A
C2142  O2656   1.284   .     A
C2143  O2628   1.285   .     A
C2143  O2657   1.283   .     A
C2144  O2629   1.282   .     A
C2144  O2653   1.285   .     A
C2145  O2655   1.284   .     A
C2145  O2630   1.284   .     A
C2146  O2631   1.284   .     A
C2146  O2642   1.284   .     A
C2147  O2633   1.289   .     A
C2147  O2644   1.283   .     A
C2148  O2634   1.287   .     A
C2148  O2640   1.286   .     A
C2149  C2191   1.409   .     A
C2149  C2814   1.403   1_455 S
C2150  O2641   1.283   .     A
C2150  O2635   1.283   .     A
C2151  O2647   1.281   .     A
C2151  O2636   1.286   .     A
C2152  O2637   1.285   .     A
C2152  O2648   1.284   .     A
C2153  O2645   1.286   .     A
C2153  O2638   1.284   .     A
C2154  O2639   1.282   .     A
C2154  O2646   1.286   .     A
C2155  O2675   1.386   .     S
C2155  C2172   1.398   .     A
C2156  O2677   1.386   .     S
C2156  C2170   1.399   .     A
C2157  O2678   1.388   .     S
C2157  C2169   1.390   .     A
C2158  C2168   1.400   .     A
C2158  O2679   1.380   .     S
C2159  O2680   1.385   .     S
C2159  C2167   1.396   .     A
C2160  C2192   1.412   .     A
C2161  C2166   1.396   .     A
C2161  O2681   1.385   .     S
C2162  C2165   1.391   .     A
C2162  O2682   1.387   .     S
C2163  C2164   1.390   .     A
C2163  O2683   1.384   .     S
C2164  O2684   1.388   .     S
C2165  O2685   1.383   .     S
C2166  O2686   1.386   .     S
C2167  O2688   1.386   .     S
C2168  O2689   1.397   .     S
C2169  O2690   1.383   .     S
C2170  O2691   1.386   .     S
C2172  O2692   1.386   .     S
C2173  C2189   1.394   .     A
C2173  O2693   1.384   .     S
C2174  C2188   1.397   .     A
C2174  O2694   1.386   .     S
C2175  C2187   1.391   .     A
C2175  O2695   1.385   .     S
C2176  C2186   1.393   .     A
C2176  O2696   1.385   .     S
C2177  O2697   1.386   .     S
C2177  C2185   1.400   .     A
C2178  C2184   1.407   .     A
C2178  O2699   1.383   .     S
C2179  C2183   1.390   .     A
C2179  O2700   1.388   .     S
C2180  O2701   1.384   .     S
C2180  C2181   1.391   .     A
C2181  O2702   1.387   .     S
C2183  O2703   1.384   .     S
C2184  O2704   1.392   .     S
C2185  O2705   1.385   .     S
C2186  O2706   1.387   .     S
C2187  O2707   1.383   .     S
C2188  O2708   1.387   .     S
C2189  O2611   1.384   .     S
C2190  C2892   1.416   1_455 S
C2190  C2758   1.419   1_455 S
C2191  C2760   1.420   1_455 S
H2197  C1907   1.110   1_554 S
H2204  C1910   1.110   1_556 S
H2229  C2829   1.111   1_455 S
H2245  C111    1.110   1_565 S
H2246  C111    1.107   1_565 S
H2257  C2842   1.111   1_455 S
H2259  C2843   1.111   .     S
H2277  C126    1.111   1_565 S
H2292  C2856   1.107   1_455 S
H2323  C2869   1.110   1_455 S
H2324  C2869   1.108   1_455 S
H2457  C2928   1.081   1_455 S
H2463  C2934   1.081   1_455 S
H2479  C2955   1.078   .     S
H2485  C2962   1.081   .     S
H2486  C2963   1.078   .     S
H2491  C245    1.083   1_565 S
H2496  C251    1.080   1_565 S
O2609  Zn2709  1.957   .     S
O2609  Zn2720  1.959   .     S
O2609  Zn2712  1.950   .     S
O2610  Zn2711  1.940   .     S
O2612  Zn2714  1.940   .     S
O2612  C3039   1.284   .     S
O2613  Zn2713  1.940   .     S
O2613  C3040   1.283   1_455 S
O2614  Zn2723  1.940   .     S
O2615  Zn2722  1.940   .     S
O2616  Zn2717  1.941   .     S
O2617  Zn2709  1.941   .     S
O2618  Zn2719  1.940   .     S
O2619  Zn2718  1.940   .     S
O2620  Zn2721  1.940   .     S
O2621  Zn2721  1.959   .     S
O2621  Zn2717  1.957   .     S
O2621  Zn2715  1.949   .     S
O2622  Zn2720  1.940   .     S
O2623  Zn2712  1.948   .     S
O2624  Zn2711  1.948   .     S
O2625  Zn2714  1.950   .     S
O2626  Zn2713  1.950   .     S
O2627  Zn2716  1.949   .     S
O2628  Zn2715  1.949   .     S
O2629  Zn2710  1.951   .     S
O2630  Zn2724  1.951   .     S
O2631  Zn2711  1.955   .     S
O2632  Zn2718  1.950   .     S
O2632  Zn2722  1.949   .     S
O2632  Zn3622  1.959   1_455 S
O2632  Zn2710  1.957   .     S
O2633  Zn2712  1.955   .     S
O2634  Zn2724  1.944   .     S
O2635  Zn2710  1.944   .     S
O2636  Zn2715  1.955   .     S
O2637  Zn2716  1.955   .     S
O2638  Zn2713  1.943   .     S
O2639  Zn2714  1.943   .     S
O2640  Zn3627  1.948   .     S
O2641  Zn2718  1.948   .     S
O2642  Zn905   1.950   1_565 S
O2643  Zn3632  1.957   1_455 S
O2643  Zn2723  1.949   .     S
O2643  Zn2719  1.950   .     S
O2643  Zn2713  1.959   .     S
O2644  Zn2720  1.950   .     S
O2645  Zn2723  1.949   .     S
O2646  Zn3630  1.949   .     S
O2647  Zn2717  1.951   .     S
O2648  Zn893   1.951   1_565 S
O2649  Zn3626  1.955   .     S
O2650  Zn2719  1.955   .     S
O2651  Zn2709  1.944   .     S
O2652  Zn901   1.944   1_565 S
O2653  Zn2722  1.955   .     S
O2654  Zn2716  1.940   .     S
O2654  C313    1.278   1_565 S
O2655  Zn3631  1.955   .     S
O2656  Zn904   1.943   1_565 S
O2657  Zn2721  1.943   .     S
O2659  C2771   1.413   1_455 S
O2662  C2780   1.412   .     S
O2663  C2784   1.411   .     S
O2665  Zn2715  1.940   .     S
O2666  C66     1.413   1_565 S
O2676  Zn2710  1.941   .     S
O2687  Zn2724  1.941   .     S
O2698  Zn2712  1.940   .     S
Zn2711 O805    1.950   1_565 S
Zn2714 O3540   1.959   .     S
Zn2716 O793    1.949   1_565 S
Zn2718 O3557   1.955   1_455 S
Zn2719 O3548   1.948   1_455 S
Zn2722 O3554   1.949   1_455 S
Zn2723 O3563   1.955   1_455 S
Zn2724 O3551   1.957   .     S
C2725  C2927   1.487   .     S
C2725  C2728   1.407   .     A
C2725  C1895   1.402   1_655 S
C2726  C2738   1.413   .     A
C2726  C2859   1.407   .     A
C2726  C2987   1.494   .     S
C2727  C2762   1.420   .     A
C2727  C3079   1.416   .     A
C2727  C2925   1.415   .     A
C2728  C2758   1.419   .     A
C2728  C2936   1.413   .     A
C2729  C2760   1.421   .     A
C2729  C2836   1.416   .     A
C2729  C2948   1.418   .     A
C2730  C2761   1.421   .     A
C2730  C2959   1.416   .     A
C2731  C2970   1.413   .     A
C2731  C3035   1.407   .     A
C2731  C946    1.416   1_565 S
C2732  C2759   1.412   .     A
C2732  C2981   1.417   .     A
C2732  C947    1.418   1_565 S
C2733  C2770   1.412   .     A
C2733  C2764   1.419   .     A
C2733  C2992   1.416   .     A
C2734  C2765   1.421   .     A
C2734  C3003   1.414   .     A
C2734  C2781   1.411   .     A
C2735  C3014   1.416   .     A
C2735  C2792   1.410   .     A
C2735  C1858   1.419   1_655 S
C2736  C3025   1.417   .     A
C2736  C2763   1.420   .     A
C2736  C3090   1.414   .     A
C2737  C2739   1.408   .     A
C2737  C2994   1.491   .     S
C2737  C1962   1.401   1_655 S
C2738  C3033   1.417   .     A
C2738  C948    1.420   1_565 S
C2739  C3034   1.415   .     A
C2739  C1857   1.422   1_655 S
C2740  C3036   1.419   .     A
C2740  C2748   1.414   .     A
C2740  C2766   1.420   .     A
C2741  C3052   1.468   .     S
C2741  C3082   1.415   .     A
C2741  C3080   1.412   .     A
C2742  C3081   1.413   .     A
C2742  C3078   1.413   .     A
C2742  C3053   1.471   .     S
C2743  C3045   1.467   .     S
C2743  C3077   1.414   .     A
C2743  C3084   1.413   .     A
C2744  C3083   1.412   .     A
C2744  C3047   1.464   .     S
C2744  C3076   1.422   .     A
C2745  C3086   1.414   .     A
C2745  C3048   1.469   .     S
C2745  C3075   1.410   .     A
C2746  C3085   1.412   .     A
C2746  C3049   1.473   .     S
C2746  C3074   1.413   .     A
C2747  C3088   1.411   .     A
C2747  C3050   1.466   .     S
C2747  C3073   1.413   .     A
C2748  C2881   1.405   .     A
C2748  C3000   1.487   .     S
C2749  C3087   1.414   .     A
C2749  C3051   1.463   .     S
C2749  C3072   1.415   .     A
C2750  C3071   1.411   .     A
C2750  C3061   1.465   .     S
C2750  C3091   1.414   .     A
C2751  C3070   1.412   .     A
C2751  C3062   1.462   .     S
C2751  C3089   1.416   .     A
C2752  C3093   1.411   .     A
C2752  C3069   1.410   .     A
C2752  C3054   1.467   .     S
C2753  C3067   1.414   .     A
C2753  C3092   1.413   .     A
C2753  C3055   1.474   .     S
C2754  C3066   1.417   .     A
C2754  C3095   1.408   .     A
C2754  C3056   1.475   .     S
C2755  C3058   1.461   .     S
C2755  C3094   1.413   .     A
C2755  C3065   1.413   .     A
C2756  C3064   1.415   .     A
C2756  C3097   1.410   .     A
C2756  C3059   1.468   .     S
C2757  C3063   1.414   .     A
C2757  C3096   1.413   .     A
C2757  C3060   1.470   .     S
C2758  C2760   1.411   .     A
C2758  C2190   1.419   1_655 S
C2759  C3007   1.487   .     S
C2759  C1032   1.406   1_565 S
C2760  C2191   1.420   1_655 S
C2761  C2762   1.411   .     A
C2761  C3100   1.425   .     A
C2763  C2764   1.410   1_556 S
C2764  C2763   1.410   1_554 S
C2765  C2766   1.411   1_556 S
C2766  C2765   1.411   1_554 S
C2767  C2768   1.529   .     S
C2767  H3212   1.118   .     S
C2767  H3101   1.109   .     S
C2767  O3566   1.417   .     S
C2768  C2769   1.525   .     S
C2768  H3434   1.109   .     S
C2768  H3323   1.112   .     S
C2769  H3484   1.109   .     S
C2769  H3462   1.111   .     S
C2769  H3473   1.110   .     S
C2770  C3013   1.492   .     S
C2771  H3506   1.115   .     S
C2771  H3495   1.112   .     S
C2771  C2772   1.528   .     S
C2771  O2659   1.413   1_655 S
C2772  H3102   1.111   .     S
C2772  C2773   1.525   .     S
C2772  H3113   1.112   .     S
C2773  H3135   1.110   .     S
C2773  H3146   1.109   .     S
C2773  H3124   1.110   .     S
C2774  H3168   1.115   .     S
C2774  C2775   1.528   .     S
C2774  H3157   1.109   .     S
C2774  O1752   1.411   1_565 S
C2775  H3190   1.112   .     S
C2775  C2776   1.523   .     S
C2775  H3179   1.112   .     S
C2776  H3224   1.110   .     S
C2776  H3201   1.110   .     S
C2776  H3213   1.111   .     S
C2777  H3235   1.115   .     S
C2777  C2778   1.529   .     S
C2777  H3246   1.111   .     S
C2777  O1753   1.416   1_565 S
C2778  H3268   1.112   .     S
C2778  H3257   1.111   .     S
C2778  C2779   1.527   .     S
C2779  H3290   1.110   .     S
C2779  H3279   1.111   .     S
C2779  H3301   1.111   .     S
C2780  H3312   1.110   .     S
C2780  C2782   1.527   .     S
C2780  H3324   1.115   .     S
C2781  C3020   1.492   .     S
C2781  C2870   1.404   .     A
C2782  H3346   1.112   .     S
C2782  C2783   1.526   .     S
C2782  H3335   1.111   .     S
C2783  H3379   1.110   .     S
C2783  H3368   1.110   .     S
C2783  H3357   1.111   .     S
C2784  C2785   1.529   .     S
C2784  H3401   1.114   .     S
C2784  H3390   1.110   .     S
C2785  H3423   1.111   .     S
C2785  H3412   1.110   .     S
C2785  C2786   1.524   .     S
C2786  H3435   1.111   .     S
C2786  H3446   1.110   .     S
C2786  H3454   1.110   .     S
C2787  O3572   1.419   .     S
C2787  H3455   1.111   .     S
C2787  C2788   1.535   .     S
C2787  H3456   1.116   .     S
C2788  H3458   1.109   .     S
C2788  C2789   1.525   .     S
C2788  H3457   1.112   .     S
C2789  H3461   1.109   .     S
C2789  H3460   1.110   .     S
C2789  H3459   1.110   .     S
C2790  H3464   1.115   .     S
C2790  C2791   1.528   .     S
C2790  H3463   1.110   .     S
C2791  H3466   1.112   .     S
C2791  H3465   1.111   .     S
C2791  C2793   1.525   .     S
C2792  C3027   1.482   .     S
C2792  C1973   1.403   1_655 S
C2793  H3467   1.110   .     S
C2793  H3468   1.111   .     S
C2793  H3469   1.110   .     S
C2794  H3470   1.110   .     S
C2794  C2795   1.528   .     S
C2794  O3575   1.412   .     S
C2794  H3471   1.113   .     S
C2795  H3474   1.112   .     S
C2795  H3472   1.111   .     S
C2795  C2796   1.525   .     S
C2796  H3476   1.110   .     S
C2796  H3477   1.111   .     S
C2796  H3475   1.110   .     S
C2797  H3478   1.110   .     S
C2797  C2798   1.527   .     S
C2797  H3479   1.115   .     S
C2797  O3576   1.411   .     S
C2798  H3480   1.111   .     S
C2798  H3481   1.112   .     S
C2798  C2799   1.524   .     S
C2799  H3482   1.110   .     S
C2799  H3483   1.110   .     S
C2799  H3485   1.110   .     S
C2800  H3486   1.110   .     S
C2800  C2801   1.529   .     S
C2800  O3577   1.416   .     S
C2800  H3487   1.118   .     S
C2801  H3489   1.111   .     S
C2801  C2802   1.526   .     S
C2801  H3488   1.112   .     S
C2802  H3490   1.111   .     S
C2802  H3491   1.110   .     S
C2802  H3492   1.109   .     S
C2803  C3039   1.448   .     S
C2803  C3046   1.408   .     A
C2804  H3494   1.115   .     S
C2804  O3578   1.412   .     S
C2804  C2805   1.528   .     S
C2804  H3493   1.112   .     S
C2805  H3497   1.112   .     S
C2805  C2806   1.525   .     S
C2805  H3496   1.111   .     S
C2806  H3500   1.109   .     S
C2806  H3498   1.111   .     S
C2806  H3499   1.110   .     S
C2807  H3501   1.110   .     S
C2807  O3579   1.412   .     S
C2807  C2808   1.528   .     S
C2807  H3502   1.115   .     S
C2808  H3504   1.112   .     S
C2808  C2809   1.525   .     S
C2808  H3503   1.112   .     S
C2809  H3508   1.110   .     S
C2809  H3505   1.111   .     S
C2809  H3507   1.110   .     S
C2810  H3509   1.109   .     S
C2810  O3580   1.411   .     S
C2810  H3510   1.113   .     S
C2810  C2811   1.528   .     S
C2811  H3511   1.111   .     S
C2811  C2812   1.525   .     S
C2811  H3512   1.112   .     S
C2812  H3515   1.111   .     S
C2812  H3514   1.111   .     S
C2812  H3513   1.110   .     S
C2813  C2815   1.534   .     S
C2813  H3103   1.114   .     S
C2813  O3581   1.418   .     S
C2813  H3516   1.111   .     S
C2814  C3040   1.449   .     S
C2814  C2836   1.408   .     A
C2814  C2149   1.403   1_655 S
C2815  C2816   1.526   .     S
C2815  H3104   1.112   .     S
C2815  H3105   1.110   1_556 S
C2816  H3106   1.110   .     S
C2816  H3108   1.111   .     S
C2816  H3107   1.109   .     S
C2817  O3582   1.418   .     S
C2817  H3110   1.112   .     S
C2817  C2818   1.533   .     S
C2817  H3109   1.111   .     S
C2818  H3111   1.111   .     S
C2818  C2819   1.526   .     S
C2818  H3112   1.110   1_554 S
C2819  H3115   1.108   .     S
C2819  H3116   1.111   .     S
C2819  H3114   1.111   .     S
C2820  H3117   1.111   .     S
C2820  O3583   1.415   .     S
C2820  C2821   1.528   .     S
C2820  H3118   1.114   .     S
C2821  H3119   1.109   .     S
C2821  H3120   1.104   .     S
C2821  C2822   1.520   .     S
C2822  H3121   1.108   .     S
C2822  H1306   1.110   1_565 S
C2822  H1307   1.107   1_565 S
C2823  O3585   1.412   .     S
C2823  C2824   1.533   .     S
C2823  H3126   1.111   .     S
C2823  H3125   1.115   .     S
C2824  H3128   1.110   .     S
C2824  C2826   1.524   .     S
C2824  H3127   1.111   .     S
C2825  C3068   1.403   .     A
C2825  C3037   1.443   .     S
C2826  H3130   1.110   .     S
C2826  H3131   1.106   .     S
C2826  H3129   1.111   .     S
C2827  H3133   1.115   .     S
C2827  O3586   1.421   .     S
C2827  C2828   1.524   .     S
C2827  H3132   1.111   .     S
C2828  H3134   1.110   .     S
C2828  H3136   1.111   .     S
C2829  H3139   1.111   .     S
C2829  H3138   1.110   .     S
C2829  C1920   1.527   1_655 S
C2829  H2229   1.111   1_655 S
C2830  C2831   1.529   .     S
C2830  H3140   1.116   .     S
C2830  O3587   1.413   .     S
C2830  H3141   1.114   .     S
C2831  H3143   1.111   .     S
C2831  H3142   1.112   .     S
C2831  C2832   1.524   .     S
C2832  H3145   1.110   .     S
C2832  H3147   1.109   .     S
C2832  H3144   1.111   .     S
C2833  O3588   1.416   .     S
C2833  C2834   1.528   .     S
C2833  H3149   1.116   .     S
C2833  H3148   1.111   .     S
C2834  H3150   1.109   .     S
C2834  C2835   1.521   .     S
C2834  H3151   1.105   .     S
C2835  H3152   1.106   .     S
C2836  C2933   1.492   .     S
C2837  C3035   1.401   .     A
C2837  C3038   1.453   .     S
C2837  C1263   1.406   1_565 S
C2838  C2839   1.530   .     S
C2838  H3155   1.115   .     S
C2838  O3589   1.410   .     S
C2838  H3156   1.111   .     S
C2839  C2840   1.525   .     S
C2839  H3158   1.112   .     S
C2839  H3159   1.112   .     S
C2840  H3161   1.110   .     S
C2840  H3160   1.111   .     S
C2840  H3162   1.108   .     S
C2841  O3590   1.421   .     S
C2841  H3163   1.110   .     S
C2841  C2842   1.525   .     S
C2841  H3164   1.118   .     S
C2842  H3166   1.108   .     S
C2842  C1935   1.528   1_655 S
C2842  H2257   1.111   1_655 S
C2843  H3169   1.110   .     S
C2843  H3170   1.111   .     S
C2844  H3172   1.113   .     S
C2844  O3591   1.415   .     S
C2844  H3171   1.115   .     S
C2844  C2845   1.528   .     S
C2845  H3173   1.112   .     S
C2845  C2846   1.526   .     S
C2845  H3174   1.109   .     S
C2846  H3175   1.111   .     S
C2846  H3176   1.110   .     S
C2846  H3177   1.107   .     S
C2847  H3180   1.113   .     S
C2847  H3178   1.111   .     S
C2847  O3592   1.420   .     S
C2847  C2849   1.530   .     S
C2848  C3043   1.452   .     S
C2848  C3090   1.406   .     A
C2849  H3182   1.110   .     S
C2849  H3181   1.110   .     S
C2849  C2850   1.525   .     S
C2850  H3184   1.110   .     S
C2850  H3183   1.110   .     S
C2851  H3187   1.111   .     S
C2851  H3186   1.116   .     S
C2851  O3593   1.416   .     S
C2851  C2852   1.528   .     S
C2852  C2853   1.524   .     S
C2852  H3189   1.109   .     S
C2852  H3188   1.112   .     S
C2853  H3193   1.107   .     S
C2853  H3192   1.110   .     S
C2853  H3191   1.111   .     S
C2854  H3195   1.110   .     S
C2854  C2855   1.529   .     S
C2854  O3594   1.418   .     S
C2854  H3194   1.114   .     S
C2855  H3196   1.108   .     S
C2855  H3197   1.105   .     S
C2856  H3199   1.110   .     S
C2856  H3198   1.108   .     S
C2856  C1947   1.515   1_655 S
C2856  H2292   1.107   1_655 S
C2857  H3202   1.115   .     S
C2857  H3203   1.108   .     S
C2857  O3596   1.413   .     S
C2857  C2858   1.533   .     S
C2858  H3204   1.110   .     S
C2858  C2860   1.525   .     S
C2858  H3205   1.110   .     S
C2859  C3044   1.446   .     S
C2859  C954    1.406   1_565 S
C2860  H3207   1.111   .     S
C2860  H3208   1.106   .     S
C2860  H3206   1.111   .     S
C2861  H3209   1.109   .     S
C2861  O3597   1.425   .     S
C2861  H3210   1.108   .     S
C2861  C2862   1.527   .     S
C2862  H3211   1.110   .     S
C2862  H3214   1.106   .     S
C2862  C1047   1.529   1_565 S
C2863  H3216   1.110   .     S
C2863  H3217   1.106   .     S
C2863  H3215   1.108   .     S
C2864  C2865   1.528   .     S
C2864  O3598   1.416   .     S
C2864  H3218   1.116   .     S
C2864  H3219   1.112   .     S
C2865  H3220   1.112   .     S
C2865  H3221   1.109   .     S
C2865  C2866   1.524   .     S
C2866  H3225   1.107   .     S
C2866  H3223   1.110   .     S
C2866  H3222   1.111   .     S
C2867  H3226   1.112   .     S
C2867  O3599   1.416   .     S
C2867  C2868   1.528   .     S
C2867  H3227   1.114   .     S
C2868  C2869   1.523   .     S
C2868  H3229   1.105   .     S
C2868  H3228   1.110   .     S
C2869  H3230   1.110   .     S
C2869  H2323   1.110   1_655 S
C2869  H2324   1.108   1_655 S
C2870  C3041   1.441   .     S
C2871  C2872   1.534   .     S
C2871  H3234   1.110   .     S
C2871  O3600   1.412   .     S
C2871  H3233   1.115   .     S
C2872  C2873   1.523   .     S
C2872  H3237   1.110   .     S
C2872  H3236   1.111   .     S
C2873  H3238   1.110   .     S
C2873  H3239   1.110   .     S
C2873  H3240   1.106   .     S
C2874  H3241   1.111   .     S
C2874  O3601   1.417   .     S
C2874  H3242   1.118   .     S
C2874  C2875   1.528   .     S
C2875  H3243   1.110   .     S
C2875  C2876   1.521   .     S
C2875  H3244   1.108   .     S
C2876  H3248   1.105   .     S
C2876  H3245   1.108   .     S
C2876  H3247   1.109   .     S
C2877  H3250   1.113   .     S
C2877  H3249   1.115   .     S
C2877  O3602   1.413   .     S
C2877  C2878   1.534   .     S
C2878  C2879   1.523   .     S
C2878  H3252   1.110   .     S
C2878  H3251   1.111   .     S
C2879  H3254   1.111   .     S
C2879  H3255   1.106   .     S
C2879  H3253   1.111   .     S
C2880  C2882   1.525   .     S
C2880  H3256   1.111   .     S
C2880  O3603   1.414   .     S
C2880  H3258   1.115   .     S
C2881  C3042   1.454   .     S
C2882  C2883   1.532   .     S
C2882  H3259   1.110   .     S
C2882  H3260   1.109   .     S
C2883  H3261   1.110   .     S
C2883  H3262   1.106   .     S
C2883  H3263   1.109   .     S
C2884  O3604   1.420   .     S
C2884  H3264   1.111   .     S
C2884  H3265   1.118   .     S
C2884  C2885   1.530   .     S
C2885  H3267   1.111   .     S
C2885  C2886   1.525   .     S
C2885  H3266   1.107   .     S
C2886  H3270   1.110   .     S
C2886  H3271   1.111   .     S
C2886  H3269   1.109   .     S
C2887  H3272   1.111   .     S
C2887  C2888   1.526   .     S
C2887  O3605   1.414   .     S
C2887  H3273   1.112   .     S
C2888  H3275   1.107   .     S
C2888  C2889   1.521   .     S
C2888  H3274   1.110   .     S
C2889  H3278   1.107   .     S
C2889  H3276   1.107   .     S
C2889  H3277   1.110   .     S
C2890  H3280   1.112   .     S
C2890  C2891   1.531   .     S
C2890  O3607   1.411   .     S
C2890  H3281   1.110   .     S
C2891  C2893   1.524   .     S
C2891  H3282   1.111   .     S
C2891  H3283   1.111   .     S
C2892  O3566   1.386   .     S
C2892  C2948   1.403   .     A
C2892  C2190   1.416   1_655 S
C2893  H3286   1.106   .     S
C2893  H3284   1.111   .     S
C2893  H3285   1.110   .     S
C2894  H3287   1.111   .     S
C2894  C2895   1.525   .     S
C2894  H3288   1.115   .     S
C2894  O3608   1.420   .     S
C2895  H3289   1.110   .     S
C2895  H3291   1.111   .     S
C2895  C2896   1.526   .     S
C2896  H3293   1.107   .     S
C2896  H3294   1.111   .     S
C2896  H3292   1.111   .     S
C2897  H3295   1.115   .     S
C2897  H3296   1.112   .     S
C2897  O3609   1.416   .     S
C2897  C2898   1.529   .     S
C2898  H3298   1.109   .     S
C2898  C2899   1.524   .     S
C2898  H3297   1.111   .     S
C2899  H3299   1.111   .     S
C2899  H3302   1.107   .     S
C2899  H3300   1.110   .     S
C2900  O3610   1.420   .     S
C2900  H3304   1.108   .     S
C2900  C2901   1.537   .     S
C2900  H3303   1.111   .     S
C2901  H3305   1.104   .     S
C2901  C2902   1.528   .     S
C2901  H3306   1.110   .     S
C2902  H3307   1.106   .     S
C2902  H3309   1.111   .     S
C2902  H3308   1.107   .     S
C2903  C3099   1.416   .     A
C2903  O3567   1.385   .     S
C2904  O3611   1.415   .     S
C2904  C2905   1.529   .     S
C2904  H3310   1.116   .     S
C2904  H3311   1.111   .     S
C2905  H3314   1.109   .     S
C2905  C2906   1.524   .     S
C2905  H3313   1.112   .     S
C2906  H3316   1.110   .     S
C2906  H3315   1.111   .     S
C2906  H3317   1.107   .     S
C2907  O3612   1.419   .     S
C2907  H3319   1.107   .     S
C2907  H3318   1.106   .     S
C2907  C2908   1.543   .     S
C2908  C2909   1.521   .     S
C2908  H3321   1.112   .     S
C2908  H3320   1.109   .     S
C2909  H3325   1.107   .     S
C2909  H3326   1.111   .     S
C2909  H3322   1.109   .     S
C2910  C2911   1.530   .     S
C2910  H3327   1.115   .     S
C2910  O3613   1.412   .     S
C2910  H3328   1.109   .     S
C2911  H3330   1.110   .     S
C2911  H3329   1.109   .     S
C2911  C2912   1.526   .     S
C2912  H3331   1.111   .     S
C2912  H3333   1.107   .     S
C2912  H3332   1.110   .     S
C2913  H3336   1.113   .     S
C2913  C2915   1.515   .     S
C2913  O3614   1.419   .     S
C2913  H3334   1.111   .     S
C2914  C2970   1.397   .     A
C2914  C1284   1.417   1_565 S
C2914  O1752   1.384   1_565 S
C2915  H3338   1.110   .     S
C2915  C2916   1.527   .     S
C2915  H3337   1.109   .     S
C2916  H3340   1.107   .     S
C2916  H3341   1.111   .     S
C2916  H3339   1.111   .     S
C2917  H3343   1.108   .     S
C2917  H3342   1.115   .     S
C2917  C2918   1.529   .     S
C2917  O3615   1.414   .     S
C2918  H3344   1.112   .     S
C2918  H3345   1.109   .     S
C2918  C2919   1.526   .     S
C2919  H3348   1.110   .     S
C2919  H3347   1.111   .     S
C2919  H3349   1.108   .     S
C2920  O3616   1.417   .     S
C2920  H3351   1.115   .     S
C2920  H3350   1.111   .     S
C2920  C2921   1.529   .     S
C2921  H3353   1.104   .     S
C2921  H3352   1.110   .     S
C2921  C2922   1.522   .     S
C2922  H3354   1.106   .     S
C2922  H3355   1.110   .     S
C2922  H3356   1.106   .     S
C2923  H3358   1.116   .     S
C2923  O3519   1.412   .     S
C2923  H3359   1.109   .     S
C2923  C2924   1.531   .     S
C2924  H3360   1.111   .     S
C2924  C2926   1.524   .     S
C2924  H3361   1.111   .     S
C2925  O3569   1.389   .     S
C2925  C2959   1.403   .     A
C2926  H3362   1.111   .     S
C2926  H3363   1.111   .     S
C2926  H3364   1.109   .     S
C2927  C2932   1.403   .     A
C2927  C2928   1.405   .     A
C2928  C2929   1.397   .     A
C2928  H2457   1.081   1_655 S
C2929  H3366   1.081   .     S
C2929  C2930   1.398   .     A
C2930  C2931   1.397   .     A
C2930  H3367   1.082   .     S
C2931  C2932   1.394   .     A
C2931  H3369   1.080   .     S
C2932  H3370   1.083   .     S
C2933  C2939   1.404   .     A
C2933  C2934   1.408   .     A
C2934  C2935   1.399   .     A
C2934  H2463   1.081   1_655 S
C2935  H3372   1.083   .     S
C2935  C2937   1.397   .     A
C2936  O3570   1.386   .     S
C2936  C1995   1.397   1_655 S
C2937  H3373   1.083   .     S
C2937  C2938   1.397   .     A
C2938  C2939   1.396   .     A
C2938  H3374   1.080   .     S
C2939  H3375   1.083   .     S
C2940  C2945   1.404   .     A
C2940  C2947   1.490   .     S
C2940  C1125   1.406   1_565 S
C2941  C2942   1.398   .     A
C2941  H3376   1.082   .     S
C2942  H3377   1.083   .     S
C2943  H3378   1.083   .     S
C2943  C2944   1.398   .     A
C2943  C1126   1.398   1_565 S
C2944  C2945   1.399   .     A
C2944  H3380   1.082   .     S
C2945  H3381   1.083   .     S
C2946  C2953   1.403   .     A
C2946  C2949   1.402   .     A
C2946  C3035   1.481   .     S
C2947  C914    1.410   1_565 S
C2947  C1009   1.403   1_565 S
C2948  O3571   1.385   .     S
C2949  C2950   1.398   .     A
C2949  H1566   1.083   1_565 S
C2950  C2951   1.395   .     A
C2950  H3383   1.075   .     S
C2951  H3384   1.082   .     S
C2951  C2952   1.397   .     A
C2952  C2953   1.394   .     A
C2952  H3385   1.081   .     S
C2953  H3386   1.083   .     S
C2954  C2960   1.406   .     A
C2954  C3046   1.491   .     S
C2954  C2955   1.405   .     A
C2955  C2956   1.397   .     A
C2956  H3388   1.082   .     S
C2956  C2957   1.397   .     A
C2957  C2958   1.396   .     A
C2957  H3389   1.082   .     S
C2958  H3391   1.081   .     S
C2958  C2960   1.399   .     A
C2959  O3572   1.386   .     S
C2960  H3392   1.083   .     S
C2961  C2966   1.404   .     A
C2961  C2962   1.404   .     A
C2961  C3057   1.487   .     S
C2962  C2963   1.395   .     A
C2963  C2964   1.397   .     A
C2964  H3395   1.083   .     S
C2964  C2965   1.397   .     A
C2965  H3396   1.079   .     S
C2965  C2966   1.396   .     A
C2966  H3397   1.083   .     S
C2967  C2973   1.404   .     A
C2967  C3068   1.494   .     S
C2968  H3398   1.080   .     S
C2968  C1151   1.408   1_565 S
C2968  C1153   1.398   1_565 S
C2969  C2971   1.397   .     A
C2970  O3574   1.385   .     S
C2971  H3400   1.083   .     S
C2971  C2972   1.397   .     A
C2972  H3402   1.079   .     S
C2972  C2973   1.396   .     A
C2973  H3403   1.083   .     S
C2974  C3079   1.487   .     S
C2974  C2979   1.403   .     A
C2974  C2975   1.405   .     A
C2975  C2976   1.396   .     A
C2976  H3405   1.081   .     S
C2976  C2977   1.398   .     A
C2977  C2978   1.397   .     A
C2977  H3406   1.082   .     S
C2978  H3407   1.080   .     S
C2978  C2979   1.395   .     A
C2979  H3408   1.083   .     S
C2980  C2986   1.404   .     A
C2980  C2982   1.406   .     A
C2980  C3090   1.490   .     S
C2981  O3575   1.384   .     S
C2981  C3033   1.401   1_556 S
C2982  H3409   1.080   .     S
C2982  C2983   1.396   .     A
C2983  H3410   1.082   .     S
C2983  C2984   1.398   .     A
C2984  C2985   1.397   .     A
C2984  H3411   1.082   .     S
C2985  H3413   1.081   .     S
C2985  C2986   1.397   .     A
C2986  H3414   1.083   .     S
C2987  C2988   1.408   .     A
C2987  C2993   1.405   .     A
C2988  C2989   1.399   .     A
C2988  H3415   1.081   .     S
C2989  H3416   1.083   .     S
C2989  C2990   1.397   .     A
C2990  H3417   1.083   .     S
C2990  C2991   1.397   .     A
C2991  H3418   1.081   .     S
C2991  C2993   1.397   .     A
C2992  O3576   1.384   .     S
C2992  C3025   1.400   1_554 S
C2993  H3419   1.083   .     S
C2994  C2999   1.403   .     A
C2994  C2995   1.407   .     A
C2995  C2996   1.398   .     A
C2995  H3420   1.083   .     S
C2996  C2997   1.398   .     A
C2996  H3421   1.083   .     S
C2997  H3422   1.083   .     S
C2997  C2998   1.398   .     A
C2998  C2999   1.397   .     A
C2998  H3424   1.080   .     S
C2999  H3425   1.083   .     S
C3000  C3001   1.405   .     A
C3000  C3006   1.404   .     A
C3001  H3426   1.081   .     S
C3001  C3002   1.395   .     A
C3002  H3427   1.081   .     S
C3002  C3004   1.398   .     A
C3003  O3577   1.385   .     S
C3003  C3036   1.397   1_556 S
C3004  C3005   1.398   .     A
C3004  H3428   1.082   .     S
C3005  H3429   1.081   .     S
C3005  C3006   1.396   .     A
C3006  H3430   1.083   .     S
C3007  C3012   1.405   .     A
C3007  C3008   1.404   .     A
C3008  C3009   1.395   .     A
C3008  H3431   1.082   .     S
C3009  H3432   1.079   .     S
C3009  C3010   1.398   .     A
C3010  H3433   1.082   .     S
C3010  C3011   1.397   .     A
C3011  H3436   1.082   .     S
C3011  C3012   1.398   .     A
C3012  H3437   1.083   .     S
C3013  C3019   1.404   .     A
C3013  C3015   1.408   .     A
C3014  O3578   1.385   .     S
C3014  C3034   1.396   1_554 S
C3015  C3016   1.399   .     A
C3015  H3438   1.081   .     S
C3016  H3439   1.083   .     S
C3016  C3017   1.397   .     A
C3017  C3018   1.397   .     A
C3017  H3440   1.083   .     S
C3018  H3441   1.080   .     S
C3018  C3019   1.396   .     A
C3019  H3442   1.083   .     S
C3020  C3026   1.404   .     A
C3020  C3021   1.407   .     A
C3021  H3443   1.081   .     S
C3021  C3022   1.399   .     A
C3022  C3023   1.397   .     A
C3022  H3444   1.083   .     S
C3023  C3024   1.397   .     A
C3023  H3445   1.083   .     S
C3024  H3447   1.080   .     S
C3024  C3026   1.396   .     A
C3025  O3579   1.385   .     S
C3025  C2992   1.400   1_556 S
C3026  H3448   1.083   .     S
C3027  C3028   1.402   .     A
C3027  C3032   1.404   .     A
C3028  H3449   1.080   .     S
C3028  C3029   1.392   .     A
C3029  H3450   1.079   .     S
C3029  C3030   1.400   .     A
C3030  C3031   1.397   .     A
C3030  H3451   1.082   .     S
C3031  H3452   1.080   .     S
C3031  C3032   1.395   .     A
C3032  H3453   1.083   .     S
C3033  O3580   1.385   .     S
C3033  C2981   1.401   1_554 S
C3034  O3581   1.387   .     S
C3034  C3014   1.396   1_556 S
C3036  O3582   1.387   .     S
C3036  C3003   1.397   1_554 S
C3037  O3606   1.272   .     A
C3038  O3518   1.276   .     A
C3038  O1757   1.281   1_565 S
C3039  O3584   1.281   .     A
C3040  O3595   1.282   .     A
C3040  O2613   1.283   1_655 S
C3041  O3522   1.276   .     S
C3041  O3526   1.274   .     S
C3042  O3523   1.279   .     S
C3042  O3527   1.278   .     S
C3043  O3524   1.283   .     S
C3043  O3528   1.284   .     S
C3044  O1714   1.283   1_565 A
C3044  O1709   1.282   1_565 A
C3045  O3531   1.285   .     A
C3045  O3559   1.285   .     A
C3046  C3098   1.415   .     A
C3047  O3560   1.283   .     A
C3047  O3532   1.284   .     A
C3048  O3557   1.285   .     A
C3048  O3533   1.284   .     A
C3049  O3534   1.285   .     A
C3049  O3558   1.286   .     A
C3050  O3535   1.286   .     A
C3050  O3564   1.284   .     A
C3051  O3536   1.285   .     A
C3051  O3565   1.283   .     A
C3052  O3537   1.282   .     A
C3052  O3561   1.285   .     A
C3053  O3563   1.284   .     A
C3053  O3538   1.284   .     A
C3054  O3539   1.284   .     A
C3054  O3550   1.284   .     A
C3055  O3541   1.289   .     A
C3055  O3552   1.283   .     A
C3056  O3542   1.287   .     A
C3056  O3548   1.286   .     A
C3057  C3099   1.409   .     A
C3058  O3549   1.283   .     A
C3058  O3543   1.283   .     A
C3059  O3555   1.281   .     A
C3059  O3544   1.286   .     A
C3060  O3545   1.285   .     A
C3060  O3556   1.284   .     A
C3061  O3553   1.286   .     A
C3061  O3546   1.284   .     A
C3062  O3547   1.282   .     A
C3062  O3554   1.286   .     A
C3063  O3583   1.386   .     S
C3063  C3080   1.398   .     A
C3064  O3585   1.386   .     S
C3064  C3078   1.399   .     A
C3065  O3586   1.388   .     S
C3065  C3077   1.390   .     A
C3066  C3076   1.400   .     A
C3066  O3587   1.380   .     S
C3067  O3588   1.385   .     S
C3067  C3075   1.396   .     A
C3068  C3100   1.412   .     A
C3069  C3074   1.396   .     A
C3069  O3589   1.385   .     S
C3070  C3073   1.391   .     A
C3070  O3590   1.387   .     S
C3071  C3072   1.390   .     A
C3071  O3591   1.384   .     S
C3072  O3592   1.388   .     S
C3073  O3593   1.383   .     S
C3074  O3594   1.386   .     S
C3075  O3596   1.386   .     S
C3076  O3597   1.397   .     S
C3077  O3598   1.383   .     S
C3078  O3599   1.386   .     S
C3080  O3600   1.386   .     S
C3081  C3097   1.394   .     A
C3081  O3601   1.384   .     S
C3082  C3096   1.397   .     A
C3082  O3602   1.386   .     S
C3083  C3095   1.391   .     A
C3083  O3603   1.385   .     S
C3084  C3094   1.393   .     A
C3084  O3604   1.385   .     S
C3085  O3605   1.386   .     S
C3085  C3093   1.400   .     A
C3086  C3092   1.407   .     A
C3086  O3607   1.383   .     S
C3087  C3091   1.390   .     A
C3087  O3608   1.388   .     S
C3088  O3609   1.384   .     S
C3088  C3089   1.391   .     A
C3089  O3610   1.387   .     S
C3091  O3611   1.384   .     S
C3092  O3612   1.392   .     S
C3093  O3613   1.385   .     S
C3094  O3614   1.387   .     S
C3095  O3615   1.383   .     S
C3096  O3616   1.387   .     S
C3097  O3519   1.384   .     S
H3105  C2815   1.110   1_554 S
H3112  C2818   1.110   1_556 S
H3153  C1019   1.110   1_565 S
H3154  C1019   1.107   1_565 S
H3167  C1935   1.111   1_655 S
H3185  C1034   1.111   1_565 S
H3387  C2047   1.078   1_655 S
H3393  C2054   1.081   1_655 S
H3394  C2055   1.078   1_655 S
H3399  C1153   1.083   1_565 S
H3404  C1159   1.080   1_565 S
O3517  Zn3617  1.957   .     S
O3517  Zn3628  1.959   .     S
O3517  Zn3620  1.950   .     S
O3518  Zn3619  1.940   .     S
O3520  Zn3622  1.940   .     S
O3520  C2131   1.284   1_655 S
O3521  Zn3621  1.940   .     S
O3522  Zn3631  1.940   .     S
O3523  Zn3630  1.940   .     S
O3524  Zn3625  1.941   .     S
O3525  Zn3617  1.941   .     S
O3526  Zn3627  1.940   .     S
O3527  Zn3626  1.940   .     S
O3528  Zn3629  1.940   .     S
O3529  Zn3629  1.959   .     S
O3529  Zn3625  1.957   .     S
O3529  Zn3623  1.949   .     S
O3530  Zn3628  1.940   .     S
O3531  Zn3620  1.948   .     S
O3532  Zn3619  1.948   .     S
O3533  Zn3622  1.950   .     S
O3534  Zn3621  1.950   .     S
O3535  Zn3624  1.949   .     S
O3536  Zn3623  1.949   .     S
O3537  Zn3618  1.951   .     S
O3538  Zn3632  1.951   .     S
O3539  Zn3619  1.955   .     S
O3540  Zn3626  1.950   .     S
O3540  Zn3630  1.949   .     S
O3540  Zn3618  1.957   .     S
O3541  Zn3620  1.955   .     S
O3542  Zn3632  1.944   .     S
O3543  Zn3618  1.944   .     S
O3544  Zn3623  1.955   .     S
O3545  Zn3624  1.955   .     S
O3546  Zn3621  1.943   .     S
O3547  Zn3622  1.943   .     S
O3548  Zn2719  1.948   1_655 S
O3549  Zn3626  1.948   .     S
O3550  Zn1813  1.950   1_565 S
O3551  Zn3631  1.949   .     S
O3551  Zn3627  1.950   .     S
O3551  Zn3621  1.959   .     S
O3552  Zn3628  1.950   .     S
O3553  Zn3631  1.949   .     S
O3554  Zn2722  1.949   1_655 S
O3555  Zn3625  1.951   .     S
O3556  Zn1801  1.951   1_565 S
O3557  Zn2718  1.955   1_655 S
O3558  Zn3627  1.955   .     S
O3559  Zn3617  1.944   .     S
O3560  Zn1809  1.944   1_565 S
O3561  Zn3630  1.955   .     S
O3562  Zn3624  1.940   .     S
O3562  C1221   1.278   1_565 S
O3563  Zn2723  1.955   1_655 S
O3564  Zn1812  1.943   1_565 S
O3565  Zn3629  1.943   .     S
O3570  C1872   1.412   1_655 S
O3571  C1876   1.411   1_655 S
O3573  Zn3623  1.940   .     S
O3574  C974    1.413   1_565 S
O3584  Zn3618  1.941   .     S
O3595  Zn3632  1.941   .     S
O3606  Zn3620  1.940   .     S
Zn3619 O1713   1.950   1_565 S
Zn3622 O2632   1.959   1_655 S
Zn3624 O1701   1.949   1_565 S
Zn3632 O2643   1.957   1_655 S
