data_str_m1_o10_o16_pcu_sym.42
_audit_creation_date              2020-01-03
_audit_creation_method            'Materials Studio'
_symmetry_space_group_name_H-M    'P1'
_symmetry_Int_Tables_number       1
_symmetry_cell_setting            triclinic
loop_
_symmetry_equiv_pos_as_xyz
  x,y,z
_cell_length_a                    32.7501
_cell_length_b                    32.4909
_cell_length_c                    30.9581
_cell_angle_alpha                 96.0529
_cell_angle_beta                  74.8791
_cell_angle_gamma                 98.7675
loop_
_atom_site_label
_atom_site_type_symbol
_atom_site_fract_x
_atom_site_fract_y
_atom_site_fract_z
_atom_site_U_iso_or_equiv
_atom_site_adp_type
_atom_site_occupancy
C1     C     0.05321   0.15959   0.25986   0.00000  Uiso   1.00
C2     C     0.16410   0.15883   0.06122   0.00000  Uiso   1.00
C3     C     0.21855   0.11306   0.05601   0.00000  Uiso   1.00
C4     C     0.28082   0.17368   0.24021   0.00000  Uiso   1.00
C5     C     0.14291   0.19339   0.41930   0.00000  Uiso   1.00
C6     C     0.32666   0.17626   0.23690   0.00000  Uiso   1.00
C7     C     0.00805   0.15568   0.26503   0.00000  Uiso   1.00
C8     C     0.17666   0.32152   0.22998   0.00000  Uiso   1.00
C9     C     0.15426   0.01172   0.26343   0.00000  Uiso   1.00
C10    C     0.15591   0.05592   0.26071   0.00000  Uiso   1.00
C11    C     0.17577   0.27766   0.23845   0.00000  Uiso   1.00
C12    C     0.14694   0.24919   0.47706   0.00000  Uiso   1.00
C13    C     0.18516   0.14819   0.12941   0.00000  Uiso   1.00
C14    C     0.14813   0.18400   0.37088   0.00000  Uiso   1.00
C15    C     0.21392   0.09701   0.01253   0.00000  Uiso   1.00
C16    C     0.19069   0.14119   0.08110   0.00000  Uiso   1.00
C17    C     0.13907   0.23494   0.43581   0.00000  Uiso   1.00
C18    C     0.25167   0.10011   0.07697   0.00000  Uiso   1.00
C19    C     0.29047   0.13352   0.07251   0.00000  Uiso   1.00
C20    C     0.31351   0.12831   0.30205   0.00000  Uiso   1.00
C21    C     0.00441   0.10855   0.32904   0.00000  Uiso   1.00
C22    C     0.20114   0.00739   0.18569   0.00000  Uiso   1.00
C23    C     0.15847   0.22220   0.00236   0.00000  Uiso   1.00
C24    C     0.22216   0.31121   0.14734   0.00000  Uiso   1.00
C25    C     0.17130   0.05320   0.43998   0.00000  Uiso   1.00
C26    C     0.24267   0.06580   0.48524   0.00000  Uiso   1.00
C27    C     0.22621   0.02095   0.49861   0.00000  Uiso   1.00
C28    C     0.12301   0.17452   0.09014   0.00000  Uiso   1.00
C29    C     0.08626   0.13874   0.09660   0.00000  Uiso   1.00
C30    C     0.12383   0.10026   0.40487   0.00000  Uiso   1.00
C31    C     0.02336   0.20345   0.20133   0.00000  Uiso   1.00
C32    C     0.02857   0.24901   0.21925   0.00000  Uiso   1.00
C33    C     0.15800   0.17924   0.48899   0.00000  Uiso   1.00
C34    C     0.14987   0.16433   0.44712   0.00000  Uiso   1.00
C35    C     0.16951   0.15161   0.01469   0.00000  Uiso   1.00
C36    C     0.18560   0.11459   0.49336   0.00000  Uiso   1.00
C37    C     0.17066   0.09692   0.45526   0.00000  Uiso   1.00
C38    C     0.14939   0.12098   0.43483   0.00000  Uiso   1.00
H39    H     0.13837   0.33284   0.29580   0.00000  Uiso   1.00
H40    H     0.02604   0.08759   0.30677   0.00000  Uiso   1.00
H41    H     0.02313   0.13308   0.34645   0.00000  Uiso   1.00
H42    H     0.31459   0.08968   0.35483   0.00000  Uiso   1.00
H43    H     0.29167   0.14760   0.32663   0.00000  Uiso   1.00
H44    H     0.29470   0.10215   0.28671   0.00000  Uiso   1.00
H45    H     0.24969   0.29999   0.15501   0.00000  Uiso   1.00
H46    H     0.19861   0.28452   0.14050   0.00000  Uiso   1.00
H47    H     0.23458   0.32840   0.11641   0.00000  Uiso   1.00
H48    H     0.17852   0.02194   0.17275   0.00000  Uiso   1.00
H49    H     0.22617   0.03258   0.19254   0.00000  Uiso   1.00
H50    H     0.13343   0.25740   0.41521   0.00000  Uiso   1.00
H51    H     0.23503   0.01468   0.02924   0.00000  Uiso   1.00
H52    H     0.19096   0.01475   0.00527   0.00000  Uiso   1.00
H53    H     0.24033   0.33192   0.47113   0.00000  Uiso   1.00
H54    H     0.24633   0.06736   0.44882   0.00000  Uiso   1.00
H55    H     0.27588   0.07445   0.48854   0.00000  Uiso   1.00
H56    H     0.08056   0.12605   0.06361   0.00000  Uiso   1.00
H57    H     0.09340   0.11323   0.11351   0.00000  Uiso   1.00
H58    H     0.05661   0.15023   0.11739   0.00000  Uiso   1.00
H59    H     0.12684   0.18847   0.12337   0.00000  Uiso   1.00
H60    H     0.11267   0.19938   0.07545   0.00000  Uiso   1.00
H61    H     0.16865   0.23535   0.03206   0.00000  Uiso   1.00
H62    H     0.33058   0.26109   0.22908   0.00000  Uiso   1.00
H63    H     0.04238   0.25220   0.24880   0.00000  Uiso   1.00
H64    H     0.05039   0.26812   0.19280   0.00000  Uiso   1.00
H65    H     0.05530   0.19286   0.18929   0.00000  Uiso   1.00
H66    H     0.01068   0.20127   0.17107   0.00000  Uiso   1.00
H67    H     0.14632   0.28180   0.48838   0.00000  Uiso   1.00
H68    H     0.30601   0.13785   0.03655   0.00000  Uiso   1.00
H69    H     0.28112   0.16376   0.08932   0.00000  Uiso   1.00
H70    H     0.31388   0.12371   0.08835   0.00000  Uiso   1.00
H71    H     0.23777   0.09441   0.11291   0.00000  Uiso   1.00
H72    H     0.26308   0.07039   0.06197   0.00000  Uiso   1.00
N73    N     0.17144   0.01842   0.42714   0.00000  Uiso   1.00
N74    N     0.10341   0.08368   0.38114   0.00000  Uiso   1.00
O75    O     0.16667   0.16667   0.25000   0.00000  Uiso   1.00
O76    O     0.15451   0.12637   0.15459   0.00000  Uiso   1.00
O77    O     0.12940   0.20391   0.34968   0.00000  Uiso   1.00
O78    O     0.20824   0.17759   0.14606   0.00000  Uiso   1.00
O79    O     0.17451   0.15880   0.34968   0.00000  Uiso   1.00
O80    O     0.17930   0.08019   0.28214   0.00000  Uiso   1.00
O81    O     0.14632   0.26085   0.27014   0.00000  Uiso   1.00
O82    O     0.07412   0.13291   0.23413   0.00000  Uiso   1.00
O83    O     0.26693   0.19272   0.21361   0.00000  Uiso   1.00
O84    O     0.07071   0.18878   0.28213   0.00000  Uiso   1.00
O85    O     0.25491   0.15226   0.27014   0.00000  Uiso   1.00
O86    O     0.13760   0.06944   0.23413   0.00000  Uiso   1.00
O87    O     0.20345   0.25620   0.21361   0.00000  Uiso   1.00
Zn88   Zn    0.19338   0.13994   0.28734   0.00000  Uiso   1.00
Zn89   Zn    0.13379   0.12458   0.21876   0.00000  Uiso   1.00
Zn90   Zn    0.21056   0.19775   0.20657   0.00000  Uiso   1.00
Zn91   Zn    0.12893   0.20439   0.28734   0.00000  Uiso   1.00
C92    C     0.38655   0.15959   0.25986   0.00000  Uiso   1.00
C93    C     0.49743   0.15883   0.06122   0.00000  Uiso   1.00
C94    C     0.55189   0.11306   0.05601   0.00000  Uiso   1.00
C95    C     0.61415   0.17368   0.24021   0.00000  Uiso   1.00
C96    C     0.47625   0.19339   0.41930   0.00000  Uiso   1.00
C97    C     0.65999   0.17626   0.23690   0.00000  Uiso   1.00
C98    C     0.34138   0.15568   0.26503   0.00000  Uiso   1.00
C99    C     0.51000   0.32152   0.22998   0.00000  Uiso   1.00
C100   C     0.48759   0.01172   0.26343   0.00000  Uiso   1.00
C101   C     0.48924   0.05592   0.26071   0.00000  Uiso   1.00
C102   C     0.50910   0.27766   0.23845   0.00000  Uiso   1.00
C103   C     0.48028   0.24919   0.47706   0.00000  Uiso   1.00
C104   C     0.51849   0.14819   0.12941   0.00000  Uiso   1.00
C105   C     0.48146   0.18400   0.37088   0.00000  Uiso   1.00
C106   C     0.54725   0.09701   0.01253   0.00000  Uiso   1.00
C107   C     0.52402   0.14119   0.08110   0.00000  Uiso   1.00
C108   C     0.47240   0.23494   0.43581   0.00000  Uiso   1.00
C109   C     0.58500   0.10011   0.07697   0.00000  Uiso   1.00
C110   C     0.62380   0.13352   0.07251   0.00000  Uiso   1.00
C111   C     0.64685   0.12831   0.30205   0.00000  Uiso   1.00
C112   C     0.33774   0.10855   0.32904   0.00000  Uiso   1.00
C113   C     0.53447   0.00739   0.18569   0.00000  Uiso   1.00
C114   C     0.49180   0.22220   0.00236   0.00000  Uiso   1.00
C115   C     0.55550   0.31121   0.14734   0.00000  Uiso   1.00
C116   C     0.50464   0.05320   0.43998   0.00000  Uiso   1.00
C117   C     0.57601   0.06580   0.48524   0.00000  Uiso   1.00
C118   C     0.55955   0.02095   0.49861   0.00000  Uiso   1.00
C119   C     0.45635   0.17452   0.09014   0.00000  Uiso   1.00
C120   C     0.41959   0.13874   0.09660   0.00000  Uiso   1.00
C121   C     0.45717   0.10026   0.40487   0.00000  Uiso   1.00
C122   C     0.35669   0.20345   0.20133   0.00000  Uiso   1.00
C123   C     0.36191   0.24901   0.21925   0.00000  Uiso   1.00
C124   C     0.49134   0.17924   0.48899   0.00000  Uiso   1.00
C125   C     0.48320   0.16433   0.44712   0.00000  Uiso   1.00
C126   C     0.50284   0.15161   0.01469   0.00000  Uiso   1.00
C127   C     0.51893   0.11459   0.49336   0.00000  Uiso   1.00
C128   C     0.50399   0.09692   0.45526   0.00000  Uiso   1.00
C129   C     0.48273   0.12098   0.43483   0.00000  Uiso   1.00
H130   H     0.47170   0.33284   0.29580   0.00000  Uiso   1.00
H131   H     0.35937   0.08759   0.30677   0.00000  Uiso   1.00
H132   H     0.35646   0.13308   0.34645   0.00000  Uiso   1.00
H133   H     0.64792   0.08968   0.35483   0.00000  Uiso   1.00
H134   H     0.62500   0.14760   0.32663   0.00000  Uiso   1.00
H135   H     0.62804   0.10215   0.28671   0.00000  Uiso   1.00
H136   H     0.58303   0.29999   0.15501   0.00000  Uiso   1.00
H137   H     0.53194   0.28452   0.14050   0.00000  Uiso   1.00
H138   H     0.56791   0.32840   0.11641   0.00000  Uiso   1.00
H139   H     0.51185   0.02194   0.17275   0.00000  Uiso   1.00
H140   H     0.55950   0.03258   0.19254   0.00000  Uiso   1.00
H141   H     0.46676   0.25740   0.41521   0.00000  Uiso   1.00
H142   H     0.56836   0.01468   0.02924   0.00000  Uiso   1.00
H143   H     0.52430   0.01475   0.00527   0.00000  Uiso   1.00
H144   H     0.57366   0.33192   0.47113   0.00000  Uiso   1.00
H145   H     0.57966   0.06736   0.44882   0.00000  Uiso   1.00
H146   H     0.60922   0.07445   0.48854   0.00000  Uiso   1.00
H147   H     0.41389   0.12605   0.06361   0.00000  Uiso   1.00
H148   H     0.42674   0.11323   0.11351   0.00000  Uiso   1.00
H149   H     0.38995   0.15023   0.11739   0.00000  Uiso   1.00
H150   H     0.46017   0.18847   0.12337   0.00000  Uiso   1.00
H151   H     0.44600   0.19938   0.07545   0.00000  Uiso   1.00
H152   H     0.50198   0.23535   0.03206   0.00000  Uiso   1.00
H153   H     0.66391   0.26109   0.22908   0.00000  Uiso   1.00
H154   H     0.37571   0.25220   0.24880   0.00000  Uiso   1.00
H155   H     0.38372   0.26812   0.19280   0.00000  Uiso   1.00
H156   H     0.38863   0.19286   0.18929   0.00000  Uiso   1.00
H157   H     0.34401   0.20127   0.17107   0.00000  Uiso   1.00
H158   H     0.47966   0.28180   0.48838   0.00000  Uiso   1.00
H159   H     0.63934   0.13785   0.03655   0.00000  Uiso   1.00
H160   H     0.61446   0.16376   0.08932   0.00000  Uiso   1.00
H161   H     0.64722   0.12371   0.08835   0.00000  Uiso   1.00
H162   H     0.57110   0.09441   0.11291   0.00000  Uiso   1.00
H163   H     0.59641   0.07039   0.06197   0.00000  Uiso   1.00
N164   N     0.50477   0.01842   0.42714   0.00000  Uiso   1.00
N165   N     0.43675   0.08368   0.38114   0.00000  Uiso   1.00
O166   O     0.50000   0.16667   0.25000   0.00000  Uiso   1.00
O167   O     0.48784   0.12637   0.15459   0.00000  Uiso   1.00
O168   O     0.46274   0.20391   0.34968   0.00000  Uiso   1.00
O169   O     0.54157   0.17759   0.14606   0.00000  Uiso   1.00
O170   O     0.50785   0.15880   0.34968   0.00000  Uiso   1.00
O171   O     0.51264   0.08019   0.28214   0.00000  Uiso   1.00
O172   O     0.47965   0.26085   0.27014   0.00000  Uiso   1.00
O173   O     0.40745   0.13291   0.23413   0.00000  Uiso   1.00
O174   O     0.60026   0.19272   0.21361   0.00000  Uiso   1.00
O175   O     0.40405   0.18878   0.28213   0.00000  Uiso   1.00
O176   O     0.58824   0.15226   0.27014   0.00000  Uiso   1.00
O177   O     0.47093   0.06944   0.23413   0.00000  Uiso   1.00
O178   O     0.53678   0.25620   0.21361   0.00000  Uiso   1.00
Zn179  Zn    0.52672   0.13994   0.28734   0.00000  Uiso   1.00
Zn180  Zn    0.46713   0.12458   0.21876   0.00000  Uiso   1.00
Zn181  Zn    0.54389   0.19775   0.20657   0.00000  Uiso   1.00
Zn182  Zn    0.46226   0.20439   0.28734   0.00000  Uiso   1.00
C183   C     0.71988   0.15959   0.25986   0.00000  Uiso   1.00
C184   C     0.83076   0.15883   0.06122   0.00000  Uiso   1.00
C185   C     0.88522   0.11306   0.05601   0.00000  Uiso   1.00
C186   C     0.94749   0.17368   0.24021   0.00000  Uiso   1.00
C187   C     0.80958   0.19339   0.41930   0.00000  Uiso   1.00
C188   C     0.99332   0.17626   0.23690   0.00000  Uiso   1.00
C189   C     0.67472   0.15568   0.26503   0.00000  Uiso   1.00
C190   C     0.84333   0.32152   0.22998   0.00000  Uiso   1.00
C191   C     0.82092   0.01172   0.26343   0.00000  Uiso   1.00
C192   C     0.82257   0.05592   0.26071   0.00000  Uiso   1.00
C193   C     0.84244   0.27766   0.23845   0.00000  Uiso   1.00
C194   C     0.81361   0.24919   0.47706   0.00000  Uiso   1.00
C195   C     0.85182   0.14819   0.12941   0.00000  Uiso   1.00
C196   C     0.81479   0.18400   0.37088   0.00000  Uiso   1.00
C197   C     0.88058   0.09701   0.01253   0.00000  Uiso   1.00
C198   C     0.85736   0.14119   0.08110   0.00000  Uiso   1.00
C199   C     0.80574   0.23494   0.43581   0.00000  Uiso   1.00
C200   C     0.91833   0.10011   0.07697   0.00000  Uiso   1.00
C201   C     0.95713   0.13352   0.07251   0.00000  Uiso   1.00
C202   C     0.98018   0.12831   0.30205   0.00000  Uiso   1.00
C203   C     0.67108   0.10855   0.32904   0.00000  Uiso   1.00
C204   C     0.86781   0.00739   0.18569   0.00000  Uiso   1.00
C205   C     0.82514   0.22220   0.00236   0.00000  Uiso   1.00
C206   C     0.88883   0.31121   0.14734   0.00000  Uiso   1.00
C207   C     0.83797   0.05320   0.43998   0.00000  Uiso   1.00
C208   C     0.90934   0.06580   0.48524   0.00000  Uiso   1.00
C209   C     0.89288   0.02095   0.49861   0.00000  Uiso   1.00
C210   C     0.78968   0.17452   0.09014   0.00000  Uiso   1.00
C211   C     0.75292   0.13874   0.09660   0.00000  Uiso   1.00
C212   C     0.79050   0.10026   0.40487   0.00000  Uiso   1.00
C213   C     0.69003   0.20345   0.20133   0.00000  Uiso   1.00
C214   C     0.69524   0.24901   0.21925   0.00000  Uiso   1.00
C215   C     0.82467   0.17924   0.48899   0.00000  Uiso   1.00
C216   C     0.81653   0.16433   0.44712   0.00000  Uiso   1.00
C217   C     0.83617   0.15161   0.01469   0.00000  Uiso   1.00
C218   C     0.85227   0.11459   0.49336   0.00000  Uiso   1.00
C219   C     0.83732   0.09692   0.45526   0.00000  Uiso   1.00
C220   C     0.81606   0.12098   0.43483   0.00000  Uiso   1.00
H221   H     0.80503   0.33284   0.29580   0.00000  Uiso   1.00
H222   H     0.69270   0.08759   0.30677   0.00000  Uiso   1.00
H223   H     0.68979   0.13308   0.34645   0.00000  Uiso   1.00
H224   H     0.98126   0.08968   0.35483   0.00000  Uiso   1.00
H225   H     0.95834   0.14760   0.32663   0.00000  Uiso   1.00
H226   H     0.96137   0.10215   0.28671   0.00000  Uiso   1.00
H227   H     0.91636   0.29999   0.15501   0.00000  Uiso   1.00
H228   H     0.86527   0.28452   0.14050   0.00000  Uiso   1.00
H229   H     0.90125   0.32840   0.11641   0.00000  Uiso   1.00
H230   H     0.84518   0.02194   0.17275   0.00000  Uiso   1.00
H231   H     0.89283   0.03258   0.19254   0.00000  Uiso   1.00
H232   H     0.80009   0.25740   0.41521   0.00000  Uiso   1.00
H233   H     0.90169   0.01468   0.02924   0.00000  Uiso   1.00
H234   H     0.85763   0.01475   0.00527   0.00000  Uiso   1.00
H235   H     0.90700   0.33192   0.47113   0.00000  Uiso   1.00
H236   H     0.91299   0.06736   0.44882   0.00000  Uiso   1.00
H237   H     0.94255   0.07445   0.48854   0.00000  Uiso   1.00
H238   H     0.74723   0.12605   0.06361   0.00000  Uiso   1.00
H239   H     0.76007   0.11323   0.11351   0.00000  Uiso   1.00
H240   H     0.72328   0.15023   0.11739   0.00000  Uiso   1.00
H241   H     0.79351   0.18847   0.12337   0.00000  Uiso   1.00
H242   H     0.77934   0.19938   0.07545   0.00000  Uiso   1.00
H243   H     0.83532   0.23535   0.03206   0.00000  Uiso   1.00
H244   H     0.99724   0.26109   0.22908   0.00000  Uiso   1.00
H245   H     0.70904   0.25220   0.24880   0.00000  Uiso   1.00
H246   H     0.71706   0.26812   0.19280   0.00000  Uiso   1.00
H247   H     0.72196   0.19286   0.18929   0.00000  Uiso   1.00
H248   H     0.67735   0.20127   0.17107   0.00000  Uiso   1.00
H249   H     0.81299   0.28180   0.48838   0.00000  Uiso   1.00
H250   H     0.97267   0.13785   0.03655   0.00000  Uiso   1.00
H251   H     0.94779   0.16376   0.08932   0.00000  Uiso   1.00
H252   H     0.98055   0.12371   0.08835   0.00000  Uiso   1.00
H253   H     0.90444   0.09441   0.11291   0.00000  Uiso   1.00
H254   H     0.92974   0.07039   0.06197   0.00000  Uiso   1.00
N255   N     0.83810   0.01842   0.42714   0.00000  Uiso   1.00
N256   N     0.77008   0.08368   0.38114   0.00000  Uiso   1.00
O257   O     0.83333   0.16667   0.25000   0.00000  Uiso   1.00
O258   O     0.82118   0.12637   0.15459   0.00000  Uiso   1.00
O259   O     0.79607   0.20391   0.34968   0.00000  Uiso   1.00
O260   O     0.87491   0.17759   0.14606   0.00000  Uiso   1.00
O261   O     0.84118   0.15880   0.34968   0.00000  Uiso   1.00
O262   O     0.84597   0.08019   0.28214   0.00000  Uiso   1.00
O263   O     0.81298   0.26085   0.27014   0.00000  Uiso   1.00
O264   O     0.74078   0.13291   0.23413   0.00000  Uiso   1.00
O265   O     0.93360   0.19272   0.21361   0.00000  Uiso   1.00
O266   O     0.73738   0.18878   0.28213   0.00000  Uiso   1.00
O267   O     0.92158   0.15226   0.27014   0.00000  Uiso   1.00
O268   O     0.80426   0.06944   0.23413   0.00000  Uiso   1.00
O269   O     0.87012   0.25620   0.21361   0.00000  Uiso   1.00
Zn270  Zn    0.86005   0.13994   0.28734   0.00000  Uiso   1.00
Zn271  Zn    0.80046   0.12458   0.21876   0.00000  Uiso   1.00
Zn272  Zn    0.87723   0.19775   0.20657   0.00000  Uiso   1.00
Zn273  Zn    0.79560   0.20439   0.28734   0.00000  Uiso   1.00
C274   C     0.05321   0.49293   0.25986   0.00000  Uiso   1.00
C275   C     0.16410   0.49216   0.06122   0.00000  Uiso   1.00
C276   C     0.21855   0.44639   0.05601   0.00000  Uiso   1.00
C277   C     0.28082   0.50702   0.24021   0.00000  Uiso   1.00
C278   C     0.14291   0.52673   0.41930   0.00000  Uiso   1.00
C279   C     0.32666   0.50959   0.23690   0.00000  Uiso   1.00
C280   C     0.00805   0.48901   0.26503   0.00000  Uiso   1.00
C281   C     0.17666   0.65485   0.22998   0.00000  Uiso   1.00
C282   C     0.15426   0.34505   0.26343   0.00000  Uiso   1.00
C283   C     0.15591   0.38925   0.26071   0.00000  Uiso   1.00
C284   C     0.17577   0.61099   0.23845   0.00000  Uiso   1.00
C285   C     0.14694   0.58253   0.47706   0.00000  Uiso   1.00
C286   C     0.18516   0.48152   0.12941   0.00000  Uiso   1.00
C287   C     0.14813   0.51733   0.37088   0.00000  Uiso   1.00
C288   C     0.21392   0.43035   0.01253   0.00000  Uiso   1.00
C289   C     0.19069   0.47453   0.08110   0.00000  Uiso   1.00
C290   C     0.13907   0.56828   0.43581   0.00000  Uiso   1.00
C291   C     0.25167   0.43344   0.07697   0.00000  Uiso   1.00
C292   C     0.29047   0.46685   0.07251   0.00000  Uiso   1.00
C293   C     0.31351   0.46164   0.30205   0.00000  Uiso   1.00
C294   C     0.00441   0.44188   0.32904   0.00000  Uiso   1.00
C295   C     0.20114   0.34072   0.18569   0.00000  Uiso   1.00
C296   C     0.15847   0.55553   0.00236   0.00000  Uiso   1.00
C297   C     0.22216   0.64454   0.14734   0.00000  Uiso   1.00
C298   C     0.17130   0.38653   0.43998   0.00000  Uiso   1.00
C299   C     0.24267   0.39914   0.48524   0.00000  Uiso   1.00
C300   C     0.22621   0.35429   0.49861   0.00000  Uiso   1.00
C301   C     0.12301   0.50785   0.09014   0.00000  Uiso   1.00
C302   C     0.08626   0.47207   0.09660   0.00000  Uiso   1.00
C303   C     0.12383   0.43359   0.40487   0.00000  Uiso   1.00
C304   C     0.02336   0.53678   0.20133   0.00000  Uiso   1.00
C305   C     0.02857   0.58235   0.21925   0.00000  Uiso   1.00
C306   C     0.15800   0.51257   0.48899   0.00000  Uiso   1.00
C307   C     0.14987   0.49767   0.44712   0.00000  Uiso   1.00
C308   C     0.16951   0.48494   0.01469   0.00000  Uiso   1.00
C309   C     0.18560   0.44792   0.49336   0.00000  Uiso   1.00
C310   C     0.17066   0.43025   0.45526   0.00000  Uiso   1.00
C311   C     0.14939   0.45431   0.43483   0.00000  Uiso   1.00
H312   H     0.13837   0.66617   0.29580   0.00000  Uiso   1.00
H313   H     0.02604   0.42092   0.30677   0.00000  Uiso   1.00
H314   H     0.02313   0.46641   0.34645   0.00000  Uiso   1.00
H315   H     0.31459   0.42301   0.35483   0.00000  Uiso   1.00
H316   H     0.29167   0.48094   0.32663   0.00000  Uiso   1.00
H317   H     0.29470   0.43548   0.28671   0.00000  Uiso   1.00
H318   H     0.24969   0.63333   0.15501   0.00000  Uiso   1.00
H319   H     0.19861   0.61786   0.14050   0.00000  Uiso   1.00
H320   H     0.23458   0.66173   0.11641   0.00000  Uiso   1.00
H321   H     0.17852   0.35527   0.17275   0.00000  Uiso   1.00
H322   H     0.22617   0.36591   0.19254   0.00000  Uiso   1.00
H323   H     0.13343   0.59073   0.41521   0.00000  Uiso   1.00
H324   H     0.23503   0.34801   0.02924   0.00000  Uiso   1.00
H325   H     0.19096   0.34809   0.00527   0.00000  Uiso   1.00
H326   H     0.24033   0.66525   0.47113   0.00000  Uiso   1.00
H327   H     0.24633   0.40069   0.44882   0.00000  Uiso   1.00
H328   H     0.27588   0.40778   0.48854   0.00000  Uiso   1.00
H329   H     0.08056   0.45938   0.06361   0.00000  Uiso   1.00
H330   H     0.09340   0.44656   0.11351   0.00000  Uiso   1.00
H331   H     0.05661   0.48357   0.11739   0.00000  Uiso   1.00
H332   H     0.12684   0.52181   0.12337   0.00000  Uiso   1.00
H333   H     0.11267   0.53272   0.07545   0.00000  Uiso   1.00
H334   H     0.16865   0.56868   0.03206   0.00000  Uiso   1.00
H335   H     0.33058   0.59442   0.22908   0.00000  Uiso   1.00
H336   H     0.04238   0.58554   0.24880   0.00000  Uiso   1.00
H337   H     0.05039   0.60145   0.19280   0.00000  Uiso   1.00
H338   H     0.05530   0.52619   0.18929   0.00000  Uiso   1.00
H339   H     0.01068   0.53460   0.17107   0.00000  Uiso   1.00
H340   H     0.14632   0.61514   0.48838   0.00000  Uiso   1.00
H341   H     0.30601   0.47118   0.03655   0.00000  Uiso   1.00
H342   H     0.28112   0.49709   0.08932   0.00000  Uiso   1.00
H343   H     0.31388   0.45705   0.08835   0.00000  Uiso   1.00
H344   H     0.23777   0.42775   0.11291   0.00000  Uiso   1.00
H345   H     0.26308   0.40372   0.06197   0.00000  Uiso   1.00
N346   N     0.17144   0.35176   0.42714   0.00000  Uiso   1.00
N347   N     0.10341   0.41701   0.38114   0.00000  Uiso   1.00
O348   O     0.16667   0.50000   0.25000   0.00000  Uiso   1.00
O349   O     0.15451   0.45970   0.15459   0.00000  Uiso   1.00
O350   O     0.12940   0.53724   0.34968   0.00000  Uiso   1.00
O351   O     0.20824   0.51092   0.14606   0.00000  Uiso   1.00
O352   O     0.17451   0.49213   0.34968   0.00000  Uiso   1.00
O353   O     0.17930   0.41352   0.28214   0.00000  Uiso   1.00
O354   O     0.14632   0.59418   0.27014   0.00000  Uiso   1.00
O355   O     0.07412   0.46625   0.23413   0.00000  Uiso   1.00
O356   O     0.26693   0.52605   0.21361   0.00000  Uiso   1.00
O357   O     0.07071   0.52211   0.28213   0.00000  Uiso   1.00
O358   O     0.25491   0.48559   0.27014   0.00000  Uiso   1.00
O359   O     0.13760   0.40277   0.23413   0.00000  Uiso   1.00
O360   O     0.20345   0.58953   0.21361   0.00000  Uiso   1.00
Zn361  Zn    0.19338   0.47327   0.28734   0.00000  Uiso   1.00
Zn362  Zn    0.13379   0.45791   0.21876   0.00000  Uiso   1.00
Zn363  Zn    0.21056   0.53109   0.20657   0.00000  Uiso   1.00
Zn364  Zn    0.12893   0.53773   0.28734   0.00000  Uiso   1.00
C365   C     0.38655   0.49293   0.25986   0.00000  Uiso   1.00
C366   C     0.49743   0.49216   0.06122   0.00000  Uiso   1.00
C367   C     0.55189   0.44639   0.05601   0.00000  Uiso   1.00
C368   C     0.61415   0.50702   0.24021   0.00000  Uiso   1.00
C369   C     0.47625   0.52673   0.41930   0.00000  Uiso   1.00
C370   C     0.65999   0.50959   0.23690   0.00000  Uiso   1.00
C371   C     0.34138   0.48901   0.26503   0.00000  Uiso   1.00
C372   C     0.51000   0.65485   0.22998   0.00000  Uiso   1.00
C373   C     0.48759   0.34505   0.26343   0.00000  Uiso   1.00
C374   C     0.48924   0.38925   0.26071   0.00000  Uiso   1.00
C375   C     0.50910   0.61099   0.23845   0.00000  Uiso   1.00
C376   C     0.48028   0.58253   0.47706   0.00000  Uiso   1.00
C377   C     0.51849   0.48152   0.12941   0.00000  Uiso   1.00
C378   C     0.48146   0.51733   0.37088   0.00000  Uiso   1.00
C379   C     0.54725   0.43035   0.01253   0.00000  Uiso   1.00
C380   C     0.52402   0.47453   0.08110   0.00000  Uiso   1.00
C381   C     0.47240   0.56828   0.43581   0.00000  Uiso   1.00
C382   C     0.58500   0.43344   0.07697   0.00000  Uiso   1.00
C383   C     0.62380   0.46685   0.07251   0.00000  Uiso   1.00
C384   C     0.64685   0.46164   0.30205   0.00000  Uiso   1.00
C385   C     0.33774   0.44188   0.32904   0.00000  Uiso   1.00
C386   C     0.53447   0.34072   0.18569   0.00000  Uiso   1.00
C387   C     0.49180   0.55553   0.00236   0.00000  Uiso   1.00
C388   C     0.55550   0.64454   0.14734   0.00000  Uiso   1.00
C389   C     0.50464   0.38653   0.43998   0.00000  Uiso   1.00
C390   C     0.57601   0.39914   0.48524   0.00000  Uiso   1.00
C391   C     0.55955   0.35429   0.49861   0.00000  Uiso   1.00
C392   C     0.45635   0.50785   0.09014   0.00000  Uiso   1.00
C393   C     0.41959   0.47207   0.09660   0.00000  Uiso   1.00
C394   C     0.45717   0.43359   0.40487   0.00000  Uiso   1.00
C395   C     0.35669   0.53678   0.20133   0.00000  Uiso   1.00
C396   C     0.36191   0.58235   0.21925   0.00000  Uiso   1.00
C397   C     0.49134   0.51257   0.48899   0.00000  Uiso   1.00
C398   C     0.48320   0.49767   0.44712   0.00000  Uiso   1.00
C399   C     0.50284   0.48494   0.01469   0.00000  Uiso   1.00
C400   C     0.51893   0.44792   0.49336   0.00000  Uiso   1.00
C401   C     0.50399   0.43025   0.45526   0.00000  Uiso   1.00
C402   C     0.48273   0.45431   0.43483   0.00000  Uiso   1.00
H403   H     0.47170   0.66617   0.29580   0.00000  Uiso   1.00
H404   H     0.35937   0.42092   0.30677   0.00000  Uiso   1.00
H405   H     0.35646   0.46641   0.34645   0.00000  Uiso   1.00
H406   H     0.64792   0.42301   0.35483   0.00000  Uiso   1.00
H407   H     0.62500   0.48094   0.32663   0.00000  Uiso   1.00
H408   H     0.62804   0.43548   0.28671   0.00000  Uiso   1.00
H409   H     0.58303   0.63333   0.15501   0.00000  Uiso   1.00
H410   H     0.53194   0.61786   0.14050   0.00000  Uiso   1.00
H411   H     0.56791   0.66173   0.11641   0.00000  Uiso   1.00
H412   H     0.51185   0.35527   0.17275   0.00000  Uiso   1.00
H413   H     0.55950   0.36591   0.19254   0.00000  Uiso   1.00
H414   H     0.46676   0.59073   0.41521   0.00000  Uiso   1.00
H415   H     0.56836   0.34801   0.02924   0.00000  Uiso   1.00
H416   H     0.52430   0.34809   0.00527   0.00000  Uiso   1.00
H417   H     0.57366   0.66525   0.47113   0.00000  Uiso   1.00
H418   H     0.57966   0.40069   0.44882   0.00000  Uiso   1.00
H419   H     0.60922   0.40778   0.48854   0.00000  Uiso   1.00
H420   H     0.41389   0.45938   0.06361   0.00000  Uiso   1.00
H421   H     0.42674   0.44656   0.11351   0.00000  Uiso   1.00
H422   H     0.38995   0.48357   0.11739   0.00000  Uiso   1.00
H423   H     0.46017   0.52181   0.12337   0.00000  Uiso   1.00
H424   H     0.44600   0.53272   0.07545   0.00000  Uiso   1.00
H425   H     0.50198   0.56868   0.03206   0.00000  Uiso   1.00
H426   H     0.66391   0.59442   0.22908   0.00000  Uiso   1.00
H427   H     0.37571   0.58554   0.24880   0.00000  Uiso   1.00
H428   H     0.38372   0.60145   0.19280   0.00000  Uiso   1.00
H429   H     0.38863   0.52619   0.18929   0.00000  Uiso   1.00
H430   H     0.34401   0.53460   0.17107   0.00000  Uiso   1.00
H431   H     0.47966   0.61514   0.48838   0.00000  Uiso   1.00
H432   H     0.63934   0.47118   0.03655   0.00000  Uiso   1.00
H433   H     0.61446   0.49709   0.08932   0.00000  Uiso   1.00
H434   H     0.64722   0.45705   0.08835   0.00000  Uiso   1.00
H435   H     0.57110   0.42775   0.11291   0.00000  Uiso   1.00
H436   H     0.59641   0.40372   0.06197   0.00000  Uiso   1.00
N437   N     0.50477   0.35176   0.42714   0.00000  Uiso   1.00
N438   N     0.43675   0.41701   0.38114   0.00000  Uiso   1.00
O439   O     0.50000   0.50000   0.25000   0.00000  Uiso   1.00
O440   O     0.48784   0.45970   0.15459   0.00000  Uiso   1.00
O441   O     0.46274   0.53724   0.34968   0.00000  Uiso   1.00
O442   O     0.54157   0.51092   0.14606   0.00000  Uiso   1.00
O443   O     0.50785   0.49213   0.34968   0.00000  Uiso   1.00
O444   O     0.51264   0.41352   0.28214   0.00000  Uiso   1.00
O445   O     0.47965   0.59418   0.27014   0.00000  Uiso   1.00
O446   O     0.40745   0.46625   0.23413   0.00000  Uiso   1.00
O447   O     0.60026   0.52605   0.21361   0.00000  Uiso   1.00
O448   O     0.40405   0.52211   0.28213   0.00000  Uiso   1.00
O449   O     0.58824   0.48559   0.27014   0.00000  Uiso   1.00
O450   O     0.47093   0.40277   0.23413   0.00000  Uiso   1.00
O451   O     0.53678   0.58953   0.21361   0.00000  Uiso   1.00
Zn452  Zn    0.52672   0.47327   0.28734   0.00000  Uiso   1.00
Zn453  Zn    0.46713   0.45791   0.21876   0.00000  Uiso   1.00
Zn454  Zn    0.54389   0.53109   0.20657   0.00000  Uiso   1.00
Zn455  Zn    0.46226   0.53773   0.28734   0.00000  Uiso   1.00
C456   C     0.71988   0.49293   0.25986   0.00000  Uiso   1.00
C457   C     0.83076   0.49216   0.06122   0.00000  Uiso   1.00
C458   C     0.88522   0.44639   0.05601   0.00000  Uiso   1.00
C459   C     0.94749   0.50702   0.24021   0.00000  Uiso   1.00
C460   C     0.80958   0.52673   0.41930   0.00000  Uiso   1.00
C461   C     0.99332   0.50959   0.23690   0.00000  Uiso   1.00
C462   C     0.67472   0.48901   0.26503   0.00000  Uiso   1.00
C463   C     0.84333   0.65485   0.22998   0.00000  Uiso   1.00
C464   C     0.82092   0.34505   0.26343   0.00000  Uiso   1.00
C465   C     0.82257   0.38925   0.26071   0.00000  Uiso   1.00
C466   C     0.84244   0.61099   0.23845   0.00000  Uiso   1.00
C467   C     0.81361   0.58253   0.47706   0.00000  Uiso   1.00
C468   C     0.85182   0.48152   0.12941   0.00000  Uiso   1.00
C469   C     0.81479   0.51733   0.37088   0.00000  Uiso   1.00
C470   C     0.88058   0.43035   0.01253   0.00000  Uiso   1.00
C471   C     0.85736   0.47453   0.08110   0.00000  Uiso   1.00
C472   C     0.80574   0.56828   0.43581   0.00000  Uiso   1.00
C473   C     0.91833   0.43344   0.07697   0.00000  Uiso   1.00
C474   C     0.95713   0.46685   0.07251   0.00000  Uiso   1.00
C475   C     0.98018   0.46164   0.30205   0.00000  Uiso   1.00
C476   C     0.67108   0.44188   0.32904   0.00000  Uiso   1.00
C477   C     0.86781   0.34072   0.18569   0.00000  Uiso   1.00
C478   C     0.82514   0.55553   0.00236   0.00000  Uiso   1.00
C479   C     0.88883   0.64454   0.14734   0.00000  Uiso   1.00
C480   C     0.83797   0.38653   0.43998   0.00000  Uiso   1.00
C481   C     0.90934   0.39914   0.48524   0.00000  Uiso   1.00
C482   C     0.89288   0.35429   0.49861   0.00000  Uiso   1.00
C483   C     0.78968   0.50785   0.09014   0.00000  Uiso   1.00
C484   C     0.75292   0.47207   0.09660   0.00000  Uiso   1.00
C485   C     0.79050   0.43359   0.40487   0.00000  Uiso   1.00
C486   C     0.69003   0.53678   0.20133   0.00000  Uiso   1.00
C487   C     0.69524   0.58235   0.21925   0.00000  Uiso   1.00
C488   C     0.82467   0.51257   0.48899   0.00000  Uiso   1.00
C489   C     0.81653   0.49767   0.44712   0.00000  Uiso   1.00
C490   C     0.83617   0.48494   0.01469   0.00000  Uiso   1.00
C491   C     0.85227   0.44792   0.49336   0.00000  Uiso   1.00
C492   C     0.83732   0.43025   0.45526   0.00000  Uiso   1.00
C493   C     0.81606   0.45431   0.43483   0.00000  Uiso   1.00
H494   H     0.80503   0.66617   0.29580   0.00000  Uiso   1.00
H495   H     0.69270   0.42092   0.30677   0.00000  Uiso   1.00
H496   H     0.68979   0.46641   0.34645   0.00000  Uiso   1.00
H497   H     0.98126   0.42301   0.35483   0.00000  Uiso   1.00
H498   H     0.95834   0.48094   0.32663   0.00000  Uiso   1.00
H499   H     0.96137   0.43548   0.28671   0.00000  Uiso   1.00
H500   H     0.91636   0.63333   0.15501   0.00000  Uiso   1.00
H501   H     0.86527   0.61786   0.14050   0.00000  Uiso   1.00
H502   H     0.90125   0.66173   0.11641   0.00000  Uiso   1.00
H503   H     0.84518   0.35527   0.17275   0.00000  Uiso   1.00
H504   H     0.89283   0.36591   0.19254   0.00000  Uiso   1.00
H505   H     0.80009   0.59073   0.41521   0.00000  Uiso   1.00
H506   H     0.90169   0.34801   0.02924   0.00000  Uiso   1.00
H507   H     0.85763   0.34809   0.00527   0.00000  Uiso   1.00
H508   H     0.90700   0.66525   0.47113   0.00000  Uiso   1.00
H509   H     0.91299   0.40069   0.44882   0.00000  Uiso   1.00
H510   H     0.94255   0.40778   0.48854   0.00000  Uiso   1.00
H511   H     0.74723   0.45938   0.06361   0.00000  Uiso   1.00
H512   H     0.76007   0.44656   0.11351   0.00000  Uiso   1.00
H513   H     0.72328   0.48357   0.11739   0.00000  Uiso   1.00
H514   H     0.79351   0.52181   0.12337   0.00000  Uiso   1.00
H515   H     0.77934   0.53272   0.07545   0.00000  Uiso   1.00
H516   H     0.83532   0.56868   0.03206   0.00000  Uiso   1.00
H517   H     0.99724   0.59442   0.22908   0.00000  Uiso   1.00
H518   H     0.70904   0.58554   0.24880   0.00000  Uiso   1.00
H519   H     0.71706   0.60145   0.19280   0.00000  Uiso   1.00
H520   H     0.72196   0.52619   0.18929   0.00000  Uiso   1.00
H521   H     0.67735   0.53460   0.17107   0.00000  Uiso   1.00
H522   H     0.81299   0.61514   0.48838   0.00000  Uiso   1.00
H523   H     0.97267   0.47118   0.03655   0.00000  Uiso   1.00
H524   H     0.94779   0.49709   0.08932   0.00000  Uiso   1.00
H525   H     0.98055   0.45705   0.08835   0.00000  Uiso   1.00
H526   H     0.90444   0.42775   0.11291   0.00000  Uiso   1.00
H527   H     0.92974   0.40372   0.06197   0.00000  Uiso   1.00
N528   N     0.83810   0.35176   0.42714   0.00000  Uiso   1.00
N529   N     0.77008   0.41701   0.38114   0.00000  Uiso   1.00
O530   O     0.83333   0.50000   0.25000   0.00000  Uiso   1.00
O531   O     0.82118   0.45970   0.15459   0.00000  Uiso   1.00
O532   O     0.79607   0.53724   0.34968   0.00000  Uiso   1.00
O533   O     0.87491   0.51092   0.14606   0.00000  Uiso   1.00
O534   O     0.84118   0.49213   0.34968   0.00000  Uiso   1.00
O535   O     0.84597   0.41352   0.28214   0.00000  Uiso   1.00
O536   O     0.81298   0.59418   0.27014   0.00000  Uiso   1.00
O537   O     0.74078   0.46625   0.23413   0.00000  Uiso   1.00
O538   O     0.93360   0.52605   0.21361   0.00000  Uiso   1.00
O539   O     0.73738   0.52211   0.28213   0.00000  Uiso   1.00
O540   O     0.92158   0.48559   0.27014   0.00000  Uiso   1.00
O541   O     0.80426   0.40277   0.23413   0.00000  Uiso   1.00
O542   O     0.87012   0.58953   0.21361   0.00000  Uiso   1.00
Zn543  Zn    0.86005   0.47327   0.28734   0.00000  Uiso   1.00
Zn544  Zn    0.80046   0.45791   0.21876   0.00000  Uiso   1.00
Zn545  Zn    0.87723   0.53109   0.20657   0.00000  Uiso   1.00
Zn546  Zn    0.79560   0.53773   0.28734   0.00000  Uiso   1.00
C547   C     0.05321   0.82626   0.25986   0.00000  Uiso   1.00
C548   C     0.16410   0.82550   0.06122   0.00000  Uiso   1.00
C549   C     0.21855   0.77972   0.05601   0.00000  Uiso   1.00
C550   C     0.28082   0.84035   0.24021   0.00000  Uiso   1.00
C551   C     0.14291   0.86006   0.41930   0.00000  Uiso   1.00
C552   C     0.32666   0.84292   0.23690   0.00000  Uiso   1.00
C553   C     0.00805   0.82234   0.26503   0.00000  Uiso   1.00
C554   C     0.17666   0.98819   0.22998   0.00000  Uiso   1.00
C555   C     0.15426   0.67839   0.26343   0.00000  Uiso   1.00
C556   C     0.15591   0.72258   0.26071   0.00000  Uiso   1.00
C557   C     0.17577   0.94432   0.23845   0.00000  Uiso   1.00
C558   C     0.14694   0.91586   0.47706   0.00000  Uiso   1.00
C559   C     0.18516   0.81486   0.12941   0.00000  Uiso   1.00
C560   C     0.14813   0.85067   0.37088   0.00000  Uiso   1.00
C561   C     0.21392   0.76368   0.01253   0.00000  Uiso   1.00
C562   C     0.19069   0.80786   0.08110   0.00000  Uiso   1.00
C563   C     0.13907   0.90161   0.43581   0.00000  Uiso   1.00
C564   C     0.25167   0.76677   0.07697   0.00000  Uiso   1.00
C565   C     0.29047   0.80018   0.07251   0.00000  Uiso   1.00
C566   C     0.31351   0.79498   0.30205   0.00000  Uiso   1.00
C567   C     0.00441   0.77521   0.32904   0.00000  Uiso   1.00
C568   C     0.20114   0.67406   0.18569   0.00000  Uiso   1.00
C569   C     0.15847   0.88886   0.00236   0.00000  Uiso   1.00
C570   C     0.22216   0.97788   0.14734   0.00000  Uiso   1.00
C571   C     0.17130   0.71986   0.43998   0.00000  Uiso   1.00
C572   C     0.24267   0.73247   0.48524   0.00000  Uiso   1.00
C573   C     0.22621   0.68762   0.49861   0.00000  Uiso   1.00
C574   C     0.12301   0.84119   0.09014   0.00000  Uiso   1.00
C575   C     0.08626   0.80541   0.09660   0.00000  Uiso   1.00
C576   C     0.12383   0.76693   0.40487   0.00000  Uiso   1.00
C577   C     0.02336   0.87012   0.20133   0.00000  Uiso   1.00
C578   C     0.02857   0.91568   0.21925   0.00000  Uiso   1.00
C579   C     0.15800   0.84591   0.48899   0.00000  Uiso   1.00
C580   C     0.14987   0.83100   0.44712   0.00000  Uiso   1.00
C581   C     0.16951   0.81827   0.01469   0.00000  Uiso   1.00
C582   C     0.18560   0.78125   0.49336   0.00000  Uiso   1.00
C583   C     0.17066   0.76358   0.45526   0.00000  Uiso   1.00
C584   C     0.14939   0.78765   0.43483   0.00000  Uiso   1.00
H585   H     0.13837   0.99951   0.29580   0.00000  Uiso   1.00
H586   H     0.02604   0.75426   0.30677   0.00000  Uiso   1.00
H587   H     0.02313   0.79974   0.34645   0.00000  Uiso   1.00
H588   H     0.31459   0.75634   0.35483   0.00000  Uiso   1.00
H589   H     0.29167   0.81427   0.32663   0.00000  Uiso   1.00
H590   H     0.29470   0.76881   0.28671   0.00000  Uiso   1.00
H591   H     0.24969   0.96666   0.15501   0.00000  Uiso   1.00
H592   H     0.19861   0.95119   0.14050   0.00000  Uiso   1.00
H593   H     0.23458   0.99506   0.11641   0.00000  Uiso   1.00
H594   H     0.17852   0.68861   0.17275   0.00000  Uiso   1.00
H595   H     0.22617   0.69924   0.19254   0.00000  Uiso   1.00
H596   H     0.13343   0.92406   0.41521   0.00000  Uiso   1.00
H597   H     0.23503   0.68135   0.02924   0.00000  Uiso   1.00
H598   H     0.19096   0.68142   0.00527   0.00000  Uiso   1.00
H599   H     0.24033   0.99858   0.47113   0.00000  Uiso   1.00
H600   H     0.24633   0.73403   0.44882   0.00000  Uiso   1.00
H601   H     0.27588   0.74111   0.48854   0.00000  Uiso   1.00
H602   H     0.08056   0.79271   0.06361   0.00000  Uiso   1.00
H603   H     0.09340   0.77990   0.11351   0.00000  Uiso   1.00
H604   H     0.05661   0.81690   0.11739   0.00000  Uiso   1.00
H605   H     0.12684   0.85514   0.12337   0.00000  Uiso   1.00
H606   H     0.11267   0.86605   0.07545   0.00000  Uiso   1.00
H607   H     0.16865   0.90201   0.03206   0.00000  Uiso   1.00
H608   H     0.33058   0.92776   0.22908   0.00000  Uiso   1.00
H609   H     0.04238   0.91887   0.24880   0.00000  Uiso   1.00
H610   H     0.05039   0.93478   0.19280   0.00000  Uiso   1.00
H611   H     0.05530   0.85952   0.18929   0.00000  Uiso   1.00
H612   H     0.01068   0.86794   0.17107   0.00000  Uiso   1.00
H613   H     0.14632   0.94847   0.48838   0.00000  Uiso   1.00
H614   H     0.30601   0.80451   0.03655   0.00000  Uiso   1.00
H615   H     0.28112   0.83042   0.08932   0.00000  Uiso   1.00
H616   H     0.31388   0.79038   0.08835   0.00000  Uiso   1.00
H617   H     0.23777   0.76108   0.11291   0.00000  Uiso   1.00
H618   H     0.26308   0.73705   0.06197   0.00000  Uiso   1.00
N619   N     0.17144   0.68509   0.42714   0.00000  Uiso   1.00
N620   N     0.10341   0.75035   0.38114   0.00000  Uiso   1.00
O621   O     0.16667   0.83333   0.25000   0.00000  Uiso   1.00
O622   O     0.15451   0.79304   0.15459   0.00000  Uiso   1.00
O623   O     0.12940   0.87058   0.34968   0.00000  Uiso   1.00
O624   O     0.20824   0.84425   0.14606   0.00000  Uiso   1.00
O625   O     0.17451   0.82546   0.34968   0.00000  Uiso   1.00
O626   O     0.17930   0.74686   0.28214   0.00000  Uiso   1.00
O627   O     0.14632   0.92751   0.27014   0.00000  Uiso   1.00
O628   O     0.07412   0.79958   0.23413   0.00000  Uiso   1.00
O629   O     0.26693   0.85939   0.21361   0.00000  Uiso   1.00
O630   O     0.07071   0.85544   0.28213   0.00000  Uiso   1.00
O631   O     0.25491   0.81892   0.27014   0.00000  Uiso   1.00
O632   O     0.13760   0.73610   0.23413   0.00000  Uiso   1.00
O633   O     0.20345   0.92286   0.21361   0.00000  Uiso   1.00
Zn634  Zn    0.19338   0.80661   0.28734   0.00000  Uiso   1.00
Zn635  Zn    0.13379   0.79124   0.21876   0.00000  Uiso   1.00
Zn636  Zn    0.21056   0.86442   0.20657   0.00000  Uiso   1.00
Zn637  Zn    0.12893   0.87106   0.28734   0.00000  Uiso   1.00
C638   C     0.38655   0.82626   0.25986   0.00000  Uiso   1.00
C639   C     0.49743   0.82550   0.06122   0.00000  Uiso   1.00
C640   C     0.55189   0.77972   0.05601   0.00000  Uiso   1.00
C641   C     0.61415   0.84035   0.24021   0.00000  Uiso   1.00
C642   C     0.47625   0.86006   0.41930   0.00000  Uiso   1.00
C643   C     0.65999   0.84292   0.23690   0.00000  Uiso   1.00
C644   C     0.34138   0.82234   0.26503   0.00000  Uiso   1.00
C645   C     0.51000   0.98819   0.22998   0.00000  Uiso   1.00
C646   C     0.48759   0.67839   0.26343   0.00000  Uiso   1.00
C647   C     0.48924   0.72258   0.26071   0.00000  Uiso   1.00
C648   C     0.50910   0.94432   0.23845   0.00000  Uiso   1.00
C649   C     0.48028   0.91586   0.47706   0.00000  Uiso   1.00
C650   C     0.51849   0.81486   0.12941   0.00000  Uiso   1.00
C651   C     0.48146   0.85067   0.37088   0.00000  Uiso   1.00
C652   C     0.54725   0.76368   0.01253   0.00000  Uiso   1.00
C653   C     0.52402   0.80786   0.08110   0.00000  Uiso   1.00
C654   C     0.47240   0.90161   0.43581   0.00000  Uiso   1.00
C655   C     0.58500   0.76677   0.07697   0.00000  Uiso   1.00
C656   C     0.62380   0.80018   0.07251   0.00000  Uiso   1.00
C657   C     0.64685   0.79498   0.30205   0.00000  Uiso   1.00
C658   C     0.33774   0.77521   0.32904   0.00000  Uiso   1.00
C659   C     0.53447   0.67406   0.18569   0.00000  Uiso   1.00
C660   C     0.49180   0.88886   0.00236   0.00000  Uiso   1.00
C661   C     0.55550   0.97788   0.14734   0.00000  Uiso   1.00
C662   C     0.50464   0.71986   0.43998   0.00000  Uiso   1.00
C663   C     0.57601   0.73247   0.48524   0.00000  Uiso   1.00
C664   C     0.55955   0.68762   0.49861   0.00000  Uiso   1.00
C665   C     0.45635   0.84119   0.09014   0.00000  Uiso   1.00
C666   C     0.41959   0.80541   0.09660   0.00000  Uiso   1.00
C667   C     0.45717   0.76693   0.40487   0.00000  Uiso   1.00
C668   C     0.35669   0.87012   0.20133   0.00000  Uiso   1.00
C669   C     0.36191   0.91568   0.21925   0.00000  Uiso   1.00
C670   C     0.49134   0.84591   0.48899   0.00000  Uiso   1.00
C671   C     0.48320   0.83100   0.44712   0.00000  Uiso   1.00
C672   C     0.50284   0.81827   0.01469   0.00000  Uiso   1.00
C673   C     0.51893   0.78125   0.49336   0.00000  Uiso   1.00
C674   C     0.50399   0.76358   0.45526   0.00000  Uiso   1.00
C675   C     0.48273   0.78765   0.43483   0.00000  Uiso   1.00
H676   H     0.47170   0.99951   0.29580   0.00000  Uiso   1.00
H677   H     0.35937   0.75426   0.30677   0.00000  Uiso   1.00
H678   H     0.35646   0.79974   0.34645   0.00000  Uiso   1.00
H679   H     0.64792   0.75634   0.35483   0.00000  Uiso   1.00
H680   H     0.62500   0.81427   0.32663   0.00000  Uiso   1.00
H681   H     0.62804   0.76881   0.28671   0.00000  Uiso   1.00
H682   H     0.58303   0.96666   0.15501   0.00000  Uiso   1.00
H683   H     0.53194   0.95119   0.14050   0.00000  Uiso   1.00
H684   H     0.56791   0.99506   0.11641   0.00000  Uiso   1.00
H685   H     0.51185   0.68861   0.17275   0.00000  Uiso   1.00
H686   H     0.55950   0.69924   0.19254   0.00000  Uiso   1.00
H687   H     0.46676   0.92406   0.41521   0.00000  Uiso   1.00
H688   H     0.56836   0.68135   0.02924   0.00000  Uiso   1.00
H689   H     0.52430   0.68142   0.00527   0.00000  Uiso   1.00
H690   H     0.57366   0.99858   0.47113   0.00000  Uiso   1.00
H691   H     0.57966   0.73403   0.44882   0.00000  Uiso   1.00
H692   H     0.60922   0.74111   0.48854   0.00000  Uiso   1.00
H693   H     0.41389   0.79271   0.06361   0.00000  Uiso   1.00
H694   H     0.42674   0.77990   0.11351   0.00000  Uiso   1.00
H695   H     0.38995   0.81690   0.11739   0.00000  Uiso   1.00
H696   H     0.46017   0.85514   0.12337   0.00000  Uiso   1.00
H697   H     0.44600   0.86605   0.07545   0.00000  Uiso   1.00
H698   H     0.50198   0.90201   0.03206   0.00000  Uiso   1.00
H699   H     0.66391   0.92776   0.22908   0.00000  Uiso   1.00
H700   H     0.37571   0.91887   0.24880   0.00000  Uiso   1.00
H701   H     0.38372   0.93478   0.19280   0.00000  Uiso   1.00
H702   H     0.38863   0.85952   0.18929   0.00000  Uiso   1.00
H703   H     0.34401   0.86794   0.17107   0.00000  Uiso   1.00
H704   H     0.47966   0.94847   0.48838   0.00000  Uiso   1.00
H705   H     0.63934   0.80451   0.03655   0.00000  Uiso   1.00
H706   H     0.61446   0.83042   0.08932   0.00000  Uiso   1.00
H707   H     0.64722   0.79038   0.08835   0.00000  Uiso   1.00
H708   H     0.57110   0.76108   0.11291   0.00000  Uiso   1.00
H709   H     0.59641   0.73705   0.06197   0.00000  Uiso   1.00
N710   N     0.50477   0.68509   0.42714   0.00000  Uiso   1.00
N711   N     0.43675   0.75035   0.38114   0.00000  Uiso   1.00
O712   O     0.50000   0.83333   0.25000   0.00000  Uiso   1.00
O713   O     0.48784   0.79304   0.15459   0.00000  Uiso   1.00
O714   O     0.46274   0.87058   0.34968   0.00000  Uiso   1.00
O715   O     0.54157   0.84425   0.14606   0.00000  Uiso   1.00
O716   O     0.50785   0.82546   0.34968   0.00000  Uiso   1.00
O717   O     0.51264   0.74686   0.28214   0.00000  Uiso   1.00
O718   O     0.47965   0.92751   0.27014   0.00000  Uiso   1.00
O719   O     0.40745   0.79958   0.23413   0.00000  Uiso   1.00
O720   O     0.60026   0.85939   0.21361   0.00000  Uiso   1.00
O721   O     0.40405   0.85544   0.28213   0.00000  Uiso   1.00
O722   O     0.58824   0.81892   0.27014   0.00000  Uiso   1.00
O723   O     0.47093   0.73610   0.23413   0.00000  Uiso   1.00
O724   O     0.53678   0.92286   0.21361   0.00000  Uiso   1.00
Zn725  Zn    0.52672   0.80661   0.28734   0.00000  Uiso   1.00
Zn726  Zn    0.46713   0.79124   0.21876   0.00000  Uiso   1.00
Zn727  Zn    0.54389   0.86442   0.20657   0.00000  Uiso   1.00
Zn728  Zn    0.46226   0.87106   0.28734   0.00000  Uiso   1.00
C729   C     0.71988   0.82626   0.25986   0.00000  Uiso   1.00
C730   C     0.83076   0.82550   0.06122   0.00000  Uiso   1.00
C731   C     0.88522   0.77972   0.05601   0.00000  Uiso   1.00
C732   C     0.94749   0.84035   0.24021   0.00000  Uiso   1.00
C733   C     0.80958   0.86006   0.41930   0.00000  Uiso   1.00
C734   C     0.99332   0.84292   0.23690   0.00000  Uiso   1.00
C735   C     0.67472   0.82234   0.26503   0.00000  Uiso   1.00
C736   C     0.84333   0.98819   0.22998   0.00000  Uiso   1.00
C737   C     0.82092   0.67839   0.26343   0.00000  Uiso   1.00
C738   C     0.82257   0.72258   0.26071   0.00000  Uiso   1.00
C739   C     0.84244   0.94432   0.23845   0.00000  Uiso   1.00
C740   C     0.81361   0.91586   0.47706   0.00000  Uiso   1.00
C741   C     0.85182   0.81486   0.12941   0.00000  Uiso   1.00
C742   C     0.81479   0.85067   0.37088   0.00000  Uiso   1.00
C743   C     0.88058   0.76368   0.01253   0.00000  Uiso   1.00
C744   C     0.85736   0.80786   0.08110   0.00000  Uiso   1.00
C745   C     0.80574   0.90161   0.43581   0.00000  Uiso   1.00
C746   C     0.91833   0.76677   0.07697   0.00000  Uiso   1.00
C747   C     0.95713   0.80018   0.07251   0.00000  Uiso   1.00
C748   C     0.98018   0.79498   0.30205   0.00000  Uiso   1.00
C749   C     0.67108   0.77521   0.32904   0.00000  Uiso   1.00
C750   C     0.86781   0.67406   0.18569   0.00000  Uiso   1.00
C751   C     0.82514   0.88886   0.00236   0.00000  Uiso   1.00
C752   C     0.88883   0.97788   0.14734   0.00000  Uiso   1.00
C753   C     0.83797   0.71986   0.43998   0.00000  Uiso   1.00
C754   C     0.90934   0.73247   0.48524   0.00000  Uiso   1.00
C755   C     0.89288   0.68762   0.49861   0.00000  Uiso   1.00
C756   C     0.78968   0.84119   0.09014   0.00000  Uiso   1.00
C757   C     0.75292   0.80541   0.09660   0.00000  Uiso   1.00
C758   C     0.79050   0.76693   0.40487   0.00000  Uiso   1.00
C759   C     0.69003   0.87012   0.20133   0.00000  Uiso   1.00
C760   C     0.69524   0.91568   0.21925   0.00000  Uiso   1.00
C761   C     0.82467   0.84591   0.48899   0.00000  Uiso   1.00
C762   C     0.81653   0.83100   0.44712   0.00000  Uiso   1.00
C763   C     0.83617   0.81827   0.01469   0.00000  Uiso   1.00
C764   C     0.85227   0.78125   0.49336   0.00000  Uiso   1.00
C765   C     0.83732   0.76358   0.45526   0.00000  Uiso   1.00
C766   C     0.81606   0.78765   0.43483   0.00000  Uiso   1.00
H767   H     0.80503   0.99951   0.29580   0.00000  Uiso   1.00
H768   H     0.69270   0.75426   0.30677   0.00000  Uiso   1.00
H769   H     0.68979   0.79974   0.34645   0.00000  Uiso   1.00
H770   H     0.98126   0.75634   0.35483   0.00000  Uiso   1.00
H771   H     0.95834   0.81427   0.32663   0.00000  Uiso   1.00
H772   H     0.96137   0.76881   0.28671   0.00000  Uiso   1.00
H773   H     0.91636   0.96666   0.15501   0.00000  Uiso   1.00
H774   H     0.86527   0.95119   0.14050   0.00000  Uiso   1.00
H775   H     0.90125   0.99506   0.11641   0.00000  Uiso   1.00
H776   H     0.84518   0.68861   0.17275   0.00000  Uiso   1.00
H777   H     0.89283   0.69924   0.19254   0.00000  Uiso   1.00
H778   H     0.80009   0.92406   0.41521   0.00000  Uiso   1.00
H779   H     0.90169   0.68135   0.02924   0.00000  Uiso   1.00
H780   H     0.85763   0.68142   0.00527   0.00000  Uiso   1.00
H781   H     0.90700   0.99858   0.47113   0.00000  Uiso   1.00
H782   H     0.91299   0.73403   0.44882   0.00000  Uiso   1.00
H783   H     0.94255   0.74111   0.48854   0.00000  Uiso   1.00
H784   H     0.74723   0.79271   0.06361   0.00000  Uiso   1.00
H785   H     0.76007   0.77990   0.11351   0.00000  Uiso   1.00
H786   H     0.72328   0.81690   0.11739   0.00000  Uiso   1.00
H787   H     0.79351   0.85514   0.12337   0.00000  Uiso   1.00
H788   H     0.77934   0.86605   0.07545   0.00000  Uiso   1.00
H789   H     0.83532   0.90201   0.03206   0.00000  Uiso   1.00
H790   H     0.99724   0.92776   0.22908   0.00000  Uiso   1.00
H791   H     0.70904   0.91887   0.24880   0.00000  Uiso   1.00
H792   H     0.71706   0.93478   0.19280   0.00000  Uiso   1.00
H793   H     0.72196   0.85952   0.18929   0.00000  Uiso   1.00
H794   H     0.67735   0.86794   0.17107   0.00000  Uiso   1.00
H795   H     0.81299   0.94847   0.48838   0.00000  Uiso   1.00
H796   H     0.97267   0.80451   0.03655   0.00000  Uiso   1.00
H797   H     0.94779   0.83042   0.08932   0.00000  Uiso   1.00
H798   H     0.98055   0.79038   0.08835   0.00000  Uiso   1.00
H799   H     0.90444   0.76108   0.11291   0.00000  Uiso   1.00
H800   H     0.92974   0.73705   0.06197   0.00000  Uiso   1.00
N801   N     0.83810   0.68509   0.42714   0.00000  Uiso   1.00
N802   N     0.77008   0.75035   0.38114   0.00000  Uiso   1.00
O803   O     0.83333   0.83333   0.25000   0.00000  Uiso   1.00
O804   O     0.82118   0.79304   0.15459   0.00000  Uiso   1.00
O805   O     0.79607   0.87058   0.34968   0.00000  Uiso   1.00
O806   O     0.87491   0.84425   0.14606   0.00000  Uiso   1.00
O807   O     0.84118   0.82546   0.34968   0.00000  Uiso   1.00
O808   O     0.84597   0.74686   0.28214   0.00000  Uiso   1.00
O809   O     0.81298   0.92751   0.27014   0.00000  Uiso   1.00
O810   O     0.74078   0.79958   0.23413   0.00000  Uiso   1.00
O811   O     0.93360   0.85939   0.21361   0.00000  Uiso   1.00
O812   O     0.73738   0.85544   0.28213   0.00000  Uiso   1.00
O813   O     0.92158   0.81892   0.27014   0.00000  Uiso   1.00
O814   O     0.80426   0.73610   0.23413   0.00000  Uiso   1.00
O815   O     0.87012   0.92286   0.21361   0.00000  Uiso   1.00
Zn816  Zn    0.86005   0.80661   0.28734   0.00000  Uiso   1.00
Zn817  Zn    0.80046   0.79124   0.21876   0.00000  Uiso   1.00
Zn818  Zn    0.87723   0.86442   0.20657   0.00000  Uiso   1.00
Zn819  Zn    0.79560   0.87106   0.28734   0.00000  Uiso   1.00
C820   C     0.05321   0.15959   0.75986   0.00000  Uiso   1.00
C821   C     0.16410   0.15883   0.56122   0.00000  Uiso   1.00
C822   C     0.21855   0.11306   0.55601   0.00000  Uiso   1.00
C823   C     0.28082   0.17368   0.74021   0.00000  Uiso   1.00
C824   C     0.14291   0.19339   0.91930   0.00000  Uiso   1.00
C825   C     0.32666   0.17626   0.73690   0.00000  Uiso   1.00
C826   C     0.00805   0.15568   0.76503   0.00000  Uiso   1.00
C827   C     0.17666   0.32152   0.72998   0.00000  Uiso   1.00
C828   C     0.15426   0.01172   0.76343   0.00000  Uiso   1.00
C829   C     0.15591   0.05592   0.76071   0.00000  Uiso   1.00
C830   C     0.17577   0.27766   0.73845   0.00000  Uiso   1.00
C831   C     0.14694   0.24919   0.97706   0.00000  Uiso   1.00
C832   C     0.18516   0.14819   0.62941   0.00000  Uiso   1.00
C833   C     0.14813   0.18400   0.87088   0.00000  Uiso   1.00
C834   C     0.21392   0.09701   0.51253   0.00000  Uiso   1.00
C835   C     0.19069   0.14119   0.58110   0.00000  Uiso   1.00
C836   C     0.13907   0.23494   0.93581   0.00000  Uiso   1.00
C837   C     0.25167   0.10011   0.57697   0.00000  Uiso   1.00
C838   C     0.29047   0.13352   0.57251   0.00000  Uiso   1.00
C839   C     0.31351   0.12831   0.80205   0.00000  Uiso   1.00
C840   C     0.00441   0.10855   0.82904   0.00000  Uiso   1.00
C841   C     0.20114   0.00739   0.68569   0.00000  Uiso   1.00
C842   C     0.15847   0.22220   0.50236   0.00000  Uiso   1.00
C843   C     0.22216   0.31121   0.64734   0.00000  Uiso   1.00
C844   C     0.17130   0.05320   0.93998   0.00000  Uiso   1.00
C845   C     0.24267   0.06580   0.98524   0.00000  Uiso   1.00
C846   C     0.22621   0.02095   0.99861   0.00000  Uiso   1.00
C847   C     0.12301   0.17452   0.59014   0.00000  Uiso   1.00
C848   C     0.08626   0.13874   0.59660   0.00000  Uiso   1.00
C849   C     0.12383   0.10026   0.90487   0.00000  Uiso   1.00
C850   C     0.02336   0.20345   0.70133   0.00000  Uiso   1.00
C851   C     0.02857   0.24901   0.71925   0.00000  Uiso   1.00
C852   C     0.15800   0.17924   0.98899   0.00000  Uiso   1.00
C853   C     0.14987   0.16433   0.94712   0.00000  Uiso   1.00
C854   C     0.16951   0.15161   0.51469   0.00000  Uiso   1.00
C855   C     0.18560   0.11459   0.99336   0.00000  Uiso   1.00
C856   C     0.17066   0.09692   0.95526   0.00000  Uiso   1.00
C857   C     0.14939   0.12098   0.93483   0.00000  Uiso   1.00
H858   H     0.13837   0.33284   0.79580   0.00000  Uiso   1.00
H859   H     0.02604   0.08759   0.80677   0.00000  Uiso   1.00
H860   H     0.02313   0.13308   0.84645   0.00000  Uiso   1.00
H861   H     0.31459   0.08968   0.85483   0.00000  Uiso   1.00
H862   H     0.29167   0.14760   0.82663   0.00000  Uiso   1.00
H863   H     0.29470   0.10215   0.78671   0.00000  Uiso   1.00
H864   H     0.24969   0.29999   0.65501   0.00000  Uiso   1.00
H865   H     0.19861   0.28452   0.64050   0.00000  Uiso   1.00
H866   H     0.23458   0.32840   0.61641   0.00000  Uiso   1.00
H867   H     0.17852   0.02194   0.67275   0.00000  Uiso   1.00
H868   H     0.22617   0.03258   0.69254   0.00000  Uiso   1.00
H869   H     0.13343   0.25740   0.91521   0.00000  Uiso   1.00
H870   H     0.23503   0.01468   0.52924   0.00000  Uiso   1.00
H871   H     0.19096   0.01475   0.50527   0.00000  Uiso   1.00
H872   H     0.24033   0.33192   0.97113   0.00000  Uiso   1.00
H873   H     0.24633   0.06736   0.94882   0.00000  Uiso   1.00
H874   H     0.27588   0.07445   0.98854   0.00000  Uiso   1.00
H875   H     0.08056   0.12605   0.56361   0.00000  Uiso   1.00
H876   H     0.09340   0.11323   0.61351   0.00000  Uiso   1.00
H877   H     0.05661   0.15023   0.61739   0.00000  Uiso   1.00
H878   H     0.12684   0.18847   0.62337   0.00000  Uiso   1.00
H879   H     0.11267   0.19938   0.57545   0.00000  Uiso   1.00
H880   H     0.16865   0.23535   0.53206   0.00000  Uiso   1.00
H881   H     0.33058   0.26109   0.72908   0.00000  Uiso   1.00
H882   H     0.04238   0.25220   0.74880   0.00000  Uiso   1.00
H883   H     0.05039   0.26812   0.69280   0.00000  Uiso   1.00
H884   H     0.05530   0.19286   0.68929   0.00000  Uiso   1.00
H885   H     0.01068   0.20127   0.67107   0.00000  Uiso   1.00
H886   H     0.14632   0.28180   0.98838   0.00000  Uiso   1.00
H887   H     0.30601   0.13785   0.53655   0.00000  Uiso   1.00
H888   H     0.28112   0.16376   0.58932   0.00000  Uiso   1.00
H889   H     0.31388   0.12371   0.58835   0.00000  Uiso   1.00
H890   H     0.23777   0.09441   0.61291   0.00000  Uiso   1.00
H891   H     0.26308   0.07039   0.56197   0.00000  Uiso   1.00
N892   N     0.17144   0.01842   0.92714   0.00000  Uiso   1.00
N893   N     0.10341   0.08368   0.88114   0.00000  Uiso   1.00
O894   O     0.16667   0.16667   0.75000   0.00000  Uiso   1.00
O895   O     0.15451   0.12637   0.65459   0.00000  Uiso   1.00
O896   O     0.12940   0.20391   0.84968   0.00000  Uiso   1.00
O897   O     0.20824   0.17759   0.64606   0.00000  Uiso   1.00
O898   O     0.17451   0.15880   0.84968   0.00000  Uiso   1.00
O899   O     0.17930   0.08019   0.78214   0.00000  Uiso   1.00
O900   O     0.14632   0.26085   0.77014   0.00000  Uiso   1.00
O901   O     0.07412   0.13291   0.73413   0.00000  Uiso   1.00
O902   O     0.26693   0.19272   0.71361   0.00000  Uiso   1.00
O903   O     0.07071   0.18878   0.78213   0.00000  Uiso   1.00
O904   O     0.25491   0.15226   0.77014   0.00000  Uiso   1.00
O905   O     0.13760   0.06944   0.73413   0.00000  Uiso   1.00
O906   O     0.20345   0.25620   0.71361   0.00000  Uiso   1.00
Zn907  Zn    0.19338   0.13994   0.78734   0.00000  Uiso   1.00
Zn908  Zn    0.13379   0.12458   0.71876   0.00000  Uiso   1.00
Zn909  Zn    0.21056   0.19775   0.70657   0.00000  Uiso   1.00
Zn910  Zn    0.12893   0.20439   0.78734   0.00000  Uiso   1.00
C911   C     0.38655   0.15959   0.75986   0.00000  Uiso   1.00
C912   C     0.49743   0.15883   0.56122   0.00000  Uiso   1.00
C913   C     0.55189   0.11306   0.55601   0.00000  Uiso   1.00
C914   C     0.61415   0.17368   0.74021   0.00000  Uiso   1.00
C915   C     0.47625   0.19339   0.91930   0.00000  Uiso   1.00
C916   C     0.65999   0.17626   0.73690   0.00000  Uiso   1.00
C917   C     0.34138   0.15568   0.76503   0.00000  Uiso   1.00
C918   C     0.51000   0.32152   0.72998   0.00000  Uiso   1.00
C919   C     0.48759   0.01172   0.76343   0.00000  Uiso   1.00
C920   C     0.48924   0.05592   0.76071   0.00000  Uiso   1.00
C921   C     0.50910   0.27766   0.73845   0.00000  Uiso   1.00
C922   C     0.48028   0.24919   0.97706   0.00000  Uiso   1.00
C923   C     0.51849   0.14819   0.62941   0.00000  Uiso   1.00
C924   C     0.48146   0.18400   0.87088   0.00000  Uiso   1.00
C925   C     0.54725   0.09701   0.51253   0.00000  Uiso   1.00
C926   C     0.52402   0.14119   0.58110   0.00000  Uiso   1.00
C927   C     0.47240   0.23494   0.93581   0.00000  Uiso   1.00
C928   C     0.58500   0.10011   0.57697   0.00000  Uiso   1.00
C929   C     0.62380   0.13352   0.57251   0.00000  Uiso   1.00
C930   C     0.64685   0.12831   0.80205   0.00000  Uiso   1.00
C931   C     0.33774   0.10855   0.82904   0.00000  Uiso   1.00
C932   C     0.53447   0.00739   0.68569   0.00000  Uiso   1.00
C933   C     0.49180   0.22220   0.50236   0.00000  Uiso   1.00
C934   C     0.55550   0.31121   0.64734   0.00000  Uiso   1.00
C935   C     0.50464   0.05320   0.93998   0.00000  Uiso   1.00
C936   C     0.57601   0.06580   0.98524   0.00000  Uiso   1.00
C937   C     0.55955   0.02095   0.99861   0.00000  Uiso   1.00
C938   C     0.45635   0.17452   0.59014   0.00000  Uiso   1.00
C939   C     0.41959   0.13874   0.59660   0.00000  Uiso   1.00
C940   C     0.45717   0.10026   0.90487   0.00000  Uiso   1.00
C941   C     0.35669   0.20345   0.70133   0.00000  Uiso   1.00
C942   C     0.36191   0.24901   0.71925   0.00000  Uiso   1.00
C943   C     0.49134   0.17924   0.98899   0.00000  Uiso   1.00
C944   C     0.48320   0.16433   0.94712   0.00000  Uiso   1.00
C945   C     0.50284   0.15161   0.51469   0.00000  Uiso   1.00
C946   C     0.51893   0.11459   0.99336   0.00000  Uiso   1.00
C947   C     0.50399   0.09692   0.95526   0.00000  Uiso   1.00
C948   C     0.48273   0.12098   0.93483   0.00000  Uiso   1.00
H949   H     0.47170   0.33284   0.79580   0.00000  Uiso   1.00
H950   H     0.35937   0.08759   0.80677   0.00000  Uiso   1.00
H951   H     0.35646   0.13308   0.84645   0.00000  Uiso   1.00
H952   H     0.64792   0.08968   0.85483   0.00000  Uiso   1.00
H953   H     0.62500   0.14760   0.82663   0.00000  Uiso   1.00
H954   H     0.62804   0.10215   0.78671   0.00000  Uiso   1.00
H955   H     0.58303   0.29999   0.65501   0.00000  Uiso   1.00
H956   H     0.53194   0.28452   0.64050   0.00000  Uiso   1.00
H957   H     0.56791   0.32840   0.61641   0.00000  Uiso   1.00
H958   H     0.51185   0.02194   0.67275   0.00000  Uiso   1.00
H959   H     0.55950   0.03258   0.69254   0.00000  Uiso   1.00
H960   H     0.46676   0.25740   0.91521   0.00000  Uiso   1.00
H961   H     0.56836   0.01468   0.52924   0.00000  Uiso   1.00
H962   H     0.52430   0.01475   0.50527   0.00000  Uiso   1.00
H963   H     0.57366   0.33192   0.97113   0.00000  Uiso   1.00
H964   H     0.57966   0.06736   0.94882   0.00000  Uiso   1.00
H965   H     0.60922   0.07445   0.98854   0.00000  Uiso   1.00
H966   H     0.41389   0.12605   0.56361   0.00000  Uiso   1.00
H967   H     0.42674   0.11323   0.61351   0.00000  Uiso   1.00
H968   H     0.38995   0.15023   0.61739   0.00000  Uiso   1.00
H969   H     0.46017   0.18847   0.62337   0.00000  Uiso   1.00
H970   H     0.44600   0.19938   0.57545   0.00000  Uiso   1.00
H971   H     0.50198   0.23535   0.53206   0.00000  Uiso   1.00
H972   H     0.66391   0.26109   0.72908   0.00000  Uiso   1.00
H973   H     0.37571   0.25220   0.74880   0.00000  Uiso   1.00
H974   H     0.38372   0.26812   0.69280   0.00000  Uiso   1.00
H975   H     0.38863   0.19286   0.68929   0.00000  Uiso   1.00
H976   H     0.34401   0.20127   0.67107   0.00000  Uiso   1.00
H977   H     0.47966   0.28180   0.98838   0.00000  Uiso   1.00
H978   H     0.63934   0.13785   0.53655   0.00000  Uiso   1.00
H979   H     0.61446   0.16376   0.58932   0.00000  Uiso   1.00
H980   H     0.64722   0.12371   0.58835   0.00000  Uiso   1.00
H981   H     0.57110   0.09441   0.61291   0.00000  Uiso   1.00
H982   H     0.59641   0.07039   0.56197   0.00000  Uiso   1.00
N983   N     0.50477   0.01842   0.92714   0.00000  Uiso   1.00
N984   N     0.43675   0.08368   0.88114   0.00000  Uiso   1.00
O985   O     0.50000   0.16667   0.75000   0.00000  Uiso   1.00
O986   O     0.48784   0.12637   0.65459   0.00000  Uiso   1.00
O987   O     0.46274   0.20391   0.84968   0.00000  Uiso   1.00
O988   O     0.54157   0.17759   0.64606   0.00000  Uiso   1.00
O989   O     0.50785   0.15880   0.84968   0.00000  Uiso   1.00
O990   O     0.51264   0.08019   0.78214   0.00000  Uiso   1.00
O991   O     0.47965   0.26085   0.77014   0.00000  Uiso   1.00
O992   O     0.40745   0.13291   0.73413   0.00000  Uiso   1.00
O993   O     0.60026   0.19272   0.71361   0.00000  Uiso   1.00
O994   O     0.40405   0.18878   0.78213   0.00000  Uiso   1.00
O995   O     0.58824   0.15226   0.77014   0.00000  Uiso   1.00
O996   O     0.47093   0.06944   0.73413   0.00000  Uiso   1.00
O997   O     0.53678   0.25620   0.71361   0.00000  Uiso   1.00
Zn998  Zn    0.52672   0.13994   0.78734   0.00000  Uiso   1.00
Zn999  Zn    0.46713   0.12458   0.71876   0.00000  Uiso   1.00
Zn1000 Zn    0.54389   0.19775   0.70657   0.00000  Uiso   1.00
Zn1001 Zn    0.46226   0.20439   0.78734   0.00000  Uiso   1.00
C1002  C     0.71988   0.15959   0.75986   0.00000  Uiso   1.00
C1003  C     0.83076   0.15883   0.56122   0.00000  Uiso   1.00
C1004  C     0.88522   0.11306   0.55601   0.00000  Uiso   1.00
C1005  C     0.94749   0.17368   0.74021   0.00000  Uiso   1.00
C1006  C     0.80958   0.19339   0.91930   0.00000  Uiso   1.00
C1007  C     0.99332   0.17626   0.73690   0.00000  Uiso   1.00
C1008  C     0.67472   0.15568   0.76503   0.00000  Uiso   1.00
C1009  C     0.84333   0.32152   0.72998   0.00000  Uiso   1.00
C1010  C     0.82092   0.01172   0.76343   0.00000  Uiso   1.00
C1011  C     0.82257   0.05592   0.76071   0.00000  Uiso   1.00
C1012  C     0.84244   0.27766   0.73845   0.00000  Uiso   1.00
C1013  C     0.81361   0.24919   0.97706   0.00000  Uiso   1.00
C1014  C     0.85182   0.14819   0.62941   0.00000  Uiso   1.00
C1015  C     0.81479   0.18400   0.87088   0.00000  Uiso   1.00
C1016  C     0.88058   0.09701   0.51253   0.00000  Uiso   1.00
C1017  C     0.85736   0.14119   0.58110   0.00000  Uiso   1.00
C1018  C     0.80574   0.23494   0.93581   0.00000  Uiso   1.00
C1019  C     0.91833   0.10011   0.57697   0.00000  Uiso   1.00
C1020  C     0.95713   0.13352   0.57251   0.00000  Uiso   1.00
C1021  C     0.98018   0.12831   0.80205   0.00000  Uiso   1.00
C1022  C     0.67108   0.10855   0.82904   0.00000  Uiso   1.00
C1023  C     0.86781   0.00739   0.68569   0.00000  Uiso   1.00
C1024  C     0.82514   0.22220   0.50236   0.00000  Uiso   1.00
C1025  C     0.88883   0.31121   0.64734   0.00000  Uiso   1.00
C1026  C     0.83797   0.05320   0.93998   0.00000  Uiso   1.00
C1027  C     0.90934   0.06580   0.98524   0.00000  Uiso   1.00
C1028  C     0.89288   0.02095   0.99861   0.00000  Uiso   1.00
C1029  C     0.78968   0.17452   0.59014   0.00000  Uiso   1.00
C1030  C     0.75292   0.13874   0.59660   0.00000  Uiso   1.00
C1031  C     0.79050   0.10026   0.90487   0.00000  Uiso   1.00
C1032  C     0.69003   0.20345   0.70133   0.00000  Uiso   1.00
C1033  C     0.69524   0.24901   0.71925   0.00000  Uiso   1.00
C1034  C     0.82467   0.17924   0.98899   0.00000  Uiso   1.00
C1035  C     0.81653   0.16433   0.94712   0.00000  Uiso   1.00
C1036  C     0.83617   0.15161   0.51469   0.00000  Uiso   1.00
C1037  C     0.85227   0.11459   0.99336   0.00000  Uiso   1.00
C1038  C     0.83732   0.09692   0.95526   0.00000  Uiso   1.00
C1039  C     0.81606   0.12098   0.93483   0.00000  Uiso   1.00
H1040  H     0.80503   0.33284   0.79580   0.00000  Uiso   1.00
H1041  H     0.69270   0.08759   0.80677   0.00000  Uiso   1.00
H1042  H     0.68979   0.13308   0.84645   0.00000  Uiso   1.00
H1043  H     0.98126   0.08968   0.85483   0.00000  Uiso   1.00
H1044  H     0.95834   0.14760   0.82663   0.00000  Uiso   1.00
H1045  H     0.96137   0.10215   0.78671   0.00000  Uiso   1.00
H1046  H     0.91636   0.29999   0.65501   0.00000  Uiso   1.00
H1047  H     0.86527   0.28452   0.64050   0.00000  Uiso   1.00
H1048  H     0.90125   0.32840   0.61641   0.00000  Uiso   1.00
H1049  H     0.84518   0.02194   0.67275   0.00000  Uiso   1.00
H1050  H     0.89283   0.03258   0.69254   0.00000  Uiso   1.00
H1051  H     0.80009   0.25740   0.91521   0.00000  Uiso   1.00
H1052  H     0.90169   0.01468   0.52924   0.00000  Uiso   1.00
H1053  H     0.85763   0.01475   0.50527   0.00000  Uiso   1.00
H1054  H     0.90700   0.33192   0.97113   0.00000  Uiso   1.00
H1055  H     0.91299   0.06736   0.94882   0.00000  Uiso   1.00
H1056  H     0.94255   0.07445   0.98854   0.00000  Uiso   1.00
H1057  H     0.74723   0.12605   0.56361   0.00000  Uiso   1.00
H1058  H     0.76007   0.11323   0.61351   0.00000  Uiso   1.00
H1059  H     0.72328   0.15023   0.61739   0.00000  Uiso   1.00
H1060  H     0.79351   0.18847   0.62337   0.00000  Uiso   1.00
H1061  H     0.77934   0.19938   0.57545   0.00000  Uiso   1.00
H1062  H     0.83532   0.23535   0.53206   0.00000  Uiso   1.00
H1063  H     0.99724   0.26109   0.72908   0.00000  Uiso   1.00
H1064  H     0.70904   0.25220   0.74880   0.00000  Uiso   1.00
H1065  H     0.71706   0.26812   0.69280   0.00000  Uiso   1.00
H1066  H     0.72196   0.19286   0.68929   0.00000  Uiso   1.00
H1067  H     0.67735   0.20127   0.67107   0.00000  Uiso   1.00
H1068  H     0.81299   0.28180   0.98838   0.00000  Uiso   1.00
H1069  H     0.97267   0.13785   0.53655   0.00000  Uiso   1.00
H1070  H     0.94779   0.16376   0.58932   0.00000  Uiso   1.00
H1071  H     0.98055   0.12371   0.58835   0.00000  Uiso   1.00
H1072  H     0.90444   0.09441   0.61291   0.00000  Uiso   1.00
H1073  H     0.92974   0.07039   0.56197   0.00000  Uiso   1.00
N1074  N     0.83810   0.01842   0.92714   0.00000  Uiso   1.00
N1075  N     0.77008   0.08368   0.88114   0.00000  Uiso   1.00
O1076  O     0.83333   0.16667   0.75000   0.00000  Uiso   1.00
O1077  O     0.82118   0.12637   0.65459   0.00000  Uiso   1.00
O1078  O     0.79607   0.20391   0.84968   0.00000  Uiso   1.00
O1079  O     0.87491   0.17759   0.64606   0.00000  Uiso   1.00
O1080  O     0.84118   0.15880   0.84968   0.00000  Uiso   1.00
O1081  O     0.84597   0.08019   0.78214   0.00000  Uiso   1.00
O1082  O     0.81298   0.26085   0.77014   0.00000  Uiso   1.00
O1083  O     0.74078   0.13291   0.73413   0.00000  Uiso   1.00
O1084  O     0.93360   0.19272   0.71361   0.00000  Uiso   1.00
O1085  O     0.73738   0.18878   0.78213   0.00000  Uiso   1.00
O1086  O     0.92158   0.15226   0.77014   0.00000  Uiso   1.00
O1087  O     0.80426   0.06944   0.73413   0.00000  Uiso   1.00
O1088  O     0.87012   0.25620   0.71361   0.00000  Uiso   1.00
Zn1089 Zn    0.86005   0.13994   0.78734   0.00000  Uiso   1.00
Zn1090 Zn    0.80046   0.12458   0.71876   0.00000  Uiso   1.00
Zn1091 Zn    0.87723   0.19775   0.70657   0.00000  Uiso   1.00
Zn1092 Zn    0.79560   0.20439   0.78734   0.00000  Uiso   1.00
C1093  C     0.05321   0.49293   0.75986   0.00000  Uiso   1.00
C1094  C     0.16410   0.49216   0.56122   0.00000  Uiso   1.00
C1095  C     0.21855   0.44639   0.55601   0.00000  Uiso   1.00
C1096  C     0.28082   0.50702   0.74021   0.00000  Uiso   1.00
C1097  C     0.14291   0.52673   0.91930   0.00000  Uiso   1.00
C1098  C     0.32666   0.50959   0.73690   0.00000  Uiso   1.00
C1099  C     0.00805   0.48901   0.76503   0.00000  Uiso   1.00
C1100  C     0.17666   0.65485   0.72998   0.00000  Uiso   1.00
C1101  C     0.15426   0.34505   0.76343   0.00000  Uiso   1.00
C1102  C     0.15591   0.38925   0.76071   0.00000  Uiso   1.00
C1103  C     0.17577   0.61099   0.73845   0.00000  Uiso   1.00
C1104  C     0.14694   0.58253   0.97706   0.00000  Uiso   1.00
C1105  C     0.18516   0.48152   0.62941   0.00000  Uiso   1.00
C1106  C     0.14813   0.51733   0.87088   0.00000  Uiso   1.00
C1107  C     0.21392   0.43035   0.51253   0.00000  Uiso   1.00
C1108  C     0.19069   0.47453   0.58110   0.00000  Uiso   1.00
C1109  C     0.13907   0.56828   0.93581   0.00000  Uiso   1.00
C1110  C     0.25167   0.43344   0.57697   0.00000  Uiso   1.00
C1111  C     0.29047   0.46685   0.57251   0.00000  Uiso   1.00
C1112  C     0.31351   0.46164   0.80205   0.00000  Uiso   1.00
C1113  C     0.00441   0.44188   0.82904   0.00000  Uiso   1.00
C1114  C     0.20114   0.34072   0.68569   0.00000  Uiso   1.00
C1115  C     0.15847   0.55553   0.50236   0.00000  Uiso   1.00
C1116  C     0.22216   0.64454   0.64734   0.00000  Uiso   1.00
C1117  C     0.17130   0.38653   0.93998   0.00000  Uiso   1.00
C1118  C     0.24267   0.39914   0.98524   0.00000  Uiso   1.00
C1119  C     0.22621   0.35429   0.99861   0.00000  Uiso   1.00
C1120  C     0.12301   0.50785   0.59014   0.00000  Uiso   1.00
C1121  C     0.08626   0.47207   0.59660   0.00000  Uiso   1.00
C1122  C     0.12383   0.43359   0.90487   0.00000  Uiso   1.00
C1123  C     0.02336   0.53678   0.70133   0.00000  Uiso   1.00
C1124  C     0.02857   0.58235   0.71925   0.00000  Uiso   1.00
C1125  C     0.15800   0.51257   0.98899   0.00000  Uiso   1.00
C1126  C     0.14987   0.49767   0.94712   0.00000  Uiso   1.00
C1127  C     0.16951   0.48494   0.51469   0.00000  Uiso   1.00
C1128  C     0.18560   0.44792   0.99336   0.00000  Uiso   1.00
C1129  C     0.17066   0.43025   0.95526   0.00000  Uiso   1.00
C1130  C     0.14939   0.45431   0.93483   0.00000  Uiso   1.00
H1131  H     0.13837   0.66617   0.79580   0.00000  Uiso   1.00
H1132  H     0.02604   0.42092   0.80677   0.00000  Uiso   1.00
H1133  H     0.02313   0.46641   0.84645   0.00000  Uiso   1.00
H1134  H     0.31459   0.42301   0.85483   0.00000  Uiso   1.00
H1135  H     0.29167   0.48094   0.82663   0.00000  Uiso   1.00
H1136  H     0.29470   0.43548   0.78671   0.00000  Uiso   1.00
H1137  H     0.24969   0.63333   0.65501   0.00000  Uiso   1.00
H1138  H     0.19861   0.61786   0.64050   0.00000  Uiso   1.00
H1139  H     0.23458   0.66173   0.61641   0.00000  Uiso   1.00
H1140  H     0.17852   0.35527   0.67275   0.00000  Uiso   1.00
H1141  H     0.22617   0.36591   0.69254   0.00000  Uiso   1.00
H1142  H     0.13343   0.59073   0.91521   0.00000  Uiso   1.00
H1143  H     0.23503   0.34801   0.52924   0.00000  Uiso   1.00
H1144  H     0.19096   0.34809   0.50527   0.00000  Uiso   1.00
H1145  H     0.24033   0.66525   0.97113   0.00000  Uiso   1.00
H1146  H     0.24633   0.40069   0.94882   0.00000  Uiso   1.00
H1147  H     0.27588   0.40778   0.98854   0.00000  Uiso   1.00
H1148  H     0.08056   0.45938   0.56361   0.00000  Uiso   1.00
H1149  H     0.09340   0.44656   0.61351   0.00000  Uiso   1.00
H1150  H     0.05661   0.48357   0.61739   0.00000  Uiso   1.00
H1151  H     0.12684   0.52181   0.62337   0.00000  Uiso   1.00
H1152  H     0.11267   0.53272   0.57545   0.00000  Uiso   1.00
H1153  H     0.16865   0.56868   0.53206   0.00000  Uiso   1.00
H1154  H     0.33058   0.59442   0.72908   0.00000  Uiso   1.00
H1155  H     0.04238   0.58554   0.74880   0.00000  Uiso   1.00
H1156  H     0.05039   0.60145   0.69280   0.00000  Uiso   1.00
H1157  H     0.05530   0.52619   0.68929   0.00000  Uiso   1.00
H1158  H     0.01068   0.53460   0.67107   0.00000  Uiso   1.00
H1159  H     0.14632   0.61514   0.98838   0.00000  Uiso   1.00
H1160  H     0.30601   0.47118   0.53655   0.00000  Uiso   1.00
H1161  H     0.28112   0.49709   0.58932   0.00000  Uiso   1.00
H1162  H     0.31388   0.45705   0.58835   0.00000  Uiso   1.00
H1163  H     0.23777   0.42775   0.61291   0.00000  Uiso   1.00
H1164  H     0.26308   0.40372   0.56197   0.00000  Uiso   1.00
N1165  N     0.17144   0.35176   0.92714   0.00000  Uiso   1.00
N1166  N     0.10341   0.41701   0.88114   0.00000  Uiso   1.00
O1167  O     0.16667   0.50000   0.75000   0.00000  Uiso   1.00
O1168  O     0.15451   0.45970   0.65459   0.00000  Uiso   1.00
O1169  O     0.12940   0.53724   0.84968   0.00000  Uiso   1.00
O1170  O     0.20824   0.51092   0.64606   0.00000  Uiso   1.00
O1171  O     0.17451   0.49213   0.84968   0.00000  Uiso   1.00
O1172  O     0.17930   0.41352   0.78214   0.00000  Uiso   1.00
O1173  O     0.14632   0.59418   0.77014   0.00000  Uiso   1.00
O1174  O     0.07412   0.46625   0.73413   0.00000  Uiso   1.00
O1175  O     0.26693   0.52605   0.71361   0.00000  Uiso   1.00
O1176  O     0.07071   0.52211   0.78213   0.00000  Uiso   1.00
O1177  O     0.25491   0.48559   0.77014   0.00000  Uiso   1.00
O1178  O     0.13760   0.40277   0.73413   0.00000  Uiso   1.00
O1179  O     0.20345   0.58953   0.71361   0.00000  Uiso   1.00
Zn1180 Zn    0.19338   0.47327   0.78734   0.00000  Uiso   1.00
Zn1181 Zn    0.13379   0.45791   0.71876   0.00000  Uiso   1.00
Zn1182 Zn    0.21056   0.53109   0.70657   0.00000  Uiso   1.00
Zn1183 Zn    0.12893   0.53773   0.78734   0.00000  Uiso   1.00
C1184  C     0.38655   0.49293   0.75986   0.00000  Uiso   1.00
C1185  C     0.49743   0.49216   0.56122   0.00000  Uiso   1.00
C1186  C     0.55189   0.44639   0.55601   0.00000  Uiso   1.00
C1187  C     0.61415   0.50702   0.74021   0.00000  Uiso   1.00
C1188  C     0.47625   0.52673   0.91930   0.00000  Uiso   1.00
C1189  C     0.65999   0.50959   0.73690   0.00000  Uiso   1.00
C1190  C     0.34138   0.48901   0.76503   0.00000  Uiso   1.00
C1191  C     0.51000   0.65485   0.72998   0.00000  Uiso   1.00
C1192  C     0.48759   0.34505   0.76343   0.00000  Uiso   1.00
C1193  C     0.48924   0.38925   0.76071   0.00000  Uiso   1.00
C1194  C     0.50910   0.61099   0.73845   0.00000  Uiso   1.00
C1195  C     0.48028   0.58253   0.97706   0.00000  Uiso   1.00
C1196  C     0.51849   0.48152   0.62941   0.00000  Uiso   1.00
C1197  C     0.48146   0.51733   0.87088   0.00000  Uiso   1.00
C1198  C     0.54725   0.43035   0.51253   0.00000  Uiso   1.00
C1199  C     0.52402   0.47453   0.58110   0.00000  Uiso   1.00
C1200  C     0.47240   0.56828   0.93581   0.00000  Uiso   1.00
C1201  C     0.58500   0.43344   0.57697   0.00000  Uiso   1.00
C1202  C     0.62380   0.46685   0.57251   0.00000  Uiso   1.00
C1203  C     0.64685   0.46164   0.80205   0.00000  Uiso   1.00
C1204  C     0.33774   0.44188   0.82904   0.00000  Uiso   1.00
C1205  C     0.53447   0.34072   0.68569   0.00000  Uiso   1.00
C1206  C     0.49180   0.55553   0.50236   0.00000  Uiso   1.00
C1207  C     0.55550   0.64454   0.64734   0.00000  Uiso   1.00
C1208  C     0.50464   0.38653   0.93998   0.00000  Uiso   1.00
C1209  C     0.57601   0.39914   0.98524   0.00000  Uiso   1.00
C1210  C     0.55955   0.35429   0.99861   0.00000  Uiso   1.00
C1211  C     0.45635   0.50785   0.59014   0.00000  Uiso   1.00
C1212  C     0.41959   0.47207   0.59660   0.00000  Uiso   1.00
C1213  C     0.45717   0.43359   0.90487   0.00000  Uiso   1.00
C1214  C     0.35669   0.53678   0.70133   0.00000  Uiso   1.00
C1215  C     0.36191   0.58235   0.71925   0.00000  Uiso   1.00
C1216  C     0.49134   0.51257   0.98899   0.00000  Uiso   1.00
C1217  C     0.48320   0.49767   0.94712   0.00000  Uiso   1.00
C1218  C     0.50284   0.48494   0.51469   0.00000  Uiso   1.00
C1219  C     0.51893   0.44792   0.99336   0.00000  Uiso   1.00
C1220  C     0.50399   0.43025   0.95526   0.00000  Uiso   1.00
C1221  C     0.48273   0.45431   0.93483   0.00000  Uiso   1.00
H1222  H     0.47170   0.66617   0.79580   0.00000  Uiso   1.00
H1223  H     0.35937   0.42092   0.80677   0.00000  Uiso   1.00
H1224  H     0.35646   0.46641   0.84645   0.00000  Uiso   1.00
H1225  H     0.64792   0.42301   0.85483   0.00000  Uiso   1.00
H1226  H     0.62500   0.48094   0.82663   0.00000  Uiso   1.00
H1227  H     0.62804   0.43548   0.78671   0.00000  Uiso   1.00
H1228  H     0.58303   0.63333   0.65501   0.00000  Uiso   1.00
H1229  H     0.53194   0.61786   0.64050   0.00000  Uiso   1.00
H1230  H     0.56791   0.66173   0.61641   0.00000  Uiso   1.00
H1231  H     0.51185   0.35527   0.67275   0.00000  Uiso   1.00
H1232  H     0.55950   0.36591   0.69254   0.00000  Uiso   1.00
H1233  H     0.46676   0.59073   0.91521   0.00000  Uiso   1.00
H1234  H     0.56836   0.34801   0.52924   0.00000  Uiso   1.00
H1235  H     0.52430   0.34809   0.50527   0.00000  Uiso   1.00
H1236  H     0.57366   0.66525   0.97113   0.00000  Uiso   1.00
H1237  H     0.57966   0.40069   0.94882   0.00000  Uiso   1.00
H1238  H     0.60922   0.40778   0.98854   0.00000  Uiso   1.00
H1239  H     0.41389   0.45938   0.56361   0.00000  Uiso   1.00
H1240  H     0.42674   0.44656   0.61351   0.00000  Uiso   1.00
H1241  H     0.38995   0.48357   0.61739   0.00000  Uiso   1.00
H1242  H     0.46017   0.52181   0.62337   0.00000  Uiso   1.00
H1243  H     0.44600   0.53272   0.57545   0.00000  Uiso   1.00
H1244  H     0.50198   0.56868   0.53206   0.00000  Uiso   1.00
H1245  H     0.66391   0.59442   0.72908   0.00000  Uiso   1.00
H1246  H     0.37571   0.58554   0.74880   0.00000  Uiso   1.00
H1247  H     0.38372   0.60145   0.69280   0.00000  Uiso   1.00
H1248  H     0.38863   0.52619   0.68929   0.00000  Uiso   1.00
H1249  H     0.34401   0.53460   0.67107   0.00000  Uiso   1.00
H1250  H     0.47966   0.61514   0.98838   0.00000  Uiso   1.00
H1251  H     0.63934   0.47118   0.53655   0.00000  Uiso   1.00
H1252  H     0.61446   0.49709   0.58932   0.00000  Uiso   1.00
H1253  H     0.64722   0.45705   0.58835   0.00000  Uiso   1.00
H1254  H     0.57110   0.42775   0.61291   0.00000  Uiso   1.00
H1255  H     0.59641   0.40372   0.56197   0.00000  Uiso   1.00
N1256  N     0.50477   0.35176   0.92714   0.00000  Uiso   1.00
N1257  N     0.43675   0.41701   0.88114   0.00000  Uiso   1.00
O1258  O     0.50000   0.50000   0.75000   0.00000  Uiso   1.00
O1259  O     0.48784   0.45970   0.65459   0.00000  Uiso   1.00
O1260  O     0.46274   0.53724   0.84968   0.00000  Uiso   1.00
O1261  O     0.54157   0.51092   0.64606   0.00000  Uiso   1.00
O1262  O     0.50785   0.49213   0.84968   0.00000  Uiso   1.00
O1263  O     0.51264   0.41352   0.78214   0.00000  Uiso   1.00
O1264  O     0.47965   0.59418   0.77014   0.00000  Uiso   1.00
O1265  O     0.40745   0.46625   0.73413   0.00000  Uiso   1.00
O1266  O     0.60026   0.52605   0.71361   0.00000  Uiso   1.00
O1267  O     0.40405   0.52211   0.78213   0.00000  Uiso   1.00
O1268  O     0.58824   0.48559   0.77014   0.00000  Uiso   1.00
O1269  O     0.47093   0.40277   0.73413   0.00000  Uiso   1.00
O1270  O     0.53678   0.58953   0.71361   0.00000  Uiso   1.00
Zn1271 Zn    0.52672   0.47327   0.78734   0.00000  Uiso   1.00
Zn1272 Zn    0.46713   0.45791   0.71876   0.00000  Uiso   1.00
Zn1273 Zn    0.54389   0.53109   0.70657   0.00000  Uiso   1.00
Zn1274 Zn    0.46226   0.53773   0.78734   0.00000  Uiso   1.00
C1275  C     0.71988   0.49293   0.75986   0.00000  Uiso   1.00
C1276  C     0.83076   0.49216   0.56122   0.00000  Uiso   1.00
C1277  C     0.88522   0.44639   0.55601   0.00000  Uiso   1.00
C1278  C     0.94749   0.50702   0.74021   0.00000  Uiso   1.00
C1279  C     0.80958   0.52673   0.91930   0.00000  Uiso   1.00
C1280  C     0.99332   0.50959   0.73690   0.00000  Uiso   1.00
C1281  C     0.67472   0.48901   0.76503   0.00000  Uiso   1.00
C1282  C     0.84333   0.65485   0.72998   0.00000  Uiso   1.00
C1283  C     0.82092   0.34505   0.76343   0.00000  Uiso   1.00
C1284  C     0.82257   0.38925   0.76071   0.00000  Uiso   1.00
C1285  C     0.84244   0.61099   0.73845   0.00000  Uiso   1.00
C1286  C     0.81361   0.58253   0.97706   0.00000  Uiso   1.00
C1287  C     0.85182   0.48152   0.62941   0.00000  Uiso   1.00
C1288  C     0.81479   0.51733   0.87088   0.00000  Uiso   1.00
C1289  C     0.88058   0.43035   0.51253   0.00000  Uiso   1.00
C1290  C     0.85736   0.47453   0.58110   0.00000  Uiso   1.00
C1291  C     0.80574   0.56828   0.93581   0.00000  Uiso   1.00
C1292  C     0.91833   0.43344   0.57697   0.00000  Uiso   1.00
C1293  C     0.95713   0.46685   0.57251   0.00000  Uiso   1.00
C1294  C     0.98018   0.46164   0.80205   0.00000  Uiso   1.00
C1295  C     0.67108   0.44188   0.82904   0.00000  Uiso   1.00
C1296  C     0.86781   0.34072   0.68569   0.00000  Uiso   1.00
C1297  C     0.82514   0.55553   0.50236   0.00000  Uiso   1.00
C1298  C     0.88883   0.64454   0.64734   0.00000  Uiso   1.00
C1299  C     0.83797   0.38653   0.93998   0.00000  Uiso   1.00
C1300  C     0.90934   0.39914   0.98524   0.00000  Uiso   1.00
C1301  C     0.89288   0.35429   0.99861   0.00000  Uiso   1.00
C1302  C     0.78968   0.50785   0.59014   0.00000  Uiso   1.00
C1303  C     0.75292   0.47207   0.59660   0.00000  Uiso   1.00
C1304  C     0.79050   0.43359   0.90487   0.00000  Uiso   1.00
C1305  C     0.69003   0.53678   0.70133   0.00000  Uiso   1.00
C1306  C     0.69524   0.58235   0.71925   0.00000  Uiso   1.00
C1307  C     0.82467   0.51257   0.98899   0.00000  Uiso   1.00
C1308  C     0.81653   0.49767   0.94712   0.00000  Uiso   1.00
C1309  C     0.83617   0.48494   0.51469   0.00000  Uiso   1.00
C1310  C     0.85227   0.44792   0.99336   0.00000  Uiso   1.00
C1311  C     0.83732   0.43025   0.95526   0.00000  Uiso   1.00
C1312  C     0.81606   0.45431   0.93483   0.00000  Uiso   1.00
H1313  H     0.80503   0.66617   0.79580   0.00000  Uiso   1.00
H1314  H     0.69270   0.42092   0.80677   0.00000  Uiso   1.00
H1315  H     0.68979   0.46641   0.84645   0.00000  Uiso   1.00
H1316  H     0.98126   0.42301   0.85483   0.00000  Uiso   1.00
H1317  H     0.95834   0.48094   0.82663   0.00000  Uiso   1.00
H1318  H     0.96137   0.43548   0.78671   0.00000  Uiso   1.00
H1319  H     0.91636   0.63333   0.65501   0.00000  Uiso   1.00
H1320  H     0.86527   0.61786   0.64050   0.00000  Uiso   1.00
H1321  H     0.90125   0.66173   0.61641   0.00000  Uiso   1.00
H1322  H     0.84518   0.35527   0.67275   0.00000  Uiso   1.00
H1323  H     0.89283   0.36591   0.69254   0.00000  Uiso   1.00
H1324  H     0.80009   0.59073   0.91521   0.00000  Uiso   1.00
H1325  H     0.90169   0.34801   0.52924   0.00000  Uiso   1.00
H1326  H     0.85763   0.34809   0.50527   0.00000  Uiso   1.00
H1327  H     0.90700   0.66525   0.97113   0.00000  Uiso   1.00
H1328  H     0.91299   0.40069   0.94882   0.00000  Uiso   1.00
H1329  H     0.94255   0.40778   0.98854   0.00000  Uiso   1.00
H1330  H     0.74723   0.45938   0.56361   0.00000  Uiso   1.00
H1331  H     0.76007   0.44656   0.61351   0.00000  Uiso   1.00
H1332  H     0.72328   0.48357   0.61739   0.00000  Uiso   1.00
H1333  H     0.79351   0.52181   0.62337   0.00000  Uiso   1.00
H1334  H     0.77934   0.53272   0.57545   0.00000  Uiso   1.00
H1335  H     0.83532   0.56868   0.53206   0.00000  Uiso   1.00
H1336  H     0.99724   0.59442   0.72908   0.00000  Uiso   1.00
H1337  H     0.70904   0.58554   0.74880   0.00000  Uiso   1.00
H1338  H     0.71706   0.60145   0.69280   0.00000  Uiso   1.00
H1339  H     0.72196   0.52619   0.68929   0.00000  Uiso   1.00
H1340  H     0.67735   0.53460   0.67107   0.00000  Uiso   1.00
H1341  H     0.81299   0.61514   0.98838   0.00000  Uiso   1.00
H1342  H     0.97267   0.47118   0.53655   0.00000  Uiso   1.00
H1343  H     0.94779   0.49709   0.58932   0.00000  Uiso   1.00
H1344  H     0.98055   0.45705   0.58835   0.00000  Uiso   1.00
H1345  H     0.90444   0.42775   0.61291   0.00000  Uiso   1.00
H1346  H     0.92974   0.40372   0.56197   0.00000  Uiso   1.00
N1347  N     0.83810   0.35176   0.92714   0.00000  Uiso   1.00
N1348  N     0.77008   0.41701   0.88114   0.00000  Uiso   1.00
O1349  O     0.83333   0.50000   0.75000   0.00000  Uiso   1.00
O1350  O     0.82118   0.45970   0.65459   0.00000  Uiso   1.00
O1351  O     0.79607   0.53724   0.84968   0.00000  Uiso   1.00
O1352  O     0.87491   0.51092   0.64606   0.00000  Uiso   1.00
O1353  O     0.84118   0.49213   0.84968   0.00000  Uiso   1.00
O1354  O     0.84597   0.41352   0.78214   0.00000  Uiso   1.00
O1355  O     0.81298   0.59418   0.77014   0.00000  Uiso   1.00
O1356  O     0.74078   0.46625   0.73413   0.00000  Uiso   1.00
O1357  O     0.93360   0.52605   0.71361   0.00000  Uiso   1.00
O1358  O     0.73738   0.52211   0.78213   0.00000  Uiso   1.00
O1359  O     0.92158   0.48559   0.77014   0.00000  Uiso   1.00
O1360  O     0.80426   0.40277   0.73413   0.00000  Uiso   1.00
O1361  O     0.87012   0.58953   0.71361   0.00000  Uiso   1.00
Zn1362 Zn    0.86005   0.47327   0.78734   0.00000  Uiso   1.00
Zn1363 Zn    0.80046   0.45791   0.71876   0.00000  Uiso   1.00
Zn1364 Zn    0.87723   0.53109   0.70657   0.00000  Uiso   1.00
Zn1365 Zn    0.79560   0.53773   0.78734   0.00000  Uiso   1.00
C1366  C     0.05321   0.82626   0.75986   0.00000  Uiso   1.00
C1367  C     0.16410   0.82550   0.56122   0.00000  Uiso   1.00
C1368  C     0.21855   0.77972   0.55601   0.00000  Uiso   1.00
C1369  C     0.28082   0.84035   0.74021   0.00000  Uiso   1.00
C1370  C     0.14291   0.86006   0.91930   0.00000  Uiso   1.00
C1371  C     0.32666   0.84292   0.73690   0.00000  Uiso   1.00
C1372  C     0.00805   0.82234   0.76503   0.00000  Uiso   1.00
C1373  C     0.17666   0.98819   0.72998   0.00000  Uiso   1.00
C1374  C     0.15426   0.67839   0.76343   0.00000  Uiso   1.00
C1375  C     0.15591   0.72258   0.76071   0.00000  Uiso   1.00
C1376  C     0.17577   0.94432   0.73845   0.00000  Uiso   1.00
C1377  C     0.14694   0.91586   0.97706   0.00000  Uiso   1.00
C1378  C     0.18516   0.81486   0.62941   0.00000  Uiso   1.00
C1379  C     0.14813   0.85067   0.87088   0.00000  Uiso   1.00
C1380  C     0.21392   0.76368   0.51253   0.00000  Uiso   1.00
C1381  C     0.19069   0.80786   0.58110   0.00000  Uiso   1.00
C1382  C     0.13907   0.90161   0.93581   0.00000  Uiso   1.00
C1383  C     0.25167   0.76677   0.57697   0.00000  Uiso   1.00
C1384  C     0.29047   0.80018   0.57251   0.00000  Uiso   1.00
C1385  C     0.31351   0.79498   0.80205   0.00000  Uiso   1.00
C1386  C     0.00441   0.77521   0.82904   0.00000  Uiso   1.00
C1387  C     0.20114   0.67406   0.68569   0.00000  Uiso   1.00
C1388  C     0.15847   0.88886   0.50236   0.00000  Uiso   1.00
C1389  C     0.22216   0.97788   0.64734   0.00000  Uiso   1.00
C1390  C     0.17130   0.71986   0.93998   0.00000  Uiso   1.00
C1391  C     0.24267   0.73247   0.98524   0.00000  Uiso   1.00
C1392  C     0.22621   0.68762   0.99861   0.00000  Uiso   1.00
C1393  C     0.12301   0.84119   0.59014   0.00000  Uiso   1.00
C1394  C     0.08626   0.80541   0.59660   0.00000  Uiso   1.00
C1395  C     0.12383   0.76693   0.90487   0.00000  Uiso   1.00
C1396  C     0.02336   0.87012   0.70133   0.00000  Uiso   1.00
C1397  C     0.02857   0.91568   0.71925   0.00000  Uiso   1.00
C1398  C     0.15800   0.84591   0.98899   0.00000  Uiso   1.00
C1399  C     0.14987   0.83100   0.94712   0.00000  Uiso   1.00
C1400  C     0.16951   0.81827   0.51469   0.00000  Uiso   1.00
C1401  C     0.18560   0.78125   0.99336   0.00000  Uiso   1.00
C1402  C     0.17066   0.76358   0.95526   0.00000  Uiso   1.00
C1403  C     0.14939   0.78765   0.93483   0.00000  Uiso   1.00
H1404  H     0.13837   0.99951   0.79580   0.00000  Uiso   1.00
H1405  H     0.02604   0.75426   0.80677   0.00000  Uiso   1.00
H1406  H     0.02313   0.79974   0.84645   0.00000  Uiso   1.00
H1407  H     0.31459   0.75634   0.85483   0.00000  Uiso   1.00
H1408  H     0.29167   0.81427   0.82663   0.00000  Uiso   1.00
H1409  H     0.29470   0.76881   0.78671   0.00000  Uiso   1.00
H1410  H     0.24969   0.96666   0.65501   0.00000  Uiso   1.00
H1411  H     0.19861   0.95119   0.64050   0.00000  Uiso   1.00
H1412  H     0.23458   0.99506   0.61641   0.00000  Uiso   1.00
H1413  H     0.17852   0.68861   0.67275   0.00000  Uiso   1.00
H1414  H     0.22617   0.69924   0.69254   0.00000  Uiso   1.00
H1415  H     0.13343   0.92406   0.91521   0.00000  Uiso   1.00
H1416  H     0.23503   0.68135   0.52924   0.00000  Uiso   1.00
H1417  H     0.19096   0.68142   0.50527   0.00000  Uiso   1.00
H1418  H     0.24033   0.99858   0.97113   0.00000  Uiso   1.00
H1419  H     0.24633   0.73403   0.94882   0.00000  Uiso   1.00
H1420  H     0.27588   0.74111   0.98854   0.00000  Uiso   1.00
H1421  H     0.08056   0.79271   0.56361   0.00000  Uiso   1.00
H1422  H     0.09340   0.77990   0.61351   0.00000  Uiso   1.00
H1423  H     0.05661   0.81690   0.61739   0.00000  Uiso   1.00
H1424  H     0.12684   0.85514   0.62337   0.00000  Uiso   1.00
H1425  H     0.11267   0.86605   0.57545   0.00000  Uiso   1.00
H1426  H     0.16865   0.90201   0.53206   0.00000  Uiso   1.00
H1427  H     0.33058   0.92776   0.72908   0.00000  Uiso   1.00
H1428  H     0.04238   0.91887   0.74880   0.00000  Uiso   1.00
H1429  H     0.05039   0.93478   0.69280   0.00000  Uiso   1.00
H1430  H     0.05530   0.85952   0.68929   0.00000  Uiso   1.00
H1431  H     0.01068   0.86794   0.67107   0.00000  Uiso   1.00
H1432  H     0.14632   0.94847   0.98838   0.00000  Uiso   1.00
H1433  H     0.30601   0.80451   0.53655   0.00000  Uiso   1.00
H1434  H     0.28112   0.83042   0.58932   0.00000  Uiso   1.00
H1435  H     0.31388   0.79038   0.58835   0.00000  Uiso   1.00
H1436  H     0.23777   0.76108   0.61291   0.00000  Uiso   1.00
H1437  H     0.26308   0.73705   0.56197   0.00000  Uiso   1.00
N1438  N     0.17144   0.68509   0.92714   0.00000  Uiso   1.00
N1439  N     0.10341   0.75035   0.88114   0.00000  Uiso   1.00
O1440  O     0.16667   0.83333   0.75000   0.00000  Uiso   1.00
O1441  O     0.15451   0.79304   0.65459   0.00000  Uiso   1.00
O1442  O     0.12940   0.87058   0.84968   0.00000  Uiso   1.00
O1443  O     0.20824   0.84425   0.64606   0.00000  Uiso   1.00
O1444  O     0.17451   0.82546   0.84968   0.00000  Uiso   1.00
O1445  O     0.17930   0.74686   0.78214   0.00000  Uiso   1.00
O1446  O     0.14632   0.92751   0.77014   0.00000  Uiso   1.00
O1447  O     0.07412   0.79958   0.73413   0.00000  Uiso   1.00
O1448  O     0.26693   0.85939   0.71361   0.00000  Uiso   1.00
O1449  O     0.07071   0.85544   0.78213   0.00000  Uiso   1.00
O1450  O     0.25491   0.81892   0.77014   0.00000  Uiso   1.00
O1451  O     0.13760   0.73610   0.73413   0.00000  Uiso   1.00
O1452  O     0.20345   0.92286   0.71361   0.00000  Uiso   1.00
Zn1453 Zn    0.19338   0.80661   0.78734   0.00000  Uiso   1.00
Zn1454 Zn    0.13379   0.79124   0.71876   0.00000  Uiso   1.00
Zn1455 Zn    0.21056   0.86442   0.70657   0.00000  Uiso   1.00
Zn1456 Zn    0.12893   0.87106   0.78734   0.00000  Uiso   1.00
C1457  C     0.38655   0.82626   0.75986   0.00000  Uiso   1.00
C1458  C     0.49743   0.82550   0.56122   0.00000  Uiso   1.00
C1459  C     0.55189   0.77972   0.55601   0.00000  Uiso   1.00
C1460  C     0.61415   0.84035   0.74021   0.00000  Uiso   1.00
C1461  C     0.47625   0.86006   0.91930   0.00000  Uiso   1.00
C1462  C     0.65999   0.84292   0.73690   0.00000  Uiso   1.00
C1463  C     0.34138   0.82234   0.76503   0.00000  Uiso   1.00
C1464  C     0.51000   0.98819   0.72998   0.00000  Uiso   1.00
C1465  C     0.48759   0.67839   0.76343   0.00000  Uiso   1.00
C1466  C     0.48924   0.72258   0.76071   0.00000  Uiso   1.00
C1467  C     0.50910   0.94432   0.73845   0.00000  Uiso   1.00
C1468  C     0.48028   0.91586   0.97706   0.00000  Uiso   1.00
C1469  C     0.51849   0.81486   0.62941   0.00000  Uiso   1.00
C1470  C     0.48146   0.85067   0.87088   0.00000  Uiso   1.00
C1471  C     0.54725   0.76368   0.51253   0.00000  Uiso   1.00
C1472  C     0.52402   0.80786   0.58110   0.00000  Uiso   1.00
C1473  C     0.47240   0.90161   0.93581   0.00000  Uiso   1.00
C1474  C     0.58500   0.76677   0.57697   0.00000  Uiso   1.00
C1475  C     0.62380   0.80018   0.57251   0.00000  Uiso   1.00
C1476  C     0.64685   0.79498   0.80205   0.00000  Uiso   1.00
C1477  C     0.33774   0.77521   0.82904   0.00000  Uiso   1.00
C1478  C     0.53447   0.67406   0.68569   0.00000  Uiso   1.00
C1479  C     0.49180   0.88886   0.50236   0.00000  Uiso   1.00
C1480  C     0.55550   0.97788   0.64734   0.00000  Uiso   1.00
C1481  C     0.50464   0.71986   0.93998   0.00000  Uiso   1.00
C1482  C     0.57601   0.73247   0.98524   0.00000  Uiso   1.00
C1483  C     0.55955   0.68762   0.99861   0.00000  Uiso   1.00
C1484  C     0.45635   0.84119   0.59014   0.00000  Uiso   1.00
C1485  C     0.41959   0.80541   0.59660   0.00000  Uiso   1.00
C1486  C     0.45717   0.76693   0.90487   0.00000  Uiso   1.00
C1487  C     0.35669   0.87012   0.70133   0.00000  Uiso   1.00
C1488  C     0.36191   0.91568   0.71925   0.00000  Uiso   1.00
C1489  C     0.49134   0.84591   0.98899   0.00000  Uiso   1.00
C1490  C     0.48320   0.83100   0.94712   0.00000  Uiso   1.00
C1491  C     0.50284   0.81827   0.51469   0.00000  Uiso   1.00
C1492  C     0.51893   0.78125   0.99336   0.00000  Uiso   1.00
C1493  C     0.50399   0.76358   0.95526   0.00000  Uiso   1.00
C1494  C     0.48273   0.78765   0.93483   0.00000  Uiso   1.00
H1495  H     0.47170   0.99951   0.79580   0.00000  Uiso   1.00
H1496  H     0.35937   0.75426   0.80677   0.00000  Uiso   1.00
H1497  H     0.35646   0.79974   0.84645   0.00000  Uiso   1.00
H1498  H     0.64792   0.75634   0.85483   0.00000  Uiso   1.00
H1499  H     0.62500   0.81427   0.82663   0.00000  Uiso   1.00
H1500  H     0.62804   0.76881   0.78671   0.00000  Uiso   1.00
H1501  H     0.58303   0.96666   0.65501   0.00000  Uiso   1.00
H1502  H     0.53194   0.95119   0.64050   0.00000  Uiso   1.00
H1503  H     0.56791   0.99506   0.61641   0.00000  Uiso   1.00
H1504  H     0.51185   0.68861   0.67275   0.00000  Uiso   1.00
H1505  H     0.55950   0.69924   0.69254   0.00000  Uiso   1.00
H1506  H     0.46676   0.92406   0.91521   0.00000  Uiso   1.00
H1507  H     0.56836   0.68135   0.52924   0.00000  Uiso   1.00
H1508  H     0.52430   0.68142   0.50527   0.00000  Uiso   1.00
H1509  H     0.57366   0.99858   0.97113   0.00000  Uiso   1.00
H1510  H     0.57966   0.73403   0.94882   0.00000  Uiso   1.00
H1511  H     0.60922   0.74111   0.98854   0.00000  Uiso   1.00
H1512  H     0.41389   0.79271   0.56361   0.00000  Uiso   1.00
H1513  H     0.42674   0.77990   0.61351   0.00000  Uiso   1.00
H1514  H     0.38995   0.81690   0.61739   0.00000  Uiso   1.00
H1515  H     0.46017   0.85514   0.62337   0.00000  Uiso   1.00
H1516  H     0.44600   0.86605   0.57545   0.00000  Uiso   1.00
H1517  H     0.50198   0.90201   0.53206   0.00000  Uiso   1.00
H1518  H     0.66391   0.92776   0.72908   0.00000  Uiso   1.00
H1519  H     0.37571   0.91887   0.74880   0.00000  Uiso   1.00
H1520  H     0.38372   0.93478   0.69280   0.00000  Uiso   1.00
H1521  H     0.38863   0.85952   0.68929   0.00000  Uiso   1.00
H1522  H     0.34401   0.86794   0.67107   0.00000  Uiso   1.00
H1523  H     0.47966   0.94847   0.98838   0.00000  Uiso   1.00
H1524  H     0.63934   0.80451   0.53655   0.00000  Uiso   1.00
H1525  H     0.61446   0.83042   0.58932   0.00000  Uiso   1.00
H1526  H     0.64722   0.79038   0.58835   0.00000  Uiso   1.00
H1527  H     0.57110   0.76108   0.61291   0.00000  Uiso   1.00
H1528  H     0.59641   0.73705   0.56197   0.00000  Uiso   1.00
N1529  N     0.50477   0.68509   0.92714   0.00000  Uiso   1.00
N1530  N     0.43675   0.75035   0.88114   0.00000  Uiso   1.00
O1531  O     0.50000   0.83333   0.75000   0.00000  Uiso   1.00
O1532  O     0.48784   0.79304   0.65459   0.00000  Uiso   1.00
O1533  O     0.46274   0.87058   0.84968   0.00000  Uiso   1.00
O1534  O     0.54157   0.84425   0.64606   0.00000  Uiso   1.00
O1535  O     0.50785   0.82546   0.84968   0.00000  Uiso   1.00
O1536  O     0.51264   0.74686   0.78214   0.00000  Uiso   1.00
O1537  O     0.47965   0.92751   0.77014   0.00000  Uiso   1.00
O1538  O     0.40745   0.79958   0.73413   0.00000  Uiso   1.00
O1539  O     0.60026   0.85939   0.71361   0.00000  Uiso   1.00
O1540  O     0.40405   0.85544   0.78213   0.00000  Uiso   1.00
O1541  O     0.58824   0.81892   0.77014   0.00000  Uiso   1.00
O1542  O     0.47093   0.73610   0.73413   0.00000  Uiso   1.00
O1543  O     0.53678   0.92286   0.71361   0.00000  Uiso   1.00
Zn1544 Zn    0.52672   0.80661   0.78734   0.00000  Uiso   1.00
Zn1545 Zn    0.46713   0.79124   0.71876   0.00000  Uiso   1.00
Zn1546 Zn    0.54389   0.86442   0.70657   0.00000  Uiso   1.00
Zn1547 Zn    0.46226   0.87106   0.78734   0.00000  Uiso   1.00
C1548  C     0.71988   0.82626   0.75986   0.00000  Uiso   1.00
C1549  C     0.83076   0.82550   0.56122   0.00000  Uiso   1.00
C1550  C     0.88522   0.77972   0.55601   0.00000  Uiso   1.00
C1551  C     0.94749   0.84035   0.74021   0.00000  Uiso   1.00
C1552  C     0.80958   0.86006   0.91930   0.00000  Uiso   1.00
C1553  C     0.99332   0.84292   0.73690   0.00000  Uiso   1.00
C1554  C     0.67472   0.82234   0.76503   0.00000  Uiso   1.00
C1555  C     0.84333   0.98819   0.72998   0.00000  Uiso   1.00
C1556  C     0.82092   0.67839   0.76343   0.00000  Uiso   1.00
C1557  C     0.82257   0.72258   0.76071   0.00000  Uiso   1.00
C1558  C     0.84244   0.94432   0.73845   0.00000  Uiso   1.00
C1559  C     0.81361   0.91586   0.97706   0.00000  Uiso   1.00
C1560  C     0.85182   0.81486   0.62941   0.00000  Uiso   1.00
C1561  C     0.81479   0.85067   0.87088   0.00000  Uiso   1.00
C1562  C     0.88058   0.76368   0.51253   0.00000  Uiso   1.00
C1563  C     0.85736   0.80786   0.58110   0.00000  Uiso   1.00
C1564  C     0.80574   0.90161   0.93581   0.00000  Uiso   1.00
C1565  C     0.91833   0.76677   0.57697   0.00000  Uiso   1.00
C1566  C     0.95713   0.80018   0.57251   0.00000  Uiso   1.00
C1567  C     0.98018   0.79498   0.80205   0.00000  Uiso   1.00
C1568  C     0.67108   0.77521   0.82904   0.00000  Uiso   1.00
C1569  C     0.86781   0.67406   0.68569   0.00000  Uiso   1.00
C1570  C     0.82514   0.88886   0.50236   0.00000  Uiso   1.00
C1571  C     0.88883   0.97788   0.64734   0.00000  Uiso   1.00
C1572  C     0.83797   0.71986   0.93998   0.00000  Uiso   1.00
C1573  C     0.90934   0.73247   0.98524   0.00000  Uiso   1.00
C1574  C     0.89288   0.68762   0.99861   0.00000  Uiso   1.00
C1575  C     0.78968   0.84119   0.59014   0.00000  Uiso   1.00
C1576  C     0.75292   0.80541   0.59660   0.00000  Uiso   1.00
C1577  C     0.79050   0.76693   0.90487   0.00000  Uiso   1.00
C1578  C     0.69003   0.87012   0.70133   0.00000  Uiso   1.00
C1579  C     0.69524   0.91568   0.71925   0.00000  Uiso   1.00
C1580  C     0.82467   0.84591   0.98899   0.00000  Uiso   1.00
C1581  C     0.81653   0.83100   0.94712   0.00000  Uiso   1.00
C1582  C     0.83617   0.81827   0.51469   0.00000  Uiso   1.00
C1583  C     0.85227   0.78125   0.99336   0.00000  Uiso   1.00
C1584  C     0.83732   0.76358   0.95526   0.00000  Uiso   1.00
C1585  C     0.81606   0.78765   0.93483   0.00000  Uiso   1.00
H1586  H     0.80503   0.99951   0.79580   0.00000  Uiso   1.00
H1587  H     0.69270   0.75426   0.80677   0.00000  Uiso   1.00
H1588  H     0.68979   0.79974   0.84645   0.00000  Uiso   1.00
H1589  H     0.98126   0.75634   0.85483   0.00000  Uiso   1.00
H1590  H     0.95834   0.81427   0.82663   0.00000  Uiso   1.00
H1591  H     0.96137   0.76881   0.78671   0.00000  Uiso   1.00
H1592  H     0.91636   0.96666   0.65501   0.00000  Uiso   1.00
H1593  H     0.86527   0.95119   0.64050   0.00000  Uiso   1.00
H1594  H     0.90125   0.99506   0.61641   0.00000  Uiso   1.00
H1595  H     0.84518   0.68861   0.67275   0.00000  Uiso   1.00
H1596  H     0.89283   0.69924   0.69254   0.00000  Uiso   1.00
H1597  H     0.80009   0.92406   0.91521   0.00000  Uiso   1.00
H1598  H     0.90169   0.68135   0.52924   0.00000  Uiso   1.00
H1599  H     0.85763   0.68142   0.50527   0.00000  Uiso   1.00
H1600  H     0.90700   0.99858   0.97113   0.00000  Uiso   1.00
H1601  H     0.91299   0.73403   0.94882   0.00000  Uiso   1.00
H1602  H     0.94255   0.74111   0.98854   0.00000  Uiso   1.00
H1603  H     0.74723   0.79271   0.56361   0.00000  Uiso   1.00
H1604  H     0.76007   0.77990   0.61351   0.00000  Uiso   1.00
H1605  H     0.72328   0.81690   0.61739   0.00000  Uiso   1.00
H1606  H     0.79351   0.85514   0.62337   0.00000  Uiso   1.00
H1607  H     0.77934   0.86605   0.57545   0.00000  Uiso   1.00
H1608  H     0.83532   0.90201   0.53206   0.00000  Uiso   1.00
H1609  H     0.99724   0.92776   0.72908   0.00000  Uiso   1.00
H1610  H     0.70904   0.91887   0.74880   0.00000  Uiso   1.00
H1611  H     0.71706   0.93478   0.69280   0.00000  Uiso   1.00
H1612  H     0.72196   0.85952   0.68929   0.00000  Uiso   1.00
H1613  H     0.67735   0.86794   0.67107   0.00000  Uiso   1.00
H1614  H     0.81299   0.94847   0.98838   0.00000  Uiso   1.00
H1615  H     0.97267   0.80451   0.53655   0.00000  Uiso   1.00
H1616  H     0.94779   0.83042   0.58932   0.00000  Uiso   1.00
H1617  H     0.98055   0.79038   0.58835   0.00000  Uiso   1.00
H1618  H     0.90444   0.76108   0.61291   0.00000  Uiso   1.00
H1619  H     0.92974   0.73705   0.56197   0.00000  Uiso   1.00
N1620  N     0.83810   0.68509   0.92714   0.00000  Uiso   1.00
N1621  N     0.77008   0.75035   0.88114   0.00000  Uiso   1.00
O1622  O     0.83333   0.83333   0.75000   0.00000  Uiso   1.00
O1623  O     0.82118   0.79304   0.65459   0.00000  Uiso   1.00
O1624  O     0.79607   0.87058   0.84968   0.00000  Uiso   1.00
O1625  O     0.87491   0.84425   0.64606   0.00000  Uiso   1.00
O1626  O     0.84118   0.82546   0.84968   0.00000  Uiso   1.00
O1627  O     0.84597   0.74686   0.78214   0.00000  Uiso   1.00
O1628  O     0.81298   0.92751   0.77014   0.00000  Uiso   1.00
O1629  O     0.74078   0.79958   0.73413   0.00000  Uiso   1.00
O1630  O     0.93360   0.85939   0.71361   0.00000  Uiso   1.00
O1631  O     0.73738   0.85544   0.78213   0.00000  Uiso   1.00
O1632  O     0.92158   0.81892   0.77014   0.00000  Uiso   1.00
O1633  O     0.80426   0.73610   0.73413   0.00000  Uiso   1.00
O1634  O     0.87012   0.92286   0.71361   0.00000  Uiso   1.00
Zn1635 Zn    0.86005   0.80661   0.78734   0.00000  Uiso   1.00
Zn1636 Zn    0.80046   0.79124   0.71876   0.00000  Uiso   1.00
Zn1637 Zn    0.87723   0.86442   0.70657   0.00000  Uiso   1.00
Zn1638 Zn    0.79560   0.87106   0.78734   0.00000  Uiso   1.00
loop_
_geom_bond_atom_site_label_1
_geom_bond_atom_site_label_2
_geom_bond_distance
_geom_bond_site_symmetry_2
_ccdc_geom_bond_type
C1     O84     1.267   .     A
C1     O82     1.267   .     A
C1     C7      1.433   .     S
C2     C35     1.403   .     A
C2     C16     1.404   .     A
C2     C28     1.535   .     S
C3     C18     1.529   .     S
C3     C15     1.429   .     A
C3     C16     1.416   .     A
C4     O83     1.287   .     A
C4     C6      1.468   .     S
C4     O85     1.268   .     A
C5     C17     1.404   .     A
C5     C34     1.423   .     A
C5     C14     1.468   .     S
C6     C98     1.371   .     S
C6     C122    1.528   .     S
C7     C188    1.371   1_455 S
C7     C202    1.536   1_455 S
C8     C11     1.471   .     S
C8     C282    1.343   .     S
C8     C295    1.538   .     S
C9     C10     1.439   .     S
C9     C554    1.343   1_545 S
C9     H585    1.087   1_545 S
C10    O80     1.273   .     A
C10    O86     1.282   .     A
C11    O87     1.271   .     A
C11    O81     1.284   .     A
C12    C17     1.386   .     A
C12    H67     1.082   .     S
C12    C842    1.387   .     S
C13    O76     1.268   .     A
C13    O78     1.276   .     A
C13    C16     1.456   .     S
C14    O77     1.283   .     A
C14    O79     1.286   .     A
C15    C845    1.525   1_554 S
C15    C855    1.435   1_554 S
C17    H50     1.084   .     S
C18    C19     1.527   .     S
C18    H72     1.101   .     S
C18    H71     1.110   .     S
C19    H68     1.111   .     S
C19    H69     1.109   .     S
C19    H70     1.111   .     S
C20    H44     1.112   .     S
C20    H43     1.112   .     S
C20    C98     1.536   .     S
C20    C112    1.534   .     S
C21    H41     1.111   .     S
C21    H40     1.111   .     S
C21    C202    1.534   1_455 S
C21    H224    1.111   1_455 S
C22    H48     1.111   .     S
C22    H49     1.112   .     S
C22    C554    1.538   1_545 S
C22    C570    1.529   1_545 S
C23    H61     1.083   .     S
C23    C831    1.387   1_554 S
C23    C852    1.412   1_554 S
C24    H45     1.110   .     S
C24    H47     1.111   .     S
C24    H46     1.111   .     S
C24    C295    1.529   .     S
C25    C37     1.451   .     S
C25    N73     1.158   .     T
C26    H55     1.110   .     S
C26    C27     1.535   .     S
C26    H54     1.108   .     S
C26    C834    1.525   .     S
C27    H870    1.107   .     S
C27    H871    1.109   .     S
C27    H599    1.110   1_545 S
C28    C29     1.529   .     S
C28    H60     1.103   .     S
C28    H59     1.109   .     S
C29    H58     1.109   .     S
C29    H57     1.109   .     S
C29    H56     1.111   .     S
C30    N74     1.158   .     T
C30    C38     1.455   .     S
C31    H66     1.111   .     S
C31    C32     1.526   .     S
C31    H65     1.109   .     S
C31    C188    1.528   1_455 S
C32    H64     1.110   .     S
C32    H63     1.110   .     S
C32    H244    1.111   1_455 S
C33    C34     1.412   .     A
C33    C842    1.412   .     S
C33    C854    1.411   .     S
C34    C38     1.419   .     A
C35    C852    1.411   1_554 S
C35    C855    1.416   1_554 S
C36    C37     1.426   .     A
C36    C854    1.416   .     S
C36    C834    1.435   .     S
C37    C38     1.413   .     A
H39    C282    1.087   .     S
H42    C112    1.111   .     S
H51    C846    1.107   1_554 S
H52    C846    1.109   1_554 S
H53    C300    1.110   .     S
H62    C123    1.111   .     S
O75    Zn90    1.931   .     S
O75    Zn91    1.945   .     S
O75    Zn89    1.944   .     S
O75    Zn88    1.956   .     S
O76    Zn89    1.929   .     S
O77    Zn91    1.936   .     S
O78    Zn90    1.935   .     S
O79    Zn88    1.930   .     S
O80    Zn88    1.925   .     S
O81    Zn91    1.924   .     S
O82    Zn89    1.941   .     S
O83    Zn90    1.947   .     S
O84    Zn91    1.941   .     S
O85    Zn88    1.935   .     S
O86    Zn89    1.931   .     S
O87    Zn90    1.931   .     S
C92    O175    1.267   .     A
C92    O173    1.267   .     A
C92    C98     1.433   .     S
C93    C126    1.403   .     A
C93    C107    1.404   .     A
C93    C119    1.535   .     S
C94    C109    1.529   .     S
C94    C106    1.429   .     A
C94    C107    1.416   .     A
C95    O174    1.287   .     A
C95    C97     1.468   .     S
C95    O176    1.268   .     A
C96    C108    1.404   .     A
C96    C125    1.423   .     A
C96    C105    1.468   .     S
C97    C189    1.371   .     S
C97    C213    1.528   .     S
C99    C102    1.471   .     S
C99    C373    1.343   .     S
C99    C386    1.538   .     S
C100   C101    1.439   .     S
C100   C645    1.343   1_545 S
C100   H676    1.087   1_545 S
C101   O171    1.273   .     A
C101   O177    1.282   .     A
C102   O178    1.271   .     A
C102   O172    1.284   .     A
C103   C108    1.386   .     A
C103   H158    1.082   .     S
C103   C933    1.387   .     S
C104   O167    1.268   .     A
C104   O169    1.276   .     A
C104   C107    1.456   .     S
C105   O168    1.283   .     A
C105   O170    1.286   .     A
C106   C936    1.525   1_554 S
C106   C946    1.435   1_554 S
C108   H141    1.084   .     S
C109   C110    1.527   .     S
C109   H163    1.101   .     S
C109   H162    1.110   .     S
C110   H159    1.111   .     S
C110   H160    1.109   .     S
C110   H161    1.111   .     S
C111   H135    1.112   .     S
C111   H134    1.112   .     S
C111   C189    1.536   .     S
C111   C203    1.534   .     S
C112   H132    1.111   .     S
C112   H131    1.111   .     S
C113   H139    1.111   .     S
C113   H140    1.112   .     S
C113   C645    1.538   1_545 S
C113   C661    1.529   1_545 S
C114   H152    1.083   .     S
C114   C922    1.387   1_554 S
C114   C943    1.412   1_554 S
C115   H136    1.110   .     S
C115   H138    1.111   .     S
C115   H137    1.111   .     S
C115   C386    1.529   .     S
C116   C128    1.451   .     S
C116   N164    1.158   .     T
C117   H146    1.110   .     S
C117   C118    1.535   .     S
C117   H145    1.108   .     S
C117   C925    1.525   .     S
C118   H961    1.107   .     S
C118   H962    1.109   .     S
C118   H690    1.110   1_545 S
C119   C120    1.529   .     S
C119   H151    1.103   .     S
C119   H150    1.109   .     S
C120   H149    1.109   .     S
C120   H148    1.109   .     S
C120   H147    1.111   .     S
C121   N165    1.158   .     T
C121   C129    1.455   .     S
C122   H157    1.111   .     S
C122   C123    1.526   .     S
C122   H156    1.109   .     S
C123   H155    1.110   .     S
C123   H154    1.110   .     S
C124   C125    1.412   .     A
C124   C933    1.412   .     S
C124   C945    1.411   .     S
C125   C129    1.419   .     A
C126   C943    1.411   1_554 S
C126   C946    1.416   1_554 S
C127   C128    1.426   .     A
C127   C945    1.416   .     S
C127   C925    1.435   .     S
C128   C129    1.413   .     A
H130   C373    1.087   .     S
H133   C203    1.111   .     S
H142   C937    1.107   1_554 S
H143   C937    1.109   1_554 S
H144   C391    1.110   .     S
H153   C214    1.111   .     S
O166   Zn181   1.931   .     S
O166   Zn182   1.945   .     S
O166   Zn180   1.944   .     S
O166   Zn179   1.956   .     S
O167   Zn180   1.929   .     S
O168   Zn182   1.936   .     S
O169   Zn181   1.935   .     S
O170   Zn179   1.930   .     S
O171   Zn179   1.925   .     S
O172   Zn182   1.924   .     S
O173   Zn180   1.941   .     S
O174   Zn181   1.947   .     S
O175   Zn182   1.941   .     S
O176   Zn179   1.935   .     S
O177   Zn180   1.931   .     S
O178   Zn181   1.931   .     S
C183   O266    1.267   .     A
C183   O264    1.267   .     A
C183   C189    1.433   .     S
C184   C217    1.403   .     A
C184   C198    1.404   .     A
C184   C210    1.535   .     S
C185   C200    1.529   .     S
C185   C197    1.429   .     A
C185   C198    1.416   .     A
C186   O265    1.287   .     A
C186   C188    1.468   .     S
C186   O267    1.268   .     A
C187   C199    1.404   .     A
C187   C216    1.423   .     A
C187   C196    1.468   .     S
C188   C7      1.371   1_655 S
C188   C31     1.528   1_655 S
C190   C193    1.471   .     S
C190   C464    1.343   .     S
C190   C477    1.538   .     S
C191   C192    1.439   .     S
C191   C736    1.343   1_545 S
C191   H767    1.087   1_545 S
C192   O262    1.273   .     A
C192   O268    1.282   .     A
C193   O269    1.271   .     A
C193   O263    1.284   .     A
C194   C199    1.386   .     A
C194   H249    1.082   .     S
C194   C1024   1.387   .     S
C195   O258    1.268   .     A
C195   O260    1.276   .     A
C195   C198    1.456   .     S
C196   O259    1.283   .     A
C196   O261    1.286   .     A
C197   C1027   1.525   1_554 S
C197   C1037   1.435   1_554 S
C199   H232    1.084   .     S
C200   C201    1.527   .     S
C200   H254    1.101   .     S
C200   H253    1.110   .     S
C201   H250    1.111   .     S
C201   H251    1.109   .     S
C201   H252    1.111   .     S
C202   H226    1.112   .     S
C202   H225    1.112   .     S
C202   C7      1.536   1_655 S
C202   C21     1.534   1_655 S
C203   H223    1.111   .     S
C203   H222    1.111   .     S
C204   H230    1.111   .     S
C204   H231    1.112   .     S
C204   C736    1.538   1_545 S
C204   C752    1.529   1_545 S
C205   H243    1.083   .     S
C205   C1013   1.387   1_554 S
C205   C1034   1.412   1_554 S
C206   H227    1.110   .     S
C206   H229    1.111   .     S
C206   H228    1.111   .     S
C206   C477    1.529   .     S
C207   C219    1.451   .     S
C207   N255    1.158   .     T
C208   H237    1.110   .     S
C208   C209    1.535   .     S
C208   H236    1.108   .     S
C208   C1016   1.525   .     S
C209   H1052   1.107   .     S
C209   H1053   1.109   .     S
C209   H781    1.110   1_545 S
C210   C211    1.529   .     S
C210   H242    1.103   .     S
C210   H241    1.109   .     S
C211   H240    1.109   .     S
C211   H239    1.109   .     S
C211   H238    1.111   .     S
C212   N256    1.158   .     T
C212   C220    1.455   .     S
C213   H248    1.111   .     S
C213   C214    1.526   .     S
C213   H247    1.109   .     S
C214   H246    1.110   .     S
C214   H245    1.110   .     S
C215   C216    1.412   .     A
C215   C1024   1.412   .     S
C215   C1036   1.411   .     S
C216   C220    1.419   .     A
C217   C1034   1.411   1_554 S
C217   C1037   1.416   1_554 S
C218   C219    1.426   .     A
C218   C1036   1.416   .     S
C218   C1016   1.435   .     S
C219   C220    1.413   .     A
H221   C464    1.087   .     S
H224   C21     1.111   1_655 S
H233   C1028   1.107   1_554 S
H234   C1028   1.109   1_554 S
H235   C482    1.110   .     S
H244   C32     1.111   1_655 S
O257   Zn272   1.931   .     S
O257   Zn273   1.945   .     S
O257   Zn271   1.944   .     S
O257   Zn270   1.956   .     S
O258   Zn271   1.929   .     S
O259   Zn273   1.936   .     S
O260   Zn272   1.935   .     S
O261   Zn270   1.930   .     S
O262   Zn270   1.925   .     S
O263   Zn273   1.924   .     S
O264   Zn271   1.941   .     S
O265   Zn272   1.947   .     S
O266   Zn273   1.941   .     S
O267   Zn270   1.935   .     S
O268   Zn271   1.931   .     S
O269   Zn272   1.931   .     S
C274   O357    1.267   .     A
C274   O355    1.267   .     A
C274   C280    1.433   .     S
C275   C308    1.403   .     A
C275   C289    1.404   .     A
C275   C301    1.535   .     S
C276   C291    1.529   .     S
C276   C288    1.429   .     A
C276   C289    1.416   .     A
C277   O356    1.287   .     A
C277   C279    1.468   .     S
C277   O358    1.268   .     A
C278   C290    1.404   .     A
C278   C307    1.423   .     A
C278   C287    1.468   .     S
C279   C371    1.371   .     S
C279   C395    1.528   .     S
C280   C461    1.371   1_455 S
C280   C475    1.536   1_455 S
C281   C284    1.471   .     S
C281   C555    1.343   .     S
C281   C568    1.538   .     S
C282   C283    1.439   .     S
C283   O353    1.273   .     A
C283   O359    1.282   .     A
C284   O360    1.271   .     A
C284   O354    1.284   .     A
C285   C290    1.386   .     A
C285   H340    1.082   .     S
C285   C1115   1.387   .     S
C286   O349    1.268   .     A
C286   O351    1.276   .     A
C286   C289    1.456   .     S
C287   O350    1.283   .     A
C287   O352    1.286   .     A
C288   C1118   1.525   1_554 S
C288   C1128   1.435   1_554 S
C290   H323    1.084   .     S
C291   C292    1.527   .     S
C291   H345    1.101   .     S
C291   H344    1.110   .     S
C292   H341    1.111   .     S
C292   H342    1.109   .     S
C292   H343    1.111   .     S
C293   H317    1.112   .     S
C293   H316    1.112   .     S
C293   C371    1.536   .     S
C293   C385    1.534   .     S
C294   H314    1.111   .     S
C294   H313    1.111   .     S
C294   C475    1.534   1_455 S
C294   H497    1.111   1_455 S
C295   H321    1.111   .     S
C295   H322    1.112   .     S
C296   H334    1.083   .     S
C296   C1104   1.387   1_554 S
C296   C1125   1.412   1_554 S
C297   H318    1.110   .     S
C297   H320    1.111   .     S
C297   H319    1.111   .     S
C297   C568    1.529   .     S
C298   C310    1.451   .     S
C298   N346    1.158   .     T
C299   H328    1.110   .     S
C299   C300    1.535   .     S
C299   H327    1.108   .     S
C299   C1107   1.525   .     S
C300   H1143   1.107   .     S
C300   H1144   1.109   .     S
C301   C302    1.529   .     S
C301   H333    1.103   .     S
C301   H332    1.109   .     S
C302   H331    1.109   .     S
C302   H330    1.109   .     S
C302   H329    1.111   .     S
C303   N347    1.158   .     T
C303   C311    1.455   .     S
C304   H339    1.111   .     S
C304   C305    1.526   .     S
C304   H338    1.109   .     S
C304   C461    1.528   1_455 S
C305   H337    1.110   .     S
C305   H336    1.110   .     S
C305   H517    1.111   1_455 S
C306   C307    1.412   .     A
C306   C1115   1.412   .     S
C306   C1127   1.411   .     S
C307   C311    1.419   .     A
C308   C1125   1.411   1_554 S
C308   C1128   1.416   1_554 S
C309   C310    1.426   .     A
C309   C1127   1.416   .     S
C309   C1107   1.435   .     S
C310   C311    1.413   .     A
H312   C555    1.087   .     S
H315   C385    1.111   .     S
H324   C1119   1.107   1_554 S
H325   C1119   1.109   1_554 S
H326   C573    1.110   .     S
H335   C396    1.111   .     S
O348   Zn363   1.931   .     S
O348   Zn364   1.945   .     S
O348   Zn362   1.944   .     S
O348   Zn361   1.956   .     S
O349   Zn362   1.929   .     S
O350   Zn364   1.936   .     S
O351   Zn363   1.935   .     S
O352   Zn361   1.930   .     S
O353   Zn361   1.925   .     S
O354   Zn364   1.924   .     S
O355   Zn362   1.941   .     S
O356   Zn363   1.947   .     S
O357   Zn364   1.941   .     S
O358   Zn361   1.935   .     S
O359   Zn362   1.931   .     S
O360   Zn363   1.931   .     S
C365   O448    1.267   .     A
C365   O446    1.267   .     A
C365   C371    1.433   .     S
C366   C399    1.403   .     A
C366   C380    1.404   .     A
C366   C392    1.535   .     S
C367   C382    1.529   .     S
C367   C379    1.429   .     A
C367   C380    1.416   .     A
C368   O447    1.287   .     A
C368   C370    1.468   .     S
C368   O449    1.268   .     A
C369   C381    1.404   .     A
C369   C398    1.423   .     A
C369   C378    1.468   .     S
C370   C462    1.371   .     S
C370   C486    1.528   .     S
C372   C375    1.471   .     S
C372   C646    1.343   .     S
C372   C659    1.538   .     S
C373   C374    1.439   .     S
C374   O444    1.273   .     A
C374   O450    1.282   .     A
C375   O451    1.271   .     A
C375   O445    1.284   .     A
C376   C381    1.386   .     A
C376   H431    1.082   .     S
C376   C1206   1.387   .     S
C377   O440    1.268   .     A
C377   O442    1.276   .     A
C377   C380    1.456   .     S
C378   O441    1.283   .     A
C378   O443    1.286   .     A
C379   C1209   1.525   1_554 S
C379   C1219   1.435   1_554 S
C381   H414    1.084   .     S
C382   C383    1.527   .     S
C382   H436    1.101   .     S
C382   H435    1.110   .     S
C383   H432    1.111   .     S
C383   H433    1.109   .     S
C383   H434    1.111   .     S
C384   H408    1.112   .     S
C384   H407    1.112   .     S
C384   C462    1.536   .     S
C384   C476    1.534   .     S
C385   H405    1.111   .     S
C385   H404    1.111   .     S
C386   H412    1.111   .     S
C386   H413    1.112   .     S
C387   H425    1.083   .     S
C387   C1195   1.387   1_554 S
C387   C1216   1.412   1_554 S
C388   H409    1.110   .     S
C388   H411    1.111   .     S
C388   H410    1.111   .     S
C388   C659    1.529   .     S
C389   C401    1.451   .     S
C389   N437    1.158   .     T
C390   H419    1.110   .     S
C390   C391    1.535   .     S
C390   H418    1.108   .     S
C390   C1198   1.525   .     S
C391   H1234   1.107   .     S
C391   H1235   1.109   .     S
C392   C393    1.529   .     S
C392   H424    1.103   .     S
C392   H423    1.109   .     S
C393   H422    1.109   .     S
C393   H421    1.109   .     S
C393   H420    1.111   .     S
C394   N438    1.158   .     T
C394   C402    1.455   .     S
C395   H430    1.111   .     S
C395   C396    1.526   .     S
C395   H429    1.109   .     S
C396   H428    1.110   .     S
C396   H427    1.110   .     S
C397   C398    1.412   .     A
C397   C1206   1.412   .     S
C397   C1218   1.411   .     S
C398   C402    1.419   .     A
C399   C1216   1.411   1_554 S
C399   C1219   1.416   1_554 S
C400   C401    1.426   .     A
C400   C1218   1.416   .     S
C400   C1198   1.435   .     S
C401   C402    1.413   .     A
H403   C646    1.087   .     S
H406   C476    1.111   .     S
H415   C1210   1.107   1_554 S
H416   C1210   1.109   1_554 S
H417   C664    1.110   .     S
H426   C487    1.111   .     S
O439   Zn454   1.931   .     S
O439   Zn455   1.945   .     S
O439   Zn453   1.944   .     S
O439   Zn452   1.956   .     S
O440   Zn453   1.929   .     S
O441   Zn455   1.936   .     S
O442   Zn454   1.935   .     S
O443   Zn452   1.930   .     S
O444   Zn452   1.925   .     S
O445   Zn455   1.924   .     S
O446   Zn453   1.941   .     S
O447   Zn454   1.947   .     S
O448   Zn455   1.941   .     S
O449   Zn452   1.935   .     S
O450   Zn453   1.931   .     S
O451   Zn454   1.931   .     S
C456   O539    1.267   .     A
C456   O537    1.267   .     A
C456   C462    1.433   .     S
C457   C490    1.403   .     A
C457   C471    1.404   .     A
C457   C483    1.535   .     S
C458   C473    1.529   .     S
C458   C470    1.429   .     A
C458   C471    1.416   .     A
C459   O538    1.287   .     A
C459   C461    1.468   .     S
C459   O540    1.268   .     A
C460   C472    1.404   .     A
C460   C489    1.423   .     A
C460   C469    1.468   .     S
C461   C280    1.371   1_655 S
C461   C304    1.528   1_655 S
C463   C466    1.471   .     S
C463   C737    1.343   .     S
C463   C750    1.538   .     S
C464   C465    1.439   .     S
C465   O535    1.273   .     A
C465   O541    1.282   .     A
C466   O542    1.271   .     A
C466   O536    1.284   .     A
C467   C472    1.386   .     A
C467   H522    1.082   .     S
C467   C1297   1.387   .     S
C468   O531    1.268   .     A
C468   O533    1.276   .     A
C468   C471    1.456   .     S
C469   O532    1.283   .     A
C469   O534    1.286   .     A
C470   C1300   1.525   1_554 S
C470   C1310   1.435   1_554 S
C472   H505    1.084   .     S
C473   C474    1.527   .     S
C473   H527    1.101   .     S
C473   H526    1.110   .     S
C474   H523    1.111   .     S
C474   H524    1.109   .     S
C474   H525    1.111   .     S
C475   H499    1.112   .     S
C475   H498    1.112   .     S
C475   C280    1.536   1_655 S
C475   C294    1.534   1_655 S
C476   H496    1.111   .     S
C476   H495    1.111   .     S
C477   H503    1.111   .     S
C477   H504    1.112   .     S
C478   H516    1.083   .     S
C478   C1286   1.387   1_554 S
C478   C1307   1.412   1_554 S
C479   H500    1.110   .     S
C479   H502    1.111   .     S
C479   H501    1.111   .     S
C479   C750    1.529   .     S
C480   C492    1.451   .     S
C480   N528    1.158   .     T
C481   H510    1.110   .     S
C481   C482    1.535   .     S
C481   H509    1.108   .     S
C481   C1289   1.525   .     S
C482   H1325   1.107   .     S
C482   H1326   1.109   .     S
C483   C484    1.529   .     S
C483   H515    1.103   .     S
C483   H514    1.109   .     S
C484   H513    1.109   .     S
C484   H512    1.109   .     S
C484   H511    1.111   .     S
C485   N529    1.158   .     T
C485   C493    1.455   .     S
C486   H521    1.111   .     S
C486   C487    1.526   .     S
C486   H520    1.109   .     S
C487   H519    1.110   .     S
C487   H518    1.110   .     S
C488   C489    1.412   .     A
C488   C1297   1.412   .     S
C488   C1309   1.411   .     S
C489   C493    1.419   .     A
C490   C1307   1.411   1_554 S
C490   C1310   1.416   1_554 S
C491   C492    1.426   .     A
C491   C1309   1.416   .     S
C491   C1289   1.435   .     S
C492   C493    1.413   .     A
H494   C737    1.087   .     S
H497   C294    1.111   1_655 S
H506   C1301   1.107   1_554 S
H507   C1301   1.109   1_554 S
H508   C755    1.110   .     S
H517   C305    1.111   1_655 S
O530   Zn545   1.931   .     S
O530   Zn546   1.945   .     S
O530   Zn544   1.944   .     S
O530   Zn543   1.956   .     S
O531   Zn544   1.929   .     S
O532   Zn546   1.936   .     S
O533   Zn545   1.935   .     S
O534   Zn543   1.930   .     S
O535   Zn543   1.925   .     S
O536   Zn546   1.924   .     S
O537   Zn544   1.941   .     S
O538   Zn545   1.947   .     S
O539   Zn546   1.941   .     S
O540   Zn543   1.935   .     S
O541   Zn544   1.931   .     S
O542   Zn545   1.931   .     S
C547   O630    1.267   .     A
C547   O628    1.267   .     A
C547   C553    1.433   .     S
C548   C581    1.403   .     A
C548   C562    1.404   .     A
C548   C574    1.535   .     S
C549   C564    1.529   .     S
C549   C561    1.429   .     A
C549   C562    1.416   .     A
C550   O629    1.287   .     A
C550   C552    1.468   .     S
C550   O631    1.268   .     A
C551   C563    1.404   .     A
C551   C580    1.423   .     A
C551   C560    1.468   .     S
C552   C644    1.371   .     S
C552   C668    1.528   .     S
C553   C734    1.371   1_455 S
C553   C748    1.536   1_455 S
C554   C557    1.471   .     S
C554   C9      1.343   1_565 S
C554   C22     1.538   1_565 S
C555   C556    1.439   .     S
C556   O626    1.273   .     A
C556   O632    1.282   .     A
C557   O633    1.271   .     A
C557   O627    1.284   .     A
C558   C563    1.386   .     A
C558   H613    1.082   .     S
C558   C1388   1.387   .     S
C559   O622    1.268   .     A
C559   O624    1.276   .     A
C559   C562    1.456   .     S
C560   O623    1.283   .     A
C560   O625    1.286   .     A
C561   C1391   1.525   1_554 S
C561   C1401   1.435   1_554 S
C563   H596    1.084   .     S
C564   C565    1.527   .     S
C564   H618    1.101   .     S
C564   H617    1.110   .     S
C565   H614    1.111   .     S
C565   H615    1.109   .     S
C565   H616    1.111   .     S
C566   H590    1.112   .     S
C566   H589    1.112   .     S
C566   C644    1.536   .     S
C566   C658    1.534   .     S
C567   H587    1.111   .     S
C567   H586    1.111   .     S
C567   C748    1.534   1_455 S
C567   H770    1.111   1_455 S
C568   H594    1.111   .     S
C568   H595    1.112   .     S
C569   H607    1.083   .     S
C569   C1377   1.387   1_554 S
C569   C1398   1.412   1_554 S
C570   H591    1.110   .     S
C570   H593    1.111   .     S
C570   H592    1.111   .     S
C570   C22     1.529   1_565 S
C571   C583    1.451   .     S
C571   N619    1.158   .     T
C572   H601    1.110   .     S
C572   C573    1.535   .     S
C572   H600    1.108   .     S
C572   C1380   1.525   .     S
C573   H1416   1.107   .     S
C573   H1417   1.109   .     S
C574   C575    1.529   .     S
C574   H606    1.103   .     S
C574   H605    1.109   .     S
C575   H604    1.109   .     S
C575   H603    1.109   .     S
C575   H602    1.111   .     S
C576   N620    1.158   .     T
C576   C584    1.455   .     S
C577   H612    1.111   .     S
C577   C578    1.526   .     S
C577   H611    1.109   .     S
C577   C734    1.528   1_455 S
C578   H610    1.110   .     S
C578   H609    1.110   .     S
C578   H790    1.111   1_455 S
C579   C580    1.412   .     A
C579   C1388   1.412   .     S
C579   C1400   1.411   .     S
C580   C584    1.419   .     A
C581   C1398   1.411   1_554 S
C581   C1401   1.416   1_554 S
C582   C583    1.426   .     A
C582   C1400   1.416   .     S
C582   C1380   1.435   .     S
C583   C584    1.413   .     A
H585   C9      1.087   1_565 S
H588   C658    1.111   .     S
H597   C1392   1.107   1_554 S
H598   C1392   1.109   1_554 S
H599   C27     1.110   1_565 S
H608   C669    1.111   .     S
O621   Zn636   1.931   .     S
O621   Zn637   1.945   .     S
O621   Zn635   1.944   .     S
O621   Zn634   1.956   .     S
O622   Zn635   1.929   .     S
O623   Zn637   1.936   .     S
O624   Zn636   1.935   .     S
O625   Zn634   1.930   .     S
O626   Zn634   1.925   .     S
O627   Zn637   1.924   .     S
O628   Zn635   1.941   .     S
O629   Zn636   1.947   .     S
O630   Zn637   1.941   .     S
O631   Zn634   1.935   .     S
O632   Zn635   1.931   .     S
O633   Zn636   1.931   .     S
C638   O721    1.267   .     A
C638   O719    1.267   .     A
C638   C644    1.433   .     S
C639   C672    1.403   .     A
C639   C653    1.404   .     A
C639   C665    1.535   .     S
C640   C655    1.529   .     S
C640   C652    1.429   .     A
C640   C653    1.416   .     A
C641   O720    1.287   .     A
C641   C643    1.468   .     S
C641   O722    1.268   .     A
C642   C654    1.404   .     A
C642   C671    1.423   .     A
C642   C651    1.468   .     S
C643   C735    1.371   .     S
C643   C759    1.528   .     S
C645   C648    1.471   .     S
C645   C100    1.343   1_565 S
C645   C113    1.538   1_565 S
C646   C647    1.439   .     S
C647   O717    1.273   .     A
C647   O723    1.282   .     A
C648   O724    1.271   .     A
C648   O718    1.284   .     A
C649   C654    1.386   .     A
C649   H704    1.082   .     S
C649   C1479   1.387   .     S
C650   O713    1.268   .     A
C650   O715    1.276   .     A
C650   C653    1.456   .     S
C651   O714    1.283   .     A
C651   O716    1.286   .     A
C652   C1482   1.525   1_554 S
C652   C1492   1.435   1_554 S
C654   H687    1.084   .     S
C655   C656    1.527   .     S
C655   H709    1.101   .     S
C655   H708    1.110   .     S
C656   H705    1.111   .     S
C656   H706    1.109   .     S
C656   H707    1.111   .     S
C657   H681    1.112   .     S
C657   H680    1.112   .     S
C657   C735    1.536   .     S
C657   C749    1.534   .     S
C658   H678    1.111   .     S
C658   H677    1.111   .     S
C659   H685    1.111   .     S
C659   H686    1.112   .     S
C660   H698    1.083   .     S
C660   C1468   1.387   1_554 S
C660   C1489   1.412   1_554 S
C661   H682    1.110   .     S
C661   H684    1.111   .     S
C661   H683    1.111   .     S
C661   C113    1.529   1_565 S
C662   C674    1.451   .     S
C662   N710    1.158   .     T
C663   H692    1.110   .     S
C663   C664    1.535   .     S
C663   H691    1.108   .     S
C663   C1471   1.525   .     S
C664   H1507   1.107   .     S
C664   H1508   1.109   .     S
C665   C666    1.529   .     S
C665   H697    1.103   .     S
C665   H696    1.109   .     S
C666   H695    1.109   .     S
C666   H694    1.109   .     S
C666   H693    1.111   .     S
C667   N711    1.158   .     T
C667   C675    1.455   .     S
C668   H703    1.111   .     S
C668   C669    1.526   .     S
C668   H702    1.109   .     S
C669   H701    1.110   .     S
C669   H700    1.110   .     S
C670   C671    1.412   .     A
C670   C1479   1.412   .     S
C670   C1491   1.411   .     S
C671   C675    1.419   .     A
C672   C1489   1.411   1_554 S
C672   C1492   1.416   1_554 S
C673   C674    1.426   .     A
C673   C1491   1.416   .     S
C673   C1471   1.435   .     S
C674   C675    1.413   .     A
H676   C100    1.087   1_565 S
H679   C749    1.111   .     S
H688   C1483   1.107   1_554 S
H689   C1483   1.109   1_554 S
H690   C118    1.110   1_565 S
H699   C760    1.111   .     S
O712   Zn727   1.931   .     S
O712   Zn728   1.945   .     S
O712   Zn726   1.944   .     S
O712   Zn725   1.956   .     S
O713   Zn726   1.929   .     S
O714   Zn728   1.936   .     S
O715   Zn727   1.935   .     S
O716   Zn725   1.930   .     S
O717   Zn725   1.925   .     S
O718   Zn728   1.924   .     S
O719   Zn726   1.941   .     S
O720   Zn727   1.947   .     S
O721   Zn728   1.941   .     S
O722   Zn725   1.935   .     S
O723   Zn726   1.931   .     S
O724   Zn727   1.931   .     S
C729   O812    1.267   .     A
C729   O810    1.267   .     A
C729   C735    1.433   .     S
C730   C763    1.403   .     A
C730   C744    1.404   .     A
C730   C756    1.535   .     S
C731   C746    1.529   .     S
C731   C743    1.429   .     A
C731   C744    1.416   .     A
C732   O811    1.287   .     A
C732   C734    1.468   .     S
C732   O813    1.268   .     A
C733   C745    1.404   .     A
C733   C762    1.423   .     A
C733   C742    1.468   .     S
C734   C553    1.371   1_655 S
C734   C577    1.528   1_655 S
C736   C739    1.471   .     S
C736   C191    1.343   1_565 S
C736   C204    1.538   1_565 S
C737   C738    1.439   .     S
C738   O808    1.273   .     A
C738   O814    1.282   .     A
C739   O815    1.271   .     A
C739   O809    1.284   .     A
C740   C745    1.386   .     A
C740   H795    1.082   .     S
C740   C1570   1.387   .     S
C741   O804    1.268   .     A
C741   O806    1.276   .     A
C741   C744    1.456   .     S
C742   O805    1.283   .     A
C742   O807    1.286   .     A
C743   C1573   1.525   1_554 S
C743   C1583   1.435   1_554 S
C745   H778    1.084   .     S
C746   C747    1.527   .     S
C746   H800    1.101   .     S
C746   H799    1.110   .     S
C747   H796    1.111   .     S
C747   H797    1.109   .     S
C747   H798    1.111   .     S
C748   H772    1.112   .     S
C748   H771    1.112   .     S
C748   C553    1.536   1_655 S
C748   C567    1.534   1_655 S
C749   H769    1.111   .     S
C749   H768    1.111   .     S
C750   H776    1.111   .     S
C750   H777    1.112   .     S
C751   H789    1.083   .     S
C751   C1559   1.387   1_554 S
C751   C1580   1.412   1_554 S
C752   H773    1.110   .     S
C752   H775    1.111   .     S
C752   H774    1.111   .     S
C752   C204    1.529   1_565 S
C753   C765    1.451   .     S
C753   N801    1.158   .     T
C754   H783    1.110   .     S
C754   C755    1.535   .     S
C754   H782    1.108   .     S
C754   C1562   1.525   .     S
C755   H1598   1.107   .     S
C755   H1599   1.109   .     S
C756   C757    1.529   .     S
C756   H788    1.103   .     S
C756   H787    1.109   .     S
C757   H786    1.109   .     S
C757   H785    1.109   .     S
C757   H784    1.111   .     S
C758   N802    1.158   .     T
C758   C766    1.455   .     S
C759   H794    1.111   .     S
C759   C760    1.526   .     S
C759   H793    1.109   .     S
C760   H792    1.110   .     S
C760   H791    1.110   .     S
C761   C762    1.412   .     A
C761   C1570   1.412   .     S
C761   C1582   1.411   .     S
C762   C766    1.419   .     A
C763   C1580   1.411   1_554 S
C763   C1583   1.416   1_554 S
C764   C765    1.426   .     A
C764   C1582   1.416   .     S
C764   C1562   1.435   .     S
C765   C766    1.413   .     A
H767   C191    1.087   1_565 S
H770   C567    1.111   1_655 S
H779   C1574   1.107   1_554 S
H780   C1574   1.109   1_554 S
H781   C209    1.110   1_565 S
H790   C578    1.111   1_655 S
O803   Zn818   1.931   .     S
O803   Zn819   1.945   .     S
O803   Zn817   1.944   .     S
O803   Zn816   1.956   .     S
O804   Zn817   1.929   .     S
O805   Zn819   1.936   .     S
O806   Zn818   1.935   .     S
O807   Zn816   1.930   .     S
O808   Zn816   1.925   .     S
O809   Zn819   1.924   .     S
O810   Zn817   1.941   .     S
O811   Zn818   1.947   .     S
O812   Zn819   1.941   .     S
O813   Zn816   1.935   .     S
O814   Zn817   1.931   .     S
O815   Zn818   1.931   .     S
C820   O903    1.267   .     A
C820   O901    1.267   .     A
C820   C826    1.433   .     S
C821   C854    1.403   .     A
C821   C835    1.404   .     A
C821   C847    1.535   .     S
C822   C837    1.529   .     S
C822   C834    1.429   .     A
C822   C835    1.416   .     A
C823   O902    1.287   .     A
C823   C825    1.468   .     S
C823   O904    1.268   .     A
C824   C836    1.404   .     A
C824   C853    1.423   .     A
C824   C833    1.468   .     S
C825   C917    1.371   .     S
C825   C941    1.528   .     S
C826   C1007   1.371   1_455 S
C826   C1021   1.536   1_455 S
C827   C830    1.471   .     S
C827   C1101   1.343   .     S
C827   C1114   1.538   .     S
C828   C829    1.439   .     S
C828   C1373   1.343   1_545 S
C828   H1404   1.087   1_545 S
C829   O899    1.273   .     A
C829   O905    1.282   .     A
C830   O906    1.271   .     A
C830   O900    1.284   .     A
C831   C836    1.386   .     A
C831   H886    1.082   .     S
C831   C23     1.387   1_556 S
C832   O895    1.268   .     A
C832   O897    1.276   .     A
C832   C835    1.456   .     S
C833   O896    1.283   .     A
C833   O898    1.286   .     A
C836   H869    1.084   .     S
C837   C838    1.527   .     S
C837   H891    1.101   .     S
C837   H890    1.110   .     S
C838   H887    1.111   .     S
C838   H888    1.109   .     S
C838   H889    1.111   .     S
C839   H863    1.112   .     S
C839   H862    1.112   .     S
C839   C917    1.536   .     S
C839   C931    1.534   .     S
C840   H860    1.111   .     S
C840   H859    1.111   .     S
C840   C1021   1.534   1_455 S
C840   H1043   1.111   1_455 S
C841   H867    1.111   .     S
C841   H868    1.112   .     S
C841   C1373   1.538   1_545 S
C841   C1389   1.529   1_545 S
C842   H880    1.083   .     S
C843   H864    1.110   .     S
C843   H866    1.111   .     S
C843   H865    1.111   .     S
C843   C1114   1.529   .     S
C844   C856    1.451   .     S
C844   N892    1.158   .     T
C845   H874    1.110   .     S
C845   C846    1.535   .     S
C845   H873    1.108   .     S
C845   C15     1.525   1_556 S
C846   H51     1.107   1_556 S
C846   H52     1.109   1_556 S
C846   H1418   1.110   1_545 S
C847   C848    1.529   .     S
C847   H879    1.103   .     S
C847   H878    1.109   .     S
C848   H877    1.109   .     S
C848   H876    1.109   .     S
C848   H875    1.111   .     S
C849   N893    1.158   .     T
C849   C857    1.455   .     S
C850   H885    1.111   .     S
C850   C851    1.526   .     S
C850   H884    1.109   .     S
C850   C1007   1.528   1_455 S
C851   H883    1.110   .     S
C851   H882    1.110   .     S
C851   H1063   1.111   1_455 S
C852   C853    1.412   .     A
C852   C23     1.412   1_556 S
C852   C35     1.411   1_556 S
C853   C857    1.419   .     A
C855   C856    1.426   .     A
C855   C35     1.416   1_556 S
C855   C15     1.435   1_556 S
C856   C857    1.413   .     A
H858   C1101   1.087   .     S
H861   C931    1.111   .     S
H872   C1119   1.110   .     S
H881   C942    1.111   .     S
O894   Zn909   1.931   .     S
O894   Zn910   1.945   .     S
O894   Zn908   1.944   .     S
O894   Zn907   1.956   .     S
O895   Zn908   1.929   .     S
O896   Zn910   1.936   .     S
O897   Zn909   1.935   .     S
O898   Zn907   1.930   .     S
O899   Zn907   1.925   .     S
O900   Zn910   1.924   .     S
O901   Zn908   1.941   .     S
O902   Zn909   1.947   .     S
O903   Zn910   1.941   .     S
O904   Zn907   1.935   .     S
O905   Zn908   1.931   .     S
O906   Zn909   1.931   .     S
C911   O994    1.267   .     A
C911   O992    1.267   .     A
C911   C917    1.433   .     S
C912   C945    1.403   .     A
C912   C926    1.404   .     A
C912   C938    1.535   .     S
C913   C928    1.529   .     S
C913   C925    1.429   .     A
C913   C926    1.416   .     A
C914   O993    1.287   .     A
C914   C916    1.468   .     S
C914   O995    1.268   .     A
C915   C927    1.404   .     A
C915   C944    1.423   .     A
C915   C924    1.468   .     S
C916   C1008   1.371   .     S
C916   C1032   1.528   .     S
C918   C921    1.471   .     S
C918   C1192   1.343   .     S
C918   C1205   1.538   .     S
C919   C920    1.439   .     S
C919   C1464   1.343   1_545 S
C919   H1495   1.087   1_545 S
C920   O990    1.273   .     A
C920   O996    1.282   .     A
C921   O997    1.271   .     A
C921   O991    1.284   .     A
C922   C927    1.386   .     A
C922   H977    1.082   .     S
C922   C114    1.387   1_556 S
C923   O986    1.268   .     A
C923   O988    1.276   .     A
C923   C926    1.456   .     S
C924   O987    1.283   .     A
C924   O989    1.286   .     A
C927   H960    1.084   .     S
C928   C929    1.527   .     S
C928   H982    1.101   .     S
C928   H981    1.110   .     S
C929   H978    1.111   .     S
C929   H979    1.109   .     S
C929   H980    1.111   .     S
C930   H954    1.112   .     S
C930   H953    1.112   .     S
C930   C1008   1.536   .     S
C930   C1022   1.534   .     S
C931   H951    1.111   .     S
C931   H950    1.111   .     S
C932   H958    1.111   .     S
C932   H959    1.112   .     S
C932   C1464   1.538   1_545 S
C932   C1480   1.529   1_545 S
C933   H971    1.083   .     S
C934   H955    1.110   .     S
C934   H957    1.111   .     S
C934   H956    1.111   .     S
C934   C1205   1.529   .     S
C935   C947    1.451   .     S
C935   N983    1.158   .     T
C936   H965    1.110   .     S
C936   C937    1.535   .     S
C936   H964    1.108   .     S
C936   C106    1.525   1_556 S
C937   H142    1.107   1_556 S
C937   H143    1.109   1_556 S
C937   H1509   1.110   1_545 S
C938   C939    1.529   .     S
C938   H970    1.103   .     S
C938   H969    1.109   .     S
C939   H968    1.109   .     S
C939   H967    1.109   .     S
C939   H966    1.111   .     S
C940   N984    1.158   .     T
C940   C948    1.455   .     S
C941   H976    1.111   .     S
C941   C942    1.526   .     S
C941   H975    1.109   .     S
C942   H974    1.110   .     S
C942   H973    1.110   .     S
C943   C944    1.412   .     A
C943   C114    1.412   1_556 S
C943   C126    1.411   1_556 S
C944   C948    1.419   .     A
C946   C947    1.426   .     A
C946   C126    1.416   1_556 S
C946   C106    1.435   1_556 S
C947   C948    1.413   .     A
H949   C1192   1.087   .     S
H952   C1022   1.111   .     S
H963   C1210   1.110   .     S
H972   C1033   1.111   .     S
O985   Zn1000  1.931   .     S
O985   Zn1001  1.945   .     S
O985   Zn999   1.944   .     S
O985   Zn998   1.956   .     S
O986   Zn999   1.929   .     S
O987   Zn1001  1.936   .     S
O988   Zn1000  1.935   .     S
O989   Zn998   1.930   .     S
O990   Zn998   1.925   .     S
O991   Zn1001  1.924   .     S
O992   Zn999   1.941   .     S
O993   Zn1000  1.947   .     S
O994   Zn1001  1.941   .     S
O995   Zn998   1.935   .     S
O996   Zn999   1.931   .     S
O997   Zn1000  1.931   .     S
C1002  O1085   1.267   .     A
C1002  O1083   1.267   .     A
C1002  C1008   1.433   .     S
C1003  C1036   1.403   .     A
C1003  C1017   1.404   .     A
C1003  C1029   1.535   .     S
C1004  C1019   1.529   .     S
C1004  C1016   1.429   .     A
C1004  C1017   1.416   .     A
C1005  O1084   1.287   .     A
C1005  C1007   1.468   .     S
C1005  O1086   1.268   .     A
C1006  C1018   1.404   .     A
C1006  C1035   1.423   .     A
C1006  C1015   1.468   .     S
C1007  C826    1.371   1_655 S
C1007  C850    1.528   1_655 S
C1009  C1012   1.471   .     S
C1009  C1283   1.343   .     S
C1009  C1296   1.538   .     S
C1010  C1011   1.439   .     S
C1010  C1555   1.343   1_545 S
C1010  H1586   1.087   1_545 S
C1011  O1081   1.273   .     A
C1011  O1087   1.282   .     A
C1012  O1088   1.271   .     A
C1012  O1082   1.284   .     A
C1013  C1018   1.386   .     A
C1013  H1068   1.082   .     S
C1013  C205    1.387   1_556 S
C1014  O1077   1.268   .     A
C1014  O1079   1.276   .     A
C1014  C1017   1.456   .     S
C1015  O1078   1.283   .     A
C1015  O1080   1.286   .     A
C1018  H1051   1.084   .     S
C1019  C1020   1.527   .     S
C1019  H1073   1.101   .     S
C1019  H1072   1.110   .     S
C1020  H1069   1.111   .     S
C1020  H1070   1.109   .     S
C1020  H1071   1.111   .     S
C1021  H1045   1.112   .     S
C1021  H1044   1.112   .     S
C1021  C826    1.536   1_655 S
C1021  C840    1.534   1_655 S
C1022  H1042   1.111   .     S
C1022  H1041   1.111   .     S
C1023  H1049   1.111   .     S
C1023  H1050   1.112   .     S
C1023  C1555   1.538   1_545 S
C1023  C1571   1.529   1_545 S
C1024  H1062   1.083   .     S
C1025  H1046   1.110   .     S
C1025  H1048   1.111   .     S
C1025  H1047   1.111   .     S
C1025  C1296   1.529   .     S
C1026  C1038   1.451   .     S
C1026  N1074   1.158   .     T
C1027  H1056   1.110   .     S
C1027  C1028   1.535   .     S
C1027  H1055   1.108   .     S
C1027  C197    1.525   1_556 S
C1028  H233    1.107   1_556 S
C1028  H234    1.109   1_556 S
C1028  H1600   1.110   1_545 S
C1029  C1030   1.529   .     S
C1029  H1061   1.103   .     S
C1029  H1060   1.109   .     S
C1030  H1059   1.109   .     S
C1030  H1058   1.109   .     S
C1030  H1057   1.111   .     S
C1031  N1075   1.158   .     T
C1031  C1039   1.455   .     S
C1032  H1067   1.111   .     S
C1032  C1033   1.526   .     S
C1032  H1066   1.109   .     S
C1033  H1065   1.110   .     S
C1033  H1064   1.110   .     S
C1034  C1035   1.412   .     A
C1034  C205    1.412   1_556 S
C1034  C217    1.411   1_556 S
C1035  C1039   1.419   .     A
C1037  C1038   1.426   .     A
C1037  C217    1.416   1_556 S
C1037  C197    1.435   1_556 S
C1038  C1039   1.413   .     A
H1040  C1283   1.087   .     S
H1043  C840    1.111   1_655 S
H1054  C1301   1.110   .     S
H1063  C851    1.111   1_655 S
O1076  Zn1091  1.931   .     S
O1076  Zn1092  1.945   .     S
O1076  Zn1090  1.944   .     S
O1076  Zn1089  1.956   .     S
O1077  Zn1090  1.929   .     S
O1078  Zn1092  1.936   .     S
O1079  Zn1091  1.935   .     S
O1080  Zn1089  1.930   .     S
O1081  Zn1089  1.925   .     S
O1082  Zn1092  1.924   .     S
O1083  Zn1090  1.941   .     S
O1084  Zn1091  1.947   .     S
O1085  Zn1092  1.941   .     S
O1086  Zn1089  1.935   .     S
O1087  Zn1090  1.931   .     S
O1088  Zn1091  1.931   .     S
C1093  O1176   1.267   .     A
C1093  O1174   1.267   .     A
C1093  C1099   1.433   .     S
C1094  C1127   1.403   .     A
C1094  C1108   1.404   .     A
C1094  C1120   1.535   .     S
C1095  C1110   1.529   .     S
C1095  C1107   1.429   .     A
C1095  C1108   1.416   .     A
C1096  O1175   1.287   .     A
C1096  C1098   1.468   .     S
C1096  O1177   1.268   .     A
C1097  C1109   1.404   .     A
C1097  C1126   1.423   .     A
C1097  C1106   1.468   .     S
C1098  C1190   1.371   .     S
C1098  C1214   1.528   .     S
C1099  C1280   1.371   1_455 S
C1099  C1294   1.536   1_455 S
C1100  C1103   1.471   .     S
C1100  C1374   1.343   .     S
C1100  C1387   1.538   .     S
C1101  C1102   1.439   .     S
C1102  O1172   1.273   .     A
C1102  O1178   1.282   .     A
C1103  O1179   1.271   .     A
C1103  O1173   1.284   .     A
C1104  C1109   1.386   .     A
C1104  H1159   1.082   .     S
C1104  C296    1.387   1_556 S
C1105  O1168   1.268   .     A
C1105  O1170   1.276   .     A
C1105  C1108   1.456   .     S
C1106  O1169   1.283   .     A
C1106  O1171   1.286   .     A
C1109  H1142   1.084   .     S
C1110  C1111   1.527   .     S
C1110  H1164   1.101   .     S
C1110  H1163   1.110   .     S
C1111  H1160   1.111   .     S
C1111  H1161   1.109   .     S
C1111  H1162   1.111   .     S
C1112  H1136   1.112   .     S
C1112  H1135   1.112   .     S
C1112  C1190   1.536   .     S
C1112  C1204   1.534   .     S
C1113  H1133   1.111   .     S
C1113  H1132   1.111   .     S
C1113  C1294   1.534   1_455 S
C1113  H1316   1.111   1_455 S
C1114  H1140   1.111   .     S
C1114  H1141   1.112   .     S
C1115  H1153   1.083   .     S
C1116  H1137   1.110   .     S
C1116  H1139   1.111   .     S
C1116  H1138   1.111   .     S
C1116  C1387   1.529   .     S
C1117  C1129   1.451   .     S
C1117  N1165   1.158   .     T
C1118  H1147   1.110   .     S
C1118  C1119   1.535   .     S
C1118  H1146   1.108   .     S
C1118  C288    1.525   1_556 S
C1119  H324    1.107   1_556 S
C1119  H325    1.109   1_556 S
C1120  C1121   1.529   .     S
C1120  H1152   1.103   .     S
C1120  H1151   1.109   .     S
C1121  H1150   1.109   .     S
C1121  H1149   1.109   .     S
C1121  H1148   1.111   .     S
C1122  N1166   1.158   .     T
C1122  C1130   1.455   .     S
C1123  H1158   1.111   .     S
C1123  C1124   1.526   .     S
C1123  H1157   1.109   .     S
C1123  C1280   1.528   1_455 S
C1124  H1156   1.110   .     S
C1124  H1155   1.110   .     S
C1124  H1336   1.111   1_455 S
C1125  C1126   1.412   .     A
C1125  C296    1.412   1_556 S
C1125  C308    1.411   1_556 S
C1126  C1130   1.419   .     A
C1128  C1129   1.426   .     A
C1128  C308    1.416   1_556 S
C1128  C288    1.435   1_556 S
C1129  C1130   1.413   .     A
H1131  C1374   1.087   .     S
H1134  C1204   1.111   .     S
H1145  C1392   1.110   .     S
H1154  C1215   1.111   .     S
O1167  Zn1182  1.931   .     S
O1167  Zn1183  1.945   .     S
O1167  Zn1181  1.944   .     S
O1167  Zn1180  1.956   .     S
O1168  Zn1181  1.929   .     S
O1169  Zn1183  1.936   .     S
O1170  Zn1182  1.935   .     S
O1171  Zn1180  1.930   .     S
O1172  Zn1180  1.925   .     S
O1173  Zn1183  1.924   .     S
O1174  Zn1181  1.941   .     S
O1175  Zn1182  1.947   .     S
O1176  Zn1183  1.941   .     S
O1177  Zn1180  1.935   .     S
O1178  Zn1181  1.931   .     S
O1179  Zn1182  1.931   .     S
C1184  O1267   1.267   .     A
C1184  O1265   1.267   .     A
C1184  C1190   1.433   .     S
C1185  C1218   1.403   .     A
C1185  C1199   1.404   .     A
C1185  C1211   1.535   .     S
C1186  C1201   1.529   .     S
C1186  C1198   1.429   .     A
C1186  C1199   1.416   .     A
C1187  O1266   1.287   .     A
C1187  C1189   1.468   .     S
C1187  O1268   1.268   .     A
C1188  C1200   1.404   .     A
C1188  C1217   1.423   .     A
C1188  C1197   1.468   .     S
C1189  C1281   1.371   .     S
C1189  C1305   1.528   .     S
C1191  C1194   1.471   .     S
C1191  C1465   1.343   .     S
C1191  C1478   1.538   .     S
C1192  C1193   1.439   .     S
C1193  O1263   1.273   .     A
C1193  O1269   1.282   .     A
C1194  O1270   1.271   .     A
C1194  O1264   1.284   .     A
C1195  C1200   1.386   .     A
C1195  H1250   1.082   .     S
C1195  C387    1.387   1_556 S
C1196  O1259   1.268   .     A
C1196  O1261   1.276   .     A
C1196  C1199   1.456   .     S
C1197  O1260   1.283   .     A
C1197  O1262   1.286   .     A
C1200  H1233   1.084   .     S
C1201  C1202   1.527   .     S
C1201  H1255   1.101   .     S
C1201  H1254   1.110   .     S
C1202  H1251   1.111   .     S
C1202  H1252   1.109   .     S
C1202  H1253   1.111   .     S
C1203  H1227   1.112   .     S
C1203  H1226   1.112   .     S
C1203  C1281   1.536   .     S
C1203  C1295   1.534   .     S
C1204  H1224   1.111   .     S
C1204  H1223   1.111   .     S
C1205  H1231   1.111   .     S
C1205  H1232   1.112   .     S
C1206  H1244   1.083   .     S
C1207  H1228   1.110   .     S
C1207  H1230   1.111   .     S
C1207  H1229   1.111   .     S
C1207  C1478   1.529   .     S
C1208  C1220   1.451   .     S
C1208  N1256   1.158   .     T
C1209  H1238   1.110   .     S
C1209  C1210   1.535   .     S
C1209  H1237   1.108   .     S
C1209  C379    1.525   1_556 S
C1210  H415    1.107   1_556 S
C1210  H416    1.109   1_556 S
C1211  C1212   1.529   .     S
C1211  H1243   1.103   .     S
C1211  H1242   1.109   .     S
C1212  H1241   1.109   .     S
C1212  H1240   1.109   .     S
C1212  H1239   1.111   .     S
C1213  N1257   1.158   .     T
C1213  C1221   1.455   .     S
C1214  H1249   1.111   .     S
C1214  C1215   1.526   .     S
C1214  H1248   1.109   .     S
C1215  H1247   1.110   .     S
C1215  H1246   1.110   .     S
C1216  C1217   1.412   .     A
C1216  C387    1.412   1_556 S
C1216  C399    1.411   1_556 S
C1217  C1221   1.419   .     A
C1219  C1220   1.426   .     A
C1219  C399    1.416   1_556 S
C1219  C379    1.435   1_556 S
C1220  C1221   1.413   .     A
H1222  C1465   1.087   .     S
H1225  C1295   1.111   .     S
H1236  C1483   1.110   .     S
H1245  C1306   1.111   .     S
O1258  Zn1273  1.931   .     S
O1258  Zn1274  1.945   .     S
O1258  Zn1272  1.944   .     S
O1258  Zn1271  1.956   .     S
O1259  Zn1272  1.929   .     S
O1260  Zn1274  1.936   .     S
O1261  Zn1273  1.935   .     S
O1262  Zn1271  1.930   .     S
O1263  Zn1271  1.925   .     S
O1264  Zn1274  1.924   .     S
O1265  Zn1272  1.941   .     S
O1266  Zn1273  1.947   .     S
O1267  Zn1274  1.941   .     S
O1268  Zn1271  1.935   .     S
O1269  Zn1272  1.931   .     S
O1270  Zn1273  1.931   .     S
C1275  O1358   1.267   .     A
C1275  O1356   1.267   .     A
C1275  C1281   1.433   .     S
C1276  C1309   1.403   .     A
C1276  C1290   1.404   .     A
C1276  C1302   1.535   .     S
C1277  C1292   1.529   .     S
C1277  C1289   1.429   .     A
C1277  C1290   1.416   .     A
C1278  O1357   1.287   .     A
C1278  C1280   1.468   .     S
C1278  O1359   1.268   .     A
C1279  C1291   1.404   .     A
C1279  C1308   1.423   .     A
C1279  C1288   1.468   .     S
C1280  C1099   1.371   1_655 S
C1280  C1123   1.528   1_655 S
C1282  C1285   1.471   .     S
C1282  C1556   1.343   .     S
C1282  C1569   1.538   .     S
C1283  C1284   1.439   .     S
C1284  O1354   1.273   .     A
C1284  O1360   1.282   .     A
C1285  O1361   1.271   .     A
C1285  O1355   1.284   .     A
C1286  C1291   1.386   .     A
C1286  H1341   1.082   .     S
C1286  C478    1.387   1_556 S
C1287  O1350   1.268   .     A
C1287  O1352   1.276   .     A
C1287  C1290   1.456   .     S
C1288  O1351   1.283   .     A
C1288  O1353   1.286   .     A
C1291  H1324   1.084   .     S
C1292  C1293   1.527   .     S
C1292  H1346   1.101   .     S
C1292  H1345   1.110   .     S
C1293  H1342   1.111   .     S
C1293  H1343   1.109   .     S
C1293  H1344   1.111   .     S
C1294  H1318   1.112   .     S
C1294  H1317   1.112   .     S
C1294  C1099   1.536   1_655 S
C1294  C1113   1.534   1_655 S
C1295  H1315   1.111   .     S
C1295  H1314   1.111   .     S
C1296  H1322   1.111   .     S
C1296  H1323   1.112   .     S
C1297  H1335   1.083   .     S
C1298  H1319   1.110   .     S
C1298  H1321   1.111   .     S
C1298  H1320   1.111   .     S
C1298  C1569   1.529   .     S
C1299  C1311   1.451   .     S
C1299  N1347   1.158   .     T
C1300  H1329   1.110   .     S
C1300  C1301   1.535   .     S
C1300  H1328   1.108   .     S
C1300  C470    1.525   1_556 S
C1301  H506    1.107   1_556 S
C1301  H507    1.109   1_556 S
C1302  C1303   1.529   .     S
C1302  H1334   1.103   .     S
C1302  H1333   1.109   .     S
C1303  H1332   1.109   .     S
C1303  H1331   1.109   .     S
C1303  H1330   1.111   .     S
C1304  N1348   1.158   .     T
C1304  C1312   1.455   .     S
C1305  H1340   1.111   .     S
C1305  C1306   1.526   .     S
C1305  H1339   1.109   .     S
C1306  H1338   1.110   .     S
C1306  H1337   1.110   .     S
C1307  C1308   1.412   .     A
C1307  C478    1.412   1_556 S
C1307  C490    1.411   1_556 S
C1308  C1312   1.419   .     A
C1310  C1311   1.426   .     A
C1310  C490    1.416   1_556 S
C1310  C470    1.435   1_556 S
C1311  C1312   1.413   .     A
H1313  C1556   1.087   .     S
H1316  C1113   1.111   1_655 S
H1327  C1574   1.110   .     S
H1336  C1124   1.111   1_655 S
O1349  Zn1364  1.931   .     S
O1349  Zn1365  1.945   .     S
O1349  Zn1363  1.944   .     S
O1349  Zn1362  1.956   .     S
O1350  Zn1363  1.929   .     S
O1351  Zn1365  1.936   .     S
O1352  Zn1364  1.935   .     S
O1353  Zn1362  1.930   .     S
O1354  Zn1362  1.925   .     S
O1355  Zn1365  1.924   .     S
O1356  Zn1363  1.941   .     S
O1357  Zn1364  1.947   .     S
O1358  Zn1365  1.941   .     S
O1359  Zn1362  1.935   .     S
O1360  Zn1363  1.931   .     S
O1361  Zn1364  1.931   .     S
C1366  O1449   1.267   .     A
C1366  O1447   1.267   .     A
C1366  C1372   1.433   .     S
C1367  C1400   1.403   .     A
C1367  C1381   1.404   .     A
C1367  C1393   1.535   .     S
C1368  C1383   1.529   .     S
C1368  C1380   1.429   .     A
C1368  C1381   1.416   .     A
C1369  O1448   1.287   .     A
C1369  C1371   1.468   .     S
C1369  O1450   1.268   .     A
C1370  C1382   1.404   .     A
C1370  C1399   1.423   .     A
C1370  C1379   1.468   .     S
C1371  C1463   1.371   .     S
C1371  C1487   1.528   .     S
C1372  C1553   1.371   1_455 S
C1372  C1567   1.536   1_455 S
C1373  C1376   1.471   .     S
C1373  C828    1.343   1_565 S
C1373  C841    1.538   1_565 S
C1374  C1375   1.439   .     S
C1375  O1445   1.273   .     A
C1375  O1451   1.282   .     A
C1376  O1452   1.271   .     A
C1376  O1446   1.284   .     A
C1377  C1382   1.386   .     A
C1377  H1432   1.082   .     S
C1377  C569    1.387   1_556 S
C1378  O1441   1.268   .     A
C1378  O1443   1.276   .     A
C1378  C1381   1.456   .     S
C1379  O1442   1.283   .     A
C1379  O1444   1.286   .     A
C1382  H1415   1.084   .     S
C1383  C1384   1.527   .     S
C1383  H1437   1.101   .     S
C1383  H1436   1.110   .     S
C1384  H1433   1.111   .     S
C1384  H1434   1.109   .     S
C1384  H1435   1.111   .     S
C1385  H1409   1.112   .     S
C1385  H1408   1.112   .     S
C1385  C1463   1.536   .     S
C1385  C1477   1.534   .     S
C1386  H1406   1.111   .     S
C1386  H1405   1.111   .     S
C1386  C1567   1.534   1_455 S
C1386  H1589   1.111   1_455 S
C1387  H1413   1.111   .     S
C1387  H1414   1.112   .     S
C1388  H1426   1.083   .     S
C1389  H1410   1.110   .     S
C1389  H1412   1.111   .     S
C1389  H1411   1.111   .     S
C1389  C841    1.529   1_565 S
C1390  C1402   1.451   .     S
C1390  N1438   1.158   .     T
C1391  H1420   1.110   .     S
C1391  C1392   1.535   .     S
C1391  H1419   1.108   .     S
C1391  C561    1.525   1_556 S
C1392  H597    1.107   1_556 S
C1392  H598    1.109   1_556 S
C1393  C1394   1.529   .     S
C1393  H1425   1.103   .     S
C1393  H1424   1.109   .     S
C1394  H1423   1.109   .     S
C1394  H1422   1.109   .     S
C1394  H1421   1.111   .     S
C1395  N1439   1.158   .     T
C1395  C1403   1.455   .     S
C1396  H1431   1.111   .     S
C1396  C1397   1.526   .     S
C1396  H1430   1.109   .     S
C1396  C1553   1.528   1_455 S
C1397  H1429   1.110   .     S
C1397  H1428   1.110   .     S
C1397  H1609   1.111   1_455 S
C1398  C1399   1.412   .     A
C1398  C569    1.412   1_556 S
C1398  C581    1.411   1_556 S
C1399  C1403   1.419   .     A
C1401  C1402   1.426   .     A
C1401  C581    1.416   1_556 S
C1401  C561    1.435   1_556 S
C1402  C1403   1.413   .     A
H1404  C828    1.087   1_565 S
H1407  C1477   1.111   .     S
H1418  C846    1.110   1_565 S
H1427  C1488   1.111   .     S
O1440  Zn1455  1.931   .     S
O1440  Zn1456  1.945   .     S
O1440  Zn1454  1.944   .     S
O1440  Zn1453  1.956   .     S
O1441  Zn1454  1.929   .     S
O1442  Zn1456  1.936   .     S
O1443  Zn1455  1.935   .     S
O1444  Zn1453  1.930   .     S
O1445  Zn1453  1.925   .     S
O1446  Zn1456  1.924   .     S
O1447  Zn1454  1.941   .     S
O1448  Zn1455  1.947   .     S
O1449  Zn1456  1.941   .     S
O1450  Zn1453  1.935   .     S
O1451  Zn1454  1.931   .     S
O1452  Zn1455  1.931   .     S
C1457  O1540   1.267   .     A
C1457  O1538   1.267   .     A
C1457  C1463   1.433   .     S
C1458  C1491   1.403   .     A
C1458  C1472   1.404   .     A
C1458  C1484   1.535   .     S
C1459  C1474   1.529   .     S
C1459  C1471   1.429   .     A
C1459  C1472   1.416   .     A
C1460  O1539   1.287   .     A
C1460  C1462   1.468   .     S
C1460  O1541   1.268   .     A
C1461  C1473   1.404   .     A
C1461  C1490   1.423   .     A
C1461  C1470   1.468   .     S
C1462  C1554   1.371   .     S
C1462  C1578   1.528   .     S
C1464  C1467   1.471   .     S
C1464  C919    1.343   1_565 S
C1464  C932    1.538   1_565 S
C1465  C1466   1.439   .     S
C1466  O1536   1.273   .     A
C1466  O1542   1.282   .     A
C1467  O1543   1.271   .     A
C1467  O1537   1.284   .     A
C1468  C1473   1.386   .     A
C1468  H1523   1.082   .     S
C1468  C660    1.387   1_556 S
C1469  O1532   1.268   .     A
C1469  O1534   1.276   .     A
C1469  C1472   1.456   .     S
C1470  O1533   1.283   .     A
C1470  O1535   1.286   .     A
C1473  H1506   1.084   .     S
C1474  C1475   1.527   .     S
C1474  H1528   1.101   .     S
C1474  H1527   1.110   .     S
C1475  H1524   1.111   .     S
C1475  H1525   1.109   .     S
C1475  H1526   1.111   .     S
C1476  H1500   1.112   .     S
C1476  H1499   1.112   .     S
C1476  C1554   1.536   .     S
C1476  C1568   1.534   .     S
C1477  H1497   1.111   .     S
C1477  H1496   1.111   .     S
C1478  H1504   1.111   .     S
C1478  H1505   1.112   .     S
C1479  H1517   1.083   .     S
C1480  H1501   1.110   .     S
C1480  H1503   1.111   .     S
C1480  H1502   1.111   .     S
C1480  C932    1.529   1_565 S
C1481  C1493   1.451   .     S
C1481  N1529   1.158   .     T
C1482  H1511   1.110   .     S
C1482  C1483   1.535   .     S
C1482  H1510   1.108   .     S
C1482  C652    1.525   1_556 S
C1483  H688    1.107   1_556 S
C1483  H689    1.109   1_556 S
C1484  C1485   1.529   .     S
C1484  H1516   1.103   .     S
C1484  H1515   1.109   .     S
C1485  H1514   1.109   .     S
C1485  H1513   1.109   .     S
C1485  H1512   1.111   .     S
C1486  N1530   1.158   .     T
C1486  C1494   1.455   .     S
C1487  H1522   1.111   .     S
C1487  C1488   1.526   .     S
C1487  H1521   1.109   .     S
C1488  H1520   1.110   .     S
C1488  H1519   1.110   .     S
C1489  C1490   1.412   .     A
C1489  C660    1.412   1_556 S
C1489  C672    1.411   1_556 S
C1490  C1494   1.419   .     A
C1492  C1493   1.426   .     A
C1492  C672    1.416   1_556 S
C1492  C652    1.435   1_556 S
C1493  C1494   1.413   .     A
H1495  C919    1.087   1_565 S
H1498  C1568   1.111   .     S
H1509  C937    1.110   1_565 S
H1518  C1579   1.111   .     S
O1531  Zn1546  1.931   .     S
O1531  Zn1547  1.945   .     S
O1531  Zn1545  1.944   .     S
O1531  Zn1544  1.956   .     S
O1532  Zn1545  1.929   .     S
O1533  Zn1547  1.936   .     S
O1534  Zn1546  1.935   .     S
O1535  Zn1544  1.930   .     S
O1536  Zn1544  1.925   .     S
O1537  Zn1547  1.924   .     S
O1538  Zn1545  1.941   .     S
O1539  Zn1546  1.947   .     S
O1540  Zn1547  1.941   .     S
O1541  Zn1544  1.935   .     S
O1542  Zn1545  1.931   .     S
O1543  Zn1546  1.931   .     S
C1548  O1631   1.267   .     A
C1548  O1629   1.267   .     A
C1548  C1554   1.433   .     S
C1549  C1582   1.403   .     A
C1549  C1563   1.404   .     A
C1549  C1575   1.535   .     S
C1550  C1565   1.529   .     S
C1550  C1562   1.429   .     A
C1550  C1563   1.416   .     A
C1551  O1630   1.287   .     A
C1551  C1553   1.468   .     S
C1551  O1632   1.268   .     A
C1552  C1564   1.404   .     A
C1552  C1581   1.423   .     A
C1552  C1561   1.468   .     S
C1553  C1372   1.371   1_655 S
C1553  C1396   1.528   1_655 S
C1555  C1558   1.471   .     S
C1555  C1010   1.343   1_565 S
C1555  C1023   1.538   1_565 S
C1556  C1557   1.439   .     S
C1557  O1627   1.273   .     A
C1557  O1633   1.282   .     A
C1558  O1634   1.271   .     A
C1558  O1628   1.284   .     A
C1559  C1564   1.386   .     A
C1559  H1614   1.082   .     S
C1559  C751    1.387   1_556 S
C1560  O1623   1.268   .     A
C1560  O1625   1.276   .     A
C1560  C1563   1.456   .     S
C1561  O1624   1.283   .     A
C1561  O1626   1.286   .     A
C1564  H1597   1.084   .     S
C1565  C1566   1.527   .     S
C1565  H1619   1.101   .     S
C1565  H1618   1.110   .     S
C1566  H1615   1.111   .     S
C1566  H1616   1.109   .     S
C1566  H1617   1.111   .     S
C1567  H1591   1.112   .     S
C1567  H1590   1.112   .     S
C1567  C1372   1.536   1_655 S
C1567  C1386   1.534   1_655 S
C1568  H1588   1.111   .     S
C1568  H1587   1.111   .     S
C1569  H1595   1.111   .     S
C1569  H1596   1.112   .     S
C1570  H1608   1.083   .     S
C1571  H1592   1.110   .     S
C1571  H1594   1.111   .     S
C1571  H1593   1.111   .     S
C1571  C1023   1.529   1_565 S
C1572  C1584   1.451   .     S
C1572  N1620   1.158   .     T
C1573  H1602   1.110   .     S
C1573  C1574   1.535   .     S
C1573  H1601   1.108   .     S
C1573  C743    1.525   1_556 S
C1574  H779    1.107   1_556 S
C1574  H780    1.109   1_556 S
C1575  C1576   1.529   .     S
C1575  H1607   1.103   .     S
C1575  H1606   1.109   .     S
C1576  H1605   1.109   .     S
C1576  H1604   1.109   .     S
C1576  H1603   1.111   .     S
C1577  N1621   1.158   .     T
C1577  C1585   1.455   .     S
C1578  H1613   1.111   .     S
C1578  C1579   1.526   .     S
C1578  H1612   1.109   .     S
C1579  H1611   1.110   .     S
C1579  H1610   1.110   .     S
C1580  C1581   1.412   .     A
C1580  C751    1.412   1_556 S
C1580  C763    1.411   1_556 S
C1581  C1585   1.419   .     A
C1583  C1584   1.426   .     A
C1583  C763    1.416   1_556 S
C1583  C743    1.435   1_556 S
C1584  C1585   1.413   .     A
H1586  C1010   1.087   1_565 S
H1589  C1386   1.111   1_655 S
H1600  C1028   1.110   1_565 S
H1609  C1397   1.111   1_655 S
O1622  Zn1637  1.931   .     S
O1622  Zn1638  1.945   .     S
O1622  Zn1636  1.944   .     S
O1622  Zn1635  1.956   .     S
O1623  Zn1636  1.929   .     S
O1624  Zn1638  1.936   .     S
O1625  Zn1637  1.935   .     S
O1626  Zn1635  1.930   .     S
O1627  Zn1635  1.925   .     S
O1628  Zn1638  1.924   .     S
O1629  Zn1636  1.941   .     S
O1630  Zn1637  1.947   .     S
O1631  Zn1638  1.941   .     S
O1632  Zn1635  1.935   .     S
O1633  Zn1636  1.931   .     S
O1634  Zn1637  1.931   .     S
