data_str_m1_o10_o18_pcu_sym.250
_audit_creation_date              2020-01-03
_audit_creation_method            'Materials Studio'
_symmetry_space_group_name_H-M    'P1'
_symmetry_Int_Tables_number       1
_symmetry_cell_setting            triclinic
loop_
_symmetry_equiv_pos_as_xyz
  x,y,z
_cell_length_a                    32.6368
_cell_length_b                    32.5583
_cell_length_c                    35.3284
_cell_angle_alpha                 97.9588
_cell_angle_beta                  73.2767
_cell_angle_gamma                 99.0945
loop_
_atom_site_label
_atom_site_type_symbol
_atom_site_fract_x
_atom_site_fract_y
_atom_site_fract_z
_atom_site_U_iso_or_equiv
_atom_site_adp_type
_atom_site_occupancy
Zn1    Zn    0.19244   0.14090   0.28277   0.00000  Uiso   1.00
Zn2    Zn    0.13459   0.12378   0.22258   0.00000  Uiso   1.00
Zn3    Zn    0.21166   0.19664   0.21188   0.00000  Uiso   1.00
Zn4    Zn    0.12798   0.20535   0.28277   0.00000  Uiso   1.00
O5     O     0.16667   0.16667   0.25000   0.00000  Uiso   1.00
O6     O     0.06990   0.18960   0.27820   0.00000  Uiso   1.00
O7     O     0.25440   0.15277   0.26767   0.00000  Uiso   1.00
O8     O     0.13800   0.06903   0.23607   0.00000  Uiso   1.00
O9     O     0.20437   0.25527   0.21806   0.00000  Uiso   1.00
O10    O     0.15693   0.12393   0.16625   0.00000  Uiso   1.00
O11    O     0.12687   0.20646   0.33749   0.00000  Uiso   1.00
O12    O     0.21088   0.17493   0.15877   0.00000  Uiso   1.00
O13    O     0.17198   0.16135   0.33749   0.00000  Uiso   1.00
O14    O     0.17849   0.08101   0.27820   0.00000  Uiso   1.00
O15    O     0.14581   0.26136   0.26767   0.00000  Uiso   1.00
O16    O     0.07452   0.13251   0.23607   0.00000  Uiso   1.00
O17    O     0.26785   0.19179   0.21805   0.00000  Uiso   1.00
C18    C     0.05265   0.15936   0.25879   0.00000  Uiso   1.00
C19    C     0.28114   0.17399   0.24149   0.00000  Uiso   1.00
C20    C     0.15553   0.05611   0.25933   0.00000  Uiso   1.00
C21    C     0.17683   0.27762   0.24068   0.00000  Uiso   1.00
C22    C     0.18800   0.14535   0.14381   0.00000  Uiso   1.00
C23    C     0.14561   0.18763   0.35634   0.00000  Uiso   1.00
C24    C     0.13359   0.19260   0.40015   0.00000  Uiso   1.00
C25    C     0.19736   0.13443   0.10091   0.00000  Uiso   1.00
C26    C     0.08842   0.21908   0.46349   0.00000  Uiso   1.00
C27    C     0.10170   0.21716   0.42200   0.00000  Uiso   1.00
C28    C     0.15291   0.17073   0.42020   0.00000  Uiso   1.00
C29    C     0.13678   0.16766   0.46133   0.00000  Uiso   1.00
C30    C     0.10385   0.19237   0.48351   0.00000  Uiso   1.00
C31    C     0.15444   0.14250   0.48117   0.00000  Uiso   1.00
C32    C     0.14612   0.14980   0.02279   0.00000  Uiso   1.00
C33    C     0.10842   0.16816   0.04427   0.00000  Uiso   1.00
C34    C     0.08775   0.18981   0.02491   0.00000  Uiso   1.00
C35    C     0.17931   0.10975   0.46132   0.00000  Uiso   1.00
C36    C     0.20295   0.09188   0.48089   0.00000  Uiso   1.00
C37    C     0.19951   0.10375   0.02178   0.00000  Uiso   1.00
C38    C     0.17344   0.13554   0.04183   0.00000  Uiso   1.00
C39    C     0.22066   0.08454   0.04357   0.00000  Uiso   1.00
C40    C     0.21872   0.09955   0.08334   0.00000  Uiso   1.00
C41    C     0.17725   0.15392   0.07966   0.00000  Uiso   1.00
H42    H     0.08749   0.23568   0.40708   0.00000  Uiso   1.00
H43    H     0.18134   0.15699   0.40311   0.00000  Uiso   1.00
C44    C     0.32704   0.17888   0.23957   0.00000  Uiso   1.00
C45    C     0.00739   0.15531   0.26113   0.00000  Uiso   1.00
C46    C     0.18130   0.32212   0.23592   0.00000  Uiso   1.00
C47    C     0.15304   0.01207   0.26166   0.00000  Uiso   1.00
H48    H     0.12784   0.33212   0.28588   0.00000  Uiso   1.00
N49    N     0.04909   0.20697   0.04756   0.00000  Uiso   1.00
O50    O     0.01301   0.19395   0.03843   0.00000  Uiso   1.00
O51    O     0.04846   0.23041   0.08065   0.00000  Uiso   1.00
N52    N     0.24120   0.04779   0.02701   0.00000  Uiso   1.00
O53    O     0.28155   0.04753   0.02521   0.00000  Uiso   1.00
O54    O     0.21797   0.01286   0.01972   0.00000  Uiso   1.00
N55    N     0.02270   0.21016   0.21621   0.00000  Uiso   1.00
O56    O     0.00957   0.24528   0.21411   0.00000  Uiso   1.00
O57    O     0.06045   0.20214   0.19384   0.00000  Uiso   1.00
O58    O     0.31370   0.12154   0.27875   0.00000  Uiso   1.00
C59    C     0.31614   0.12122   0.31800   0.00000  Uiso   1.00
H60    H     0.31562   0.15311   0.33435   0.00000  Uiso   1.00
H61    H     0.01264   0.10856   0.31771   0.00000  Uiso   1.00
C62    C     0.27732   0.09322   0.34032   0.00000  Uiso   1.00
H63    H     0.27705   0.06089   0.32535   0.00000  Uiso   1.00
H64    H     0.27886   0.09257   0.37121   0.00000  Uiso   1.00
H65    H     0.24704   0.10533   0.34125   0.00000  Uiso   1.00
N66    N     0.21532   0.00624   0.20385   0.00000  Uiso   1.00
O67    O     0.22775   0.31715   0.17011   0.00000  Uiso   1.00
O68    O     0.23662   0.04288   0.20923   0.00000  Uiso   1.00
O69    O     0.16102   0.19100   0.09666   0.00000  Uiso   1.00
C70    C     0.19117   0.22465   0.08090   0.00000  Uiso   1.00
H71    H     0.19867   0.22226   0.04790   0.00000  Uiso   1.00
H72    H     0.22154   0.22579   0.08966   0.00000  Uiso   1.00
C73    C     0.17220   0.26530   0.09734   0.00000  Uiso   1.00
H74    H     0.16485   0.26909   0.13025   0.00000  Uiso   1.00
H75    H     0.19565   0.29205   0.08524   0.00000  Uiso   1.00
H76    H     0.14207   0.26514   0.08861   0.00000  Uiso   1.00
N77    N     0.23767   0.07868   0.10623   0.00000  Uiso   1.00
O78    O     0.26217   0.10006   0.12718   0.00000  Uiso   1.00
O79    O     0.22940   0.03838   0.10724   0.00000  Uiso   1.00
N80    N     0.23381   0.06514   0.45734   0.00000  Uiso   1.00
O81    O     0.27479   0.07823   0.45072   0.00000  Uiso   1.00
O82    O     0.22138   0.03101   0.43756   0.00000  Uiso   1.00
O83    O     0.06008   0.24712   0.48397   0.00000  Uiso   1.00
C84    C     0.08417   0.28648   0.48938   0.00000  Uiso   1.00
H85    H     0.10154   0.29860   0.46025   0.00000  Uiso   1.00
H86    H     0.10791   0.28451   0.00612   0.00000  Uiso   1.00
C87    C     0.05376   0.31753   0.01313   0.00000  Uiso   1.00
H88    H     0.03639   0.30671   0.04269   0.00000  Uiso   1.00
H89    H     0.07243   0.01529   0.01739   0.00000  Uiso   1.00
H90    H     0.02990   0.32059   0.49704   0.00000  Uiso   1.00
O91    O     0.08911   0.16226   0.08386   0.00000  Uiso   1.00
C92    C     0.06516   0.12213   0.08630   0.00000  Uiso   1.00
H93    H     0.08666   0.09725   0.07444   0.00000  Uiso   1.00
H94    H     0.04031   0.11848   0.06964   0.00000  Uiso   1.00
C95    C     0.04224   0.11633   0.12961   0.00000  Uiso   1.00
H96    H     0.01992   0.14028   0.14219   0.00000  Uiso   1.00
H97    H     0.02336   0.08482   0.13195   0.00000  Uiso   1.00
H98    H     0.06622   0.11937   0.14698   0.00000  Uiso   1.00
O99    O     0.18034   0.09356   0.42276   0.00000  Uiso   1.00
C100   C     0.14193   0.06642   0.42307   0.00000  Uiso   1.00
H101   H     0.11313   0.08349   0.43443   0.00000  Uiso   1.00
H102   H     0.13829   0.04044   0.44172   0.00000  Uiso   1.00
C103   C     0.14359   0.04766   0.38084   0.00000  Uiso   1.00
H104   H     0.17194   0.03020   0.36860   0.00000  Uiso   1.00
H105   H     0.11380   0.02587   0.38065   0.00000  Uiso   1.00
H106   H     0.14615   0.07288   0.36179   0.00000  Uiso   1.00
Zn107  Zn    0.52577   0.14090   0.28277   0.00000  Uiso   1.00
Zn108  Zn    0.46792   0.12378   0.22258   0.00000  Uiso   1.00
Zn109  Zn    0.54500   0.19664   0.21188   0.00000  Uiso   1.00
Zn110  Zn    0.46131   0.20535   0.28277   0.00000  Uiso   1.00
O111   O     0.50000   0.16667   0.25000   0.00000  Uiso   1.00
O112   O     0.40323   0.18960   0.27820   0.00000  Uiso   1.00
O113   O     0.58773   0.15277   0.26767   0.00000  Uiso   1.00
O114   O     0.47133   0.06903   0.23607   0.00000  Uiso   1.00
O115   O     0.53771   0.25527   0.21806   0.00000  Uiso   1.00
O116   O     0.49027   0.12393   0.16625   0.00000  Uiso   1.00
O117   O     0.46020   0.20646   0.33749   0.00000  Uiso   1.00
O118   O     0.54421   0.17493   0.15877   0.00000  Uiso   1.00
O119   O     0.50532   0.16135   0.33749   0.00000  Uiso   1.00
O120   O     0.51182   0.08101   0.27820   0.00000  Uiso   1.00
O121   O     0.47914   0.26136   0.26767   0.00000  Uiso   1.00
O122   O     0.40785   0.13251   0.23607   0.00000  Uiso   1.00
O123   O     0.60119   0.19179   0.21805   0.00000  Uiso   1.00
C124   C     0.38598   0.15936   0.25879   0.00000  Uiso   1.00
C125   C     0.61448   0.17399   0.24149   0.00000  Uiso   1.00
C126   C     0.48887   0.05611   0.25933   0.00000  Uiso   1.00
C127   C     0.51016   0.27762   0.24068   0.00000  Uiso   1.00
C128   C     0.52134   0.14535   0.14381   0.00000  Uiso   1.00
C129   C     0.47894   0.18763   0.35634   0.00000  Uiso   1.00
C130   C     0.46692   0.19260   0.40015   0.00000  Uiso   1.00
C131   C     0.53069   0.13443   0.10091   0.00000  Uiso   1.00
C132   C     0.42176   0.21908   0.46349   0.00000  Uiso   1.00
C133   C     0.43503   0.21716   0.42200   0.00000  Uiso   1.00
C134   C     0.48624   0.17073   0.42020   0.00000  Uiso   1.00
C135   C     0.47011   0.16766   0.46133   0.00000  Uiso   1.00
C136   C     0.43719   0.19237   0.48351   0.00000  Uiso   1.00
C137   C     0.48777   0.14250   0.48117   0.00000  Uiso   1.00
C138   C     0.47946   0.14980   0.02279   0.00000  Uiso   1.00
C139   C     0.44175   0.16816   0.04427   0.00000  Uiso   1.00
C140   C     0.42108   0.18981   0.02491   0.00000  Uiso   1.00
C141   C     0.51265   0.10975   0.46132   0.00000  Uiso   1.00
C142   C     0.53628   0.09188   0.48089   0.00000  Uiso   1.00
C143   C     0.53284   0.10375   0.02178   0.00000  Uiso   1.00
C144   C     0.50677   0.13554   0.04183   0.00000  Uiso   1.00
C145   C     0.55399   0.08454   0.04357   0.00000  Uiso   1.00
C146   C     0.55206   0.09955   0.08334   0.00000  Uiso   1.00
C147   C     0.51058   0.15392   0.07966   0.00000  Uiso   1.00
H148   H     0.42082   0.23568   0.40708   0.00000  Uiso   1.00
H149   H     0.51467   0.15699   0.40311   0.00000  Uiso   1.00
C150   C     0.66038   0.17888   0.23957   0.00000  Uiso   1.00
C151   C     0.34072   0.15531   0.26113   0.00000  Uiso   1.00
C152   C     0.51464   0.32212   0.23592   0.00000  Uiso   1.00
C153   C     0.48638   0.01207   0.26166   0.00000  Uiso   1.00
H154   H     0.46117   0.33212   0.28588   0.00000  Uiso   1.00
N155   N     0.38243   0.20697   0.04756   0.00000  Uiso   1.00
O156   O     0.34634   0.19395   0.03843   0.00000  Uiso   1.00
O157   O     0.38180   0.23041   0.08065   0.00000  Uiso   1.00
N158   N     0.57453   0.04779   0.02701   0.00000  Uiso   1.00
O159   O     0.61488   0.04753   0.02521   0.00000  Uiso   1.00
O160   O     0.55130   0.01286   0.01972   0.00000  Uiso   1.00
N161   N     0.35603   0.21016   0.21621   0.00000  Uiso   1.00
O162   O     0.34290   0.24528   0.21411   0.00000  Uiso   1.00
O163   O     0.39378   0.20214   0.19384   0.00000  Uiso   1.00
O164   O     0.64703   0.12154   0.27875   0.00000  Uiso   1.00
C165   C     0.64947   0.12122   0.31800   0.00000  Uiso   1.00
H166   H     0.64895   0.15311   0.33435   0.00000  Uiso   1.00
H167   H     0.34597   0.10856   0.31771   0.00000  Uiso   1.00
C168   C     0.61065   0.09322   0.34032   0.00000  Uiso   1.00
H169   H     0.61038   0.06089   0.32535   0.00000  Uiso   1.00
H170   H     0.61219   0.09257   0.37121   0.00000  Uiso   1.00
H171   H     0.58037   0.10533   0.34125   0.00000  Uiso   1.00
N172   N     0.54865   0.00624   0.20385   0.00000  Uiso   1.00
O173   O     0.56108   0.31715   0.17011   0.00000  Uiso   1.00
O174   O     0.56995   0.04288   0.20923   0.00000  Uiso   1.00
O175   O     0.49435   0.19100   0.09666   0.00000  Uiso   1.00
C176   C     0.52450   0.22465   0.08090   0.00000  Uiso   1.00
H177   H     0.53201   0.22226   0.04790   0.00000  Uiso   1.00
H178   H     0.55487   0.22579   0.08966   0.00000  Uiso   1.00
C179   C     0.50553   0.26530   0.09734   0.00000  Uiso   1.00
H180   H     0.49818   0.26909   0.13025   0.00000  Uiso   1.00
H181   H     0.52898   0.29205   0.08524   0.00000  Uiso   1.00
H182   H     0.47540   0.26514   0.08861   0.00000  Uiso   1.00
N183   N     0.57101   0.07868   0.10623   0.00000  Uiso   1.00
O184   O     0.59551   0.10006   0.12718   0.00000  Uiso   1.00
O185   O     0.56273   0.03838   0.10724   0.00000  Uiso   1.00
N186   N     0.56714   0.06514   0.45734   0.00000  Uiso   1.00
O187   O     0.60813   0.07823   0.45072   0.00000  Uiso   1.00
O188   O     0.55471   0.03101   0.43756   0.00000  Uiso   1.00
O189   O     0.39342   0.24712   0.48397   0.00000  Uiso   1.00
C190   C     0.41750   0.28648   0.48938   0.00000  Uiso   1.00
H191   H     0.43488   0.29860   0.46025   0.00000  Uiso   1.00
H192   H     0.44124   0.28451   0.00612   0.00000  Uiso   1.00
C193   C     0.38709   0.31753   0.01313   0.00000  Uiso   1.00
H194   H     0.36973   0.30671   0.04269   0.00000  Uiso   1.00
H195   H     0.40577   0.01529   0.01739   0.00000  Uiso   1.00
H196   H     0.36324   0.32059   0.49704   0.00000  Uiso   1.00
O197   O     0.42244   0.16226   0.08386   0.00000  Uiso   1.00
C198   C     0.39849   0.12213   0.08630   0.00000  Uiso   1.00
H199   H     0.42000   0.09725   0.07444   0.00000  Uiso   1.00
H200   H     0.37364   0.11848   0.06964   0.00000  Uiso   1.00
C201   C     0.37557   0.11633   0.12961   0.00000  Uiso   1.00
H202   H     0.35325   0.14028   0.14219   0.00000  Uiso   1.00
H203   H     0.35670   0.08482   0.13195   0.00000  Uiso   1.00
H204   H     0.39955   0.11937   0.14698   0.00000  Uiso   1.00
O205   O     0.51367   0.09356   0.42276   0.00000  Uiso   1.00
C206   C     0.47526   0.06642   0.42307   0.00000  Uiso   1.00
H207   H     0.44646   0.08349   0.43443   0.00000  Uiso   1.00
H208   H     0.47162   0.04044   0.44172   0.00000  Uiso   1.00
C209   C     0.47693   0.04766   0.38084   0.00000  Uiso   1.00
H210   H     0.50527   0.03020   0.36860   0.00000  Uiso   1.00
H211   H     0.44714   0.02587   0.38065   0.00000  Uiso   1.00
H212   H     0.47949   0.07288   0.36179   0.00000  Uiso   1.00
Zn213  Zn    0.85910   0.14090   0.28277   0.00000  Uiso   1.00
Zn214  Zn    0.80125   0.12378   0.22258   0.00000  Uiso   1.00
Zn215  Zn    0.87833   0.19664   0.21188   0.00000  Uiso   1.00
Zn216  Zn    0.79465   0.20535   0.28277   0.00000  Uiso   1.00
O217   O     0.83333   0.16667   0.25000   0.00000  Uiso   1.00
O218   O     0.73656   0.18960   0.27820   0.00000  Uiso   1.00
O219   O     0.92106   0.15277   0.26767   0.00000  Uiso   1.00
O220   O     0.80467   0.06903   0.23607   0.00000  Uiso   1.00
O221   O     0.87104   0.25527   0.21806   0.00000  Uiso   1.00
O222   O     0.82360   0.12393   0.16625   0.00000  Uiso   1.00
O223   O     0.79354   0.20646   0.33749   0.00000  Uiso   1.00
O224   O     0.87755   0.17493   0.15877   0.00000  Uiso   1.00
O225   O     0.83865   0.16135   0.33749   0.00000  Uiso   1.00
O226   O     0.84515   0.08101   0.27820   0.00000  Uiso   1.00
O227   O     0.81247   0.26136   0.26767   0.00000  Uiso   1.00
O228   O     0.74119   0.13251   0.23607   0.00000  Uiso   1.00
O229   O     0.93452   0.19179   0.21805   0.00000  Uiso   1.00
C230   C     0.71932   0.15936   0.25879   0.00000  Uiso   1.00
C231   C     0.94781   0.17399   0.24149   0.00000  Uiso   1.00
C232   C     0.82220   0.05611   0.25933   0.00000  Uiso   1.00
C233   C     0.84349   0.27762   0.24068   0.00000  Uiso   1.00
C234   C     0.85467   0.14535   0.14381   0.00000  Uiso   1.00
C235   C     0.81228   0.18763   0.35634   0.00000  Uiso   1.00
C236   C     0.80025   0.19260   0.40015   0.00000  Uiso   1.00
C237   C     0.86402   0.13443   0.10091   0.00000  Uiso   1.00
C238   C     0.75509   0.21908   0.46349   0.00000  Uiso   1.00
C239   C     0.76836   0.21716   0.42200   0.00000  Uiso   1.00
C240   C     0.81957   0.17073   0.42020   0.00000  Uiso   1.00
C241   C     0.80344   0.16766   0.46133   0.00000  Uiso   1.00
C242   C     0.77052   0.19237   0.48351   0.00000  Uiso   1.00
C243   C     0.82111   0.14250   0.48117   0.00000  Uiso   1.00
C244   C     0.81279   0.14980   0.02279   0.00000  Uiso   1.00
C245   C     0.77509   0.16816   0.04427   0.00000  Uiso   1.00
C246   C     0.75441   0.18981   0.02491   0.00000  Uiso   1.00
C247   C     0.84598   0.10975   0.46132   0.00000  Uiso   1.00
C248   C     0.86961   0.09188   0.48089   0.00000  Uiso   1.00
C249   C     0.86618   0.10375   0.02178   0.00000  Uiso   1.00
C250   C     0.84011   0.13554   0.04183   0.00000  Uiso   1.00
C251   C     0.88733   0.08454   0.04357   0.00000  Uiso   1.00
C252   C     0.88539   0.09955   0.08334   0.00000  Uiso   1.00
C253   C     0.84392   0.15392   0.07966   0.00000  Uiso   1.00
H254   H     0.75415   0.23568   0.40708   0.00000  Uiso   1.00
H255   H     0.84800   0.15699   0.40311   0.00000  Uiso   1.00
C256   C     0.99371   0.17888   0.23957   0.00000  Uiso   1.00
C257   C     0.67406   0.15531   0.26113   0.00000  Uiso   1.00
C258   C     0.84797   0.32212   0.23592   0.00000  Uiso   1.00
C259   C     0.81971   0.01207   0.26166   0.00000  Uiso   1.00
H260   H     0.79451   0.33212   0.28588   0.00000  Uiso   1.00
N261   N     0.71576   0.20697   0.04756   0.00000  Uiso   1.00
O262   O     0.67967   0.19395   0.03843   0.00000  Uiso   1.00
O263   O     0.71513   0.23041   0.08065   0.00000  Uiso   1.00
N264   N     0.90787   0.04779   0.02701   0.00000  Uiso   1.00
O265   O     0.94822   0.04753   0.02521   0.00000  Uiso   1.00
O266   O     0.88464   0.01286   0.01972   0.00000  Uiso   1.00
N267   N     0.68936   0.21016   0.21621   0.00000  Uiso   1.00
O268   O     0.67624   0.24528   0.21411   0.00000  Uiso   1.00
O269   O     0.72711   0.20214   0.19384   0.00000  Uiso   1.00
O270   O     0.98037   0.12154   0.27875   0.00000  Uiso   1.00
C271   C     0.98280   0.12122   0.31800   0.00000  Uiso   1.00
H272   H     0.98228   0.15311   0.33435   0.00000  Uiso   1.00
H273   H     0.67930   0.10856   0.31771   0.00000  Uiso   1.00
C274   C     0.94399   0.09322   0.34032   0.00000  Uiso   1.00
H275   H     0.94371   0.06089   0.32535   0.00000  Uiso   1.00
H276   H     0.94553   0.09257   0.37121   0.00000  Uiso   1.00
H277   H     0.91370   0.10533   0.34125   0.00000  Uiso   1.00
N278   N     0.88198   0.00624   0.20385   0.00000  Uiso   1.00
O279   O     0.89442   0.31715   0.17011   0.00000  Uiso   1.00
O280   O     0.90329   0.04288   0.20923   0.00000  Uiso   1.00
O281   O     0.82769   0.19100   0.09666   0.00000  Uiso   1.00
C282   C     0.85783   0.22465   0.08090   0.00000  Uiso   1.00
H283   H     0.86534   0.22226   0.04790   0.00000  Uiso   1.00
H284   H     0.88820   0.22579   0.08966   0.00000  Uiso   1.00
C285   C     0.83887   0.26530   0.09734   0.00000  Uiso   1.00
H286   H     0.83152   0.26909   0.13025   0.00000  Uiso   1.00
H287   H     0.86232   0.29205   0.08524   0.00000  Uiso   1.00
H288   H     0.80874   0.26514   0.08861   0.00000  Uiso   1.00
N289   N     0.90434   0.07868   0.10623   0.00000  Uiso   1.00
O290   O     0.92884   0.10006   0.12718   0.00000  Uiso   1.00
O291   O     0.89606   0.03838   0.10724   0.00000  Uiso   1.00
N292   N     0.90048   0.06514   0.45734   0.00000  Uiso   1.00
O293   O     0.94146   0.07823   0.45072   0.00000  Uiso   1.00
O294   O     0.88805   0.03101   0.43756   0.00000  Uiso   1.00
O295   O     0.72675   0.24712   0.48397   0.00000  Uiso   1.00
C296   C     0.75084   0.28648   0.48938   0.00000  Uiso   1.00
H297   H     0.76821   0.29860   0.46025   0.00000  Uiso   1.00
H298   H     0.77457   0.28451   0.00612   0.00000  Uiso   1.00
C299   C     0.72043   0.31753   0.01313   0.00000  Uiso   1.00
H300   H     0.70306   0.30671   0.04269   0.00000  Uiso   1.00
H301   H     0.73910   0.01529   0.01739   0.00000  Uiso   1.00
H302   H     0.69657   0.32059   0.49704   0.00000  Uiso   1.00
O303   O     0.75577   0.16226   0.08386   0.00000  Uiso   1.00
C304   C     0.73183   0.12213   0.08630   0.00000  Uiso   1.00
H305   H     0.75333   0.09725   0.07444   0.00000  Uiso   1.00
H306   H     0.70698   0.11848   0.06964   0.00000  Uiso   1.00
C307   C     0.70890   0.11633   0.12961   0.00000  Uiso   1.00
H308   H     0.68658   0.14028   0.14219   0.00000  Uiso   1.00
H309   H     0.69003   0.08482   0.13195   0.00000  Uiso   1.00
H310   H     0.73288   0.11937   0.14698   0.00000  Uiso   1.00
O311   O     0.84701   0.09356   0.42276   0.00000  Uiso   1.00
C312   C     0.80860   0.06642   0.42307   0.00000  Uiso   1.00
H313   H     0.77980   0.08349   0.43443   0.00000  Uiso   1.00
H314   H     0.80496   0.04044   0.44172   0.00000  Uiso   1.00
C315   C     0.81026   0.04766   0.38084   0.00000  Uiso   1.00
H316   H     0.83861   0.03020   0.36860   0.00000  Uiso   1.00
H317   H     0.78047   0.02587   0.38065   0.00000  Uiso   1.00
H318   H     0.81282   0.07288   0.36179   0.00000  Uiso   1.00
Zn319  Zn    0.19244   0.47423   0.28277   0.00000  Uiso   1.00
Zn320  Zn    0.13459   0.45711   0.22258   0.00000  Uiso   1.00
Zn321  Zn    0.21166   0.52997   0.21188   0.00000  Uiso   1.00
Zn322  Zn    0.12798   0.53868   0.28277   0.00000  Uiso   1.00
O323   O     0.16667   0.50000   0.25000   0.00000  Uiso   1.00
O324   O     0.06990   0.52293   0.27820   0.00000  Uiso   1.00
O325   O     0.25440   0.48610   0.26767   0.00000  Uiso   1.00
O326   O     0.13800   0.40236   0.23607   0.00000  Uiso   1.00
O327   O     0.20437   0.58860   0.21806   0.00000  Uiso   1.00
O328   O     0.15693   0.45726   0.16625   0.00000  Uiso   1.00
O329   O     0.12687   0.53979   0.33749   0.00000  Uiso   1.00
O330   O     0.21088   0.50826   0.15877   0.00000  Uiso   1.00
O331   O     0.17198   0.49468   0.33749   0.00000  Uiso   1.00
O332   O     0.17849   0.41434   0.27820   0.00000  Uiso   1.00
O333   O     0.14581   0.59469   0.26767   0.00000  Uiso   1.00
O334   O     0.07452   0.46584   0.23607   0.00000  Uiso   1.00
O335   O     0.26785   0.52512   0.21805   0.00000  Uiso   1.00
C336   C     0.05265   0.49269   0.25879   0.00000  Uiso   1.00
C337   C     0.28114   0.50732   0.24149   0.00000  Uiso   1.00
C338   C     0.15553   0.38944   0.25933   0.00000  Uiso   1.00
C339   C     0.17683   0.61095   0.24068   0.00000  Uiso   1.00
C340   C     0.18800   0.47868   0.14381   0.00000  Uiso   1.00
C341   C     0.14561   0.52096   0.35634   0.00000  Uiso   1.00
C342   C     0.13359   0.52593   0.40015   0.00000  Uiso   1.00
C343   C     0.19736   0.46777   0.10091   0.00000  Uiso   1.00
C344   C     0.08842   0.55242   0.46349   0.00000  Uiso   1.00
C345   C     0.10170   0.55049   0.42200   0.00000  Uiso   1.00
C346   C     0.15291   0.50406   0.42020   0.00000  Uiso   1.00
C347   C     0.13678   0.50100   0.46133   0.00000  Uiso   1.00
C348   C     0.10385   0.52570   0.48351   0.00000  Uiso   1.00
C349   C     0.15444   0.47583   0.48117   0.00000  Uiso   1.00
C350   C     0.14612   0.48314   0.02279   0.00000  Uiso   1.00
C351   C     0.10842   0.50149   0.04427   0.00000  Uiso   1.00
C352   C     0.08775   0.52314   0.02491   0.00000  Uiso   1.00
C353   C     0.17931   0.44309   0.46132   0.00000  Uiso   1.00
C354   C     0.20295   0.42522   0.48089   0.00000  Uiso   1.00
C355   C     0.19951   0.43708   0.02178   0.00000  Uiso   1.00
C356   C     0.17344   0.46887   0.04183   0.00000  Uiso   1.00
C357   C     0.22066   0.41787   0.04357   0.00000  Uiso   1.00
C358   C     0.21872   0.43288   0.08334   0.00000  Uiso   1.00
C359   C     0.17725   0.48726   0.07966   0.00000  Uiso   1.00
H360   H     0.08749   0.56901   0.40708   0.00000  Uiso   1.00
H361   H     0.18134   0.49032   0.40311   0.00000  Uiso   1.00
C362   C     0.32704   0.51221   0.23957   0.00000  Uiso   1.00
C363   C     0.00739   0.48864   0.26113   0.00000  Uiso   1.00
C364   C     0.18130   0.65545   0.23592   0.00000  Uiso   1.00
C365   C     0.15304   0.34540   0.26166   0.00000  Uiso   1.00
H366   H     0.12784   0.66546   0.28588   0.00000  Uiso   1.00
N367   N     0.04909   0.54030   0.04756   0.00000  Uiso   1.00
O368   O     0.01301   0.52729   0.03843   0.00000  Uiso   1.00
O369   O     0.04846   0.56374   0.08065   0.00000  Uiso   1.00
N370   N     0.24120   0.38112   0.02701   0.00000  Uiso   1.00
O371   O     0.28155   0.38086   0.02521   0.00000  Uiso   1.00
O372   O     0.21797   0.34619   0.01972   0.00000  Uiso   1.00
N373   N     0.02270   0.54349   0.21621   0.00000  Uiso   1.00
O374   O     0.00957   0.57861   0.21411   0.00000  Uiso   1.00
O375   O     0.06045   0.53548   0.19384   0.00000  Uiso   1.00
O376   O     0.31370   0.45488   0.27875   0.00000  Uiso   1.00
C377   C     0.31614   0.45456   0.31800   0.00000  Uiso   1.00
H378   H     0.31562   0.48644   0.33435   0.00000  Uiso   1.00
H379   H     0.01264   0.44190   0.31771   0.00000  Uiso   1.00
C380   C     0.27732   0.42655   0.34032   0.00000  Uiso   1.00
H381   H     0.27705   0.39422   0.32535   0.00000  Uiso   1.00
H382   H     0.27886   0.42590   0.37121   0.00000  Uiso   1.00
H383   H     0.24704   0.43867   0.34125   0.00000  Uiso   1.00
N384   N     0.21532   0.33958   0.20385   0.00000  Uiso   1.00
O385   O     0.22775   0.65048   0.17011   0.00000  Uiso   1.00
O386   O     0.23662   0.37622   0.20923   0.00000  Uiso   1.00
O387   O     0.16102   0.52434   0.09666   0.00000  Uiso   1.00
C388   C     0.19117   0.55799   0.08090   0.00000  Uiso   1.00
H389   H     0.19867   0.55559   0.04790   0.00000  Uiso   1.00
H390   H     0.22154   0.55912   0.08966   0.00000  Uiso   1.00
C391   C     0.17220   0.59863   0.09734   0.00000  Uiso   1.00
H392   H     0.16485   0.60242   0.13025   0.00000  Uiso   1.00
H393   H     0.19565   0.62538   0.08524   0.00000  Uiso   1.00
H394   H     0.14207   0.59847   0.08861   0.00000  Uiso   1.00
N395   N     0.23767   0.41201   0.10623   0.00000  Uiso   1.00
O396   O     0.26217   0.43339   0.12718   0.00000  Uiso   1.00
O397   O     0.22940   0.37171   0.10724   0.00000  Uiso   1.00
N398   N     0.23381   0.39847   0.45734   0.00000  Uiso   1.00
O399   O     0.27479   0.41157   0.45072   0.00000  Uiso   1.00
O400   O     0.22138   0.36434   0.43756   0.00000  Uiso   1.00
O401   O     0.06008   0.58045   0.48397   0.00000  Uiso   1.00
C402   C     0.08417   0.61981   0.48938   0.00000  Uiso   1.00
H403   H     0.10154   0.63194   0.46025   0.00000  Uiso   1.00
H404   H     0.10791   0.61785   0.00612   0.00000  Uiso   1.00
C405   C     0.05376   0.65086   0.01313   0.00000  Uiso   1.00
H406   H     0.03639   0.64004   0.04269   0.00000  Uiso   1.00
H407   H     0.07243   0.34862   0.01739   0.00000  Uiso   1.00
H408   H     0.02990   0.65392   0.49704   0.00000  Uiso   1.00
O409   O     0.08911   0.49559   0.08386   0.00000  Uiso   1.00
C410   C     0.06516   0.45547   0.08630   0.00000  Uiso   1.00
H411   H     0.08666   0.43059   0.07444   0.00000  Uiso   1.00
H412   H     0.04031   0.45182   0.06964   0.00000  Uiso   1.00
C413   C     0.04224   0.44966   0.12961   0.00000  Uiso   1.00
H414   H     0.01992   0.47362   0.14219   0.00000  Uiso   1.00
H415   H     0.02336   0.41815   0.13195   0.00000  Uiso   1.00
H416   H     0.06622   0.45271   0.14698   0.00000  Uiso   1.00
O417   O     0.18034   0.42689   0.42276   0.00000  Uiso   1.00
C418   C     0.14193   0.39975   0.42307   0.00000  Uiso   1.00
H419   H     0.11313   0.41683   0.43443   0.00000  Uiso   1.00
H420   H     0.13829   0.37377   0.44172   0.00000  Uiso   1.00
C421   C     0.14359   0.38099   0.38084   0.00000  Uiso   1.00
H422   H     0.17194   0.36354   0.36860   0.00000  Uiso   1.00
H423   H     0.11380   0.35920   0.38065   0.00000  Uiso   1.00
H424   H     0.14615   0.40621   0.36179   0.00000  Uiso   1.00
Zn425  Zn    0.52577   0.47423   0.28277   0.00000  Uiso   1.00
Zn426  Zn    0.46792   0.45711   0.22258   0.00000  Uiso   1.00
Zn427  Zn    0.54500   0.52997   0.21188   0.00000  Uiso   1.00
Zn428  Zn    0.46131   0.53868   0.28277   0.00000  Uiso   1.00
O429   O     0.50000   0.50000   0.25000   0.00000  Uiso   1.00
O430   O     0.40323   0.52293   0.27820   0.00000  Uiso   1.00
O431   O     0.58773   0.48610   0.26767   0.00000  Uiso   1.00
O432   O     0.47133   0.40236   0.23607   0.00000  Uiso   1.00
O433   O     0.53771   0.58860   0.21806   0.00000  Uiso   1.00
O434   O     0.49027   0.45726   0.16625   0.00000  Uiso   1.00
O435   O     0.46020   0.53979   0.33749   0.00000  Uiso   1.00
O436   O     0.54421   0.50826   0.15877   0.00000  Uiso   1.00
O437   O     0.50532   0.49468   0.33749   0.00000  Uiso   1.00
O438   O     0.51182   0.41434   0.27820   0.00000  Uiso   1.00
O439   O     0.47914   0.59469   0.26767   0.00000  Uiso   1.00
O440   O     0.40785   0.46584   0.23607   0.00000  Uiso   1.00
O441   O     0.60119   0.52512   0.21805   0.00000  Uiso   1.00
C442   C     0.38598   0.49269   0.25879   0.00000  Uiso   1.00
C443   C     0.61448   0.50732   0.24149   0.00000  Uiso   1.00
C444   C     0.48887   0.38944   0.25933   0.00000  Uiso   1.00
C445   C     0.51016   0.61095   0.24068   0.00000  Uiso   1.00
C446   C     0.52134   0.47868   0.14381   0.00000  Uiso   1.00
C447   C     0.47894   0.52096   0.35634   0.00000  Uiso   1.00
C448   C     0.46692   0.52593   0.40015   0.00000  Uiso   1.00
C449   C     0.53069   0.46777   0.10091   0.00000  Uiso   1.00
C450   C     0.42176   0.55242   0.46349   0.00000  Uiso   1.00
C451   C     0.43503   0.55049   0.42200   0.00000  Uiso   1.00
C452   C     0.48624   0.50406   0.42020   0.00000  Uiso   1.00
C453   C     0.47011   0.50100   0.46133   0.00000  Uiso   1.00
C454   C     0.43719   0.52570   0.48351   0.00000  Uiso   1.00
C455   C     0.48777   0.47583   0.48117   0.00000  Uiso   1.00
C456   C     0.47946   0.48314   0.02279   0.00000  Uiso   1.00
C457   C     0.44175   0.50149   0.04427   0.00000  Uiso   1.00
C458   C     0.42108   0.52314   0.02491   0.00000  Uiso   1.00
C459   C     0.51265   0.44309   0.46132   0.00000  Uiso   1.00
C460   C     0.53628   0.42522   0.48089   0.00000  Uiso   1.00
C461   C     0.53284   0.43708   0.02178   0.00000  Uiso   1.00
C462   C     0.50677   0.46887   0.04183   0.00000  Uiso   1.00
C463   C     0.55399   0.41787   0.04357   0.00000  Uiso   1.00
C464   C     0.55206   0.43288   0.08334   0.00000  Uiso   1.00
C465   C     0.51058   0.48726   0.07966   0.00000  Uiso   1.00
H466   H     0.42082   0.56901   0.40708   0.00000  Uiso   1.00
H467   H     0.51467   0.49032   0.40311   0.00000  Uiso   1.00
C468   C     0.66038   0.51221   0.23957   0.00000  Uiso   1.00
C469   C     0.34072   0.48864   0.26113   0.00000  Uiso   1.00
C470   C     0.51464   0.65545   0.23592   0.00000  Uiso   1.00
C471   C     0.48638   0.34540   0.26166   0.00000  Uiso   1.00
H472   H     0.46117   0.66546   0.28588   0.00000  Uiso   1.00
N473   N     0.38243   0.54030   0.04756   0.00000  Uiso   1.00
O474   O     0.34634   0.52729   0.03843   0.00000  Uiso   1.00
O475   O     0.38180   0.56374   0.08065   0.00000  Uiso   1.00
N476   N     0.57453   0.38112   0.02701   0.00000  Uiso   1.00
O477   O     0.61488   0.38086   0.02521   0.00000  Uiso   1.00
O478   O     0.55130   0.34619   0.01972   0.00000  Uiso   1.00
N479   N     0.35603   0.54349   0.21621   0.00000  Uiso   1.00
O480   O     0.34290   0.57861   0.21411   0.00000  Uiso   1.00
O481   O     0.39378   0.53548   0.19384   0.00000  Uiso   1.00
O482   O     0.64703   0.45488   0.27875   0.00000  Uiso   1.00
C483   C     0.64947   0.45456   0.31800   0.00000  Uiso   1.00
H484   H     0.64895   0.48644   0.33435   0.00000  Uiso   1.00
H485   H     0.34597   0.44190   0.31771   0.00000  Uiso   1.00
C486   C     0.61065   0.42655   0.34032   0.00000  Uiso   1.00
H487   H     0.61038   0.39422   0.32535   0.00000  Uiso   1.00
H488   H     0.61219   0.42590   0.37121   0.00000  Uiso   1.00
H489   H     0.58037   0.43867   0.34125   0.00000  Uiso   1.00
N490   N     0.54865   0.33958   0.20385   0.00000  Uiso   1.00
O491   O     0.56108   0.65048   0.17011   0.00000  Uiso   1.00
O492   O     0.56995   0.37622   0.20923   0.00000  Uiso   1.00
O493   O     0.49435   0.52434   0.09666   0.00000  Uiso   1.00
C494   C     0.52450   0.55799   0.08090   0.00000  Uiso   1.00
H495   H     0.53201   0.55559   0.04790   0.00000  Uiso   1.00
H496   H     0.55487   0.55912   0.08966   0.00000  Uiso   1.00
C497   C     0.50553   0.59863   0.09734   0.00000  Uiso   1.00
H498   H     0.49818   0.60242   0.13025   0.00000  Uiso   1.00
H499   H     0.52898   0.62538   0.08524   0.00000  Uiso   1.00
H500   H     0.47540   0.59847   0.08861   0.00000  Uiso   1.00
N501   N     0.57101   0.41201   0.10623   0.00000  Uiso   1.00
O502   O     0.59551   0.43339   0.12718   0.00000  Uiso   1.00
O503   O     0.56273   0.37171   0.10724   0.00000  Uiso   1.00
N504   N     0.56714   0.39847   0.45734   0.00000  Uiso   1.00
O505   O     0.60813   0.41157   0.45072   0.00000  Uiso   1.00
O506   O     0.55471   0.36434   0.43756   0.00000  Uiso   1.00
O507   O     0.39342   0.58045   0.48397   0.00000  Uiso   1.00
C508   C     0.41750   0.61981   0.48938   0.00000  Uiso   1.00
H509   H     0.43488   0.63194   0.46025   0.00000  Uiso   1.00
H510   H     0.44124   0.61785   0.00612   0.00000  Uiso   1.00
C511   C     0.38709   0.65086   0.01313   0.00000  Uiso   1.00
H512   H     0.36973   0.64004   0.04269   0.00000  Uiso   1.00
H513   H     0.40577   0.34862   0.01739   0.00000  Uiso   1.00
H514   H     0.36324   0.65392   0.49704   0.00000  Uiso   1.00
O515   O     0.42244   0.49559   0.08386   0.00000  Uiso   1.00
C516   C     0.39849   0.45547   0.08630   0.00000  Uiso   1.00
H517   H     0.42000   0.43059   0.07444   0.00000  Uiso   1.00
H518   H     0.37364   0.45182   0.06964   0.00000  Uiso   1.00
C519   C     0.37557   0.44966   0.12961   0.00000  Uiso   1.00
H520   H     0.35325   0.47362   0.14219   0.00000  Uiso   1.00
H521   H     0.35670   0.41815   0.13195   0.00000  Uiso   1.00
H522   H     0.39955   0.45271   0.14698   0.00000  Uiso   1.00
O523   O     0.51367   0.42689   0.42276   0.00000  Uiso   1.00
C524   C     0.47526   0.39975   0.42307   0.00000  Uiso   1.00
H525   H     0.44646   0.41683   0.43443   0.00000  Uiso   1.00
H526   H     0.47162   0.37377   0.44172   0.00000  Uiso   1.00
C527   C     0.47693   0.38099   0.38084   0.00000  Uiso   1.00
H528   H     0.50527   0.36354   0.36860   0.00000  Uiso   1.00
H529   H     0.44714   0.35920   0.38065   0.00000  Uiso   1.00
H530   H     0.47949   0.40621   0.36179   0.00000  Uiso   1.00
Zn531  Zn    0.85910   0.47423   0.28277   0.00000  Uiso   1.00
Zn532  Zn    0.80125   0.45711   0.22258   0.00000  Uiso   1.00
Zn533  Zn    0.87833   0.52997   0.21188   0.00000  Uiso   1.00
Zn534  Zn    0.79465   0.53868   0.28277   0.00000  Uiso   1.00
O535   O     0.83333   0.50000   0.25000   0.00000  Uiso   1.00
O536   O     0.73656   0.52293   0.27820   0.00000  Uiso   1.00
O537   O     0.92106   0.48610   0.26767   0.00000  Uiso   1.00
O538   O     0.80467   0.40236   0.23607   0.00000  Uiso   1.00
O539   O     0.87104   0.58860   0.21806   0.00000  Uiso   1.00
O540   O     0.82360   0.45726   0.16625   0.00000  Uiso   1.00
O541   O     0.79354   0.53979   0.33749   0.00000  Uiso   1.00
O542   O     0.87755   0.50826   0.15877   0.00000  Uiso   1.00
O543   O     0.83865   0.49468   0.33749   0.00000  Uiso   1.00
O544   O     0.84515   0.41434   0.27820   0.00000  Uiso   1.00
O545   O     0.81247   0.59469   0.26767   0.00000  Uiso   1.00
O546   O     0.74119   0.46584   0.23607   0.00000  Uiso   1.00
O547   O     0.93452   0.52512   0.21805   0.00000  Uiso   1.00
C548   C     0.71932   0.49269   0.25879   0.00000  Uiso   1.00
C549   C     0.94781   0.50732   0.24149   0.00000  Uiso   1.00
C550   C     0.82220   0.38944   0.25933   0.00000  Uiso   1.00
C551   C     0.84349   0.61095   0.24068   0.00000  Uiso   1.00
C552   C     0.85467   0.47868   0.14381   0.00000  Uiso   1.00
C553   C     0.81228   0.52096   0.35634   0.00000  Uiso   1.00
C554   C     0.80025   0.52593   0.40015   0.00000  Uiso   1.00
C555   C     0.86402   0.46777   0.10091   0.00000  Uiso   1.00
C556   C     0.75509   0.55242   0.46349   0.00000  Uiso   1.00
C557   C     0.76836   0.55049   0.42200   0.00000  Uiso   1.00
C558   C     0.81957   0.50406   0.42020   0.00000  Uiso   1.00
C559   C     0.80344   0.50100   0.46133   0.00000  Uiso   1.00
C560   C     0.77052   0.52570   0.48351   0.00000  Uiso   1.00
C561   C     0.82111   0.47583   0.48117   0.00000  Uiso   1.00
C562   C     0.81279   0.48314   0.02279   0.00000  Uiso   1.00
C563   C     0.77509   0.50149   0.04427   0.00000  Uiso   1.00
C564   C     0.75441   0.52314   0.02491   0.00000  Uiso   1.00
C565   C     0.84598   0.44309   0.46132   0.00000  Uiso   1.00
C566   C     0.86961   0.42522   0.48089   0.00000  Uiso   1.00
C567   C     0.86618   0.43708   0.02178   0.00000  Uiso   1.00
C568   C     0.84011   0.46887   0.04183   0.00000  Uiso   1.00
C569   C     0.88733   0.41787   0.04357   0.00000  Uiso   1.00
C570   C     0.88539   0.43288   0.08334   0.00000  Uiso   1.00
C571   C     0.84392   0.48726   0.07966   0.00000  Uiso   1.00
H572   H     0.75415   0.56901   0.40708   0.00000  Uiso   1.00
H573   H     0.84800   0.49032   0.40311   0.00000  Uiso   1.00
C574   C     0.99371   0.51221   0.23957   0.00000  Uiso   1.00
C575   C     0.67406   0.48864   0.26113   0.00000  Uiso   1.00
C576   C     0.84797   0.65545   0.23592   0.00000  Uiso   1.00
C577   C     0.81971   0.34540   0.26166   0.00000  Uiso   1.00
H578   H     0.79451   0.66546   0.28588   0.00000  Uiso   1.00
N579   N     0.71576   0.54030   0.04756   0.00000  Uiso   1.00
O580   O     0.67967   0.52729   0.03843   0.00000  Uiso   1.00
O581   O     0.71513   0.56374   0.08065   0.00000  Uiso   1.00
N582   N     0.90787   0.38112   0.02701   0.00000  Uiso   1.00
O583   O     0.94822   0.38086   0.02521   0.00000  Uiso   1.00
O584   O     0.88464   0.34619   0.01972   0.00000  Uiso   1.00
N585   N     0.68936   0.54349   0.21621   0.00000  Uiso   1.00
O586   O     0.67624   0.57861   0.21411   0.00000  Uiso   1.00
O587   O     0.72711   0.53548   0.19384   0.00000  Uiso   1.00
O588   O     0.98037   0.45488   0.27875   0.00000  Uiso   1.00
C589   C     0.98280   0.45456   0.31800   0.00000  Uiso   1.00
H590   H     0.98228   0.48644   0.33435   0.00000  Uiso   1.00
H591   H     0.67930   0.44190   0.31771   0.00000  Uiso   1.00
C592   C     0.94399   0.42655   0.34032   0.00000  Uiso   1.00
H593   H     0.94371   0.39422   0.32535   0.00000  Uiso   1.00
H594   H     0.94553   0.42590   0.37121   0.00000  Uiso   1.00
H595   H     0.91370   0.43867   0.34125   0.00000  Uiso   1.00
N596   N     0.88198   0.33958   0.20385   0.00000  Uiso   1.00
O597   O     0.89442   0.65048   0.17011   0.00000  Uiso   1.00
O598   O     0.90329   0.37622   0.20923   0.00000  Uiso   1.00
O599   O     0.82769   0.52434   0.09666   0.00000  Uiso   1.00
C600   C     0.85783   0.55799   0.08090   0.00000  Uiso   1.00
H601   H     0.86534   0.55559   0.04790   0.00000  Uiso   1.00
H602   H     0.88820   0.55912   0.08966   0.00000  Uiso   1.00
C603   C     0.83887   0.59863   0.09734   0.00000  Uiso   1.00
H604   H     0.83152   0.60242   0.13025   0.00000  Uiso   1.00
H605   H     0.86232   0.62538   0.08524   0.00000  Uiso   1.00
H606   H     0.80874   0.59847   0.08861   0.00000  Uiso   1.00
N607   N     0.90434   0.41201   0.10623   0.00000  Uiso   1.00
O608   O     0.92884   0.43339   0.12718   0.00000  Uiso   1.00
O609   O     0.89606   0.37171   0.10724   0.00000  Uiso   1.00
N610   N     0.90048   0.39847   0.45734   0.00000  Uiso   1.00
O611   O     0.94146   0.41157   0.45072   0.00000  Uiso   1.00
O612   O     0.88805   0.36434   0.43756   0.00000  Uiso   1.00
O613   O     0.72675   0.58045   0.48397   0.00000  Uiso   1.00
C614   C     0.75084   0.61981   0.48938   0.00000  Uiso   1.00
H615   H     0.76821   0.63194   0.46025   0.00000  Uiso   1.00
H616   H     0.77457   0.61785   0.00612   0.00000  Uiso   1.00
C617   C     0.72043   0.65086   0.01313   0.00000  Uiso   1.00
H618   H     0.70306   0.64004   0.04269   0.00000  Uiso   1.00
H619   H     0.73910   0.34862   0.01739   0.00000  Uiso   1.00
H620   H     0.69657   0.65392   0.49704   0.00000  Uiso   1.00
O621   O     0.75577   0.49559   0.08386   0.00000  Uiso   1.00
C622   C     0.73183   0.45547   0.08630   0.00000  Uiso   1.00
H623   H     0.75333   0.43059   0.07444   0.00000  Uiso   1.00
H624   H     0.70698   0.45182   0.06964   0.00000  Uiso   1.00
C625   C     0.70890   0.44966   0.12961   0.00000  Uiso   1.00
H626   H     0.68658   0.47362   0.14219   0.00000  Uiso   1.00
H627   H     0.69003   0.41815   0.13195   0.00000  Uiso   1.00
H628   H     0.73288   0.45271   0.14698   0.00000  Uiso   1.00
O629   O     0.84701   0.42689   0.42276   0.00000  Uiso   1.00
C630   C     0.80860   0.39975   0.42307   0.00000  Uiso   1.00
H631   H     0.77980   0.41683   0.43443   0.00000  Uiso   1.00
H632   H     0.80496   0.37377   0.44172   0.00000  Uiso   1.00
C633   C     0.81026   0.38099   0.38084   0.00000  Uiso   1.00
H634   H     0.83861   0.36354   0.36860   0.00000  Uiso   1.00
H635   H     0.78047   0.35920   0.38065   0.00000  Uiso   1.00
H636   H     0.81282   0.40621   0.36179   0.00000  Uiso   1.00
Zn637  Zn    0.19244   0.80756   0.28277   0.00000  Uiso   1.00
Zn638  Zn    0.13459   0.79044   0.22258   0.00000  Uiso   1.00
Zn639  Zn    0.21166   0.86331   0.21188   0.00000  Uiso   1.00
Zn640  Zn    0.12798   0.87202   0.28277   0.00000  Uiso   1.00
O641   O     0.16667   0.83333   0.25000   0.00000  Uiso   1.00
O642   O     0.06990   0.85627   0.27820   0.00000  Uiso   1.00
O643   O     0.25440   0.81944   0.26767   0.00000  Uiso   1.00
O644   O     0.13800   0.73570   0.23607   0.00000  Uiso   1.00
O645   O     0.20437   0.92193   0.21806   0.00000  Uiso   1.00
O646   O     0.15693   0.79060   0.16625   0.00000  Uiso   1.00
O647   O     0.12687   0.87313   0.33749   0.00000  Uiso   1.00
O648   O     0.21088   0.84159   0.15877   0.00000  Uiso   1.00
O649   O     0.17198   0.82802   0.33749   0.00000  Uiso   1.00
O650   O     0.17849   0.74768   0.27820   0.00000  Uiso   1.00
O651   O     0.14581   0.92803   0.26767   0.00000  Uiso   1.00
O652   O     0.07452   0.79917   0.23607   0.00000  Uiso   1.00
O653   O     0.26785   0.85845   0.21805   0.00000  Uiso   1.00
C654   C     0.05265   0.82603   0.25879   0.00000  Uiso   1.00
C655   C     0.28114   0.84065   0.24149   0.00000  Uiso   1.00
C656   C     0.15553   0.72277   0.25933   0.00000  Uiso   1.00
C657   C     0.17683   0.94429   0.24068   0.00000  Uiso   1.00
C658   C     0.18800   0.81202   0.14381   0.00000  Uiso   1.00
C659   C     0.14561   0.85430   0.35634   0.00000  Uiso   1.00
C660   C     0.13359   0.85927   0.40015   0.00000  Uiso   1.00
C661   C     0.19736   0.80110   0.10091   0.00000  Uiso   1.00
C662   C     0.08842   0.88575   0.46349   0.00000  Uiso   1.00
C663   C     0.10170   0.88383   0.42200   0.00000  Uiso   1.00
C664   C     0.15291   0.83739   0.42020   0.00000  Uiso   1.00
C665   C     0.13678   0.83433   0.46133   0.00000  Uiso   1.00
C666   C     0.10385   0.85903   0.48351   0.00000  Uiso   1.00
C667   C     0.15444   0.80916   0.48117   0.00000  Uiso   1.00
C668   C     0.14612   0.81647   0.02279   0.00000  Uiso   1.00
C669   C     0.10842   0.83482   0.04427   0.00000  Uiso   1.00
C670   C     0.08775   0.85648   0.02491   0.00000  Uiso   1.00
C671   C     0.17931   0.77642   0.46132   0.00000  Uiso   1.00
C672   C     0.20295   0.75855   0.48089   0.00000  Uiso   1.00
C673   C     0.19951   0.77042   0.02178   0.00000  Uiso   1.00
C674   C     0.17344   0.80221   0.04183   0.00000  Uiso   1.00
C675   C     0.22066   0.75121   0.04357   0.00000  Uiso   1.00
C676   C     0.21872   0.76622   0.08334   0.00000  Uiso   1.00
C677   C     0.17725   0.82059   0.07966   0.00000  Uiso   1.00
H678   H     0.08749   0.90234   0.40708   0.00000  Uiso   1.00
H679   H     0.18134   0.82366   0.40311   0.00000  Uiso   1.00
C680   C     0.32704   0.84555   0.23957   0.00000  Uiso   1.00
C681   C     0.00739   0.82197   0.26113   0.00000  Uiso   1.00
C682   C     0.18130   0.98878   0.23592   0.00000  Uiso   1.00
C683   C     0.15304   0.67873   0.26166   0.00000  Uiso   1.00
H684   H     0.12784   0.99879   0.28588   0.00000  Uiso   1.00
N685   N     0.04909   0.87363   0.04756   0.00000  Uiso   1.00
O686   O     0.01301   0.86062   0.03843   0.00000  Uiso   1.00
O687   O     0.04846   0.89707   0.08065   0.00000  Uiso   1.00
N688   N     0.24120   0.71446   0.02701   0.00000  Uiso   1.00
O689   O     0.28155   0.71420   0.02521   0.00000  Uiso   1.00
O690   O     0.21797   0.67952   0.01972   0.00000  Uiso   1.00
N691   N     0.02270   0.87682   0.21621   0.00000  Uiso   1.00
O692   O     0.00957   0.91195   0.21411   0.00000  Uiso   1.00
O693   O     0.06045   0.86881   0.19384   0.00000  Uiso   1.00
O694   O     0.31370   0.78821   0.27875   0.00000  Uiso   1.00
C695   C     0.31614   0.78789   0.31800   0.00000  Uiso   1.00
H696   H     0.31562   0.81977   0.33435   0.00000  Uiso   1.00
H697   H     0.01264   0.77523   0.31771   0.00000  Uiso   1.00
C698   C     0.27732   0.75988   0.34032   0.00000  Uiso   1.00
H699   H     0.27705   0.72755   0.32535   0.00000  Uiso   1.00
H700   H     0.27886   0.75924   0.37121   0.00000  Uiso   1.00
H701   H     0.24704   0.77200   0.34125   0.00000  Uiso   1.00
N702   N     0.21532   0.67291   0.20385   0.00000  Uiso   1.00
O703   O     0.22775   0.98381   0.17011   0.00000  Uiso   1.00
O704   O     0.23662   0.70955   0.20923   0.00000  Uiso   1.00
O705   O     0.16102   0.85767   0.09666   0.00000  Uiso   1.00
C706   C     0.19117   0.89132   0.08090   0.00000  Uiso   1.00
H707   H     0.19867   0.88893   0.04790   0.00000  Uiso   1.00
H708   H     0.22154   0.89246   0.08966   0.00000  Uiso   1.00
C709   C     0.17220   0.93196   0.09734   0.00000  Uiso   1.00
H710   H     0.16485   0.93575   0.13025   0.00000  Uiso   1.00
H711   H     0.19565   0.95872   0.08524   0.00000  Uiso   1.00
H712   H     0.14207   0.93181   0.08861   0.00000  Uiso   1.00
N713   N     0.23767   0.74535   0.10623   0.00000  Uiso   1.00
O714   O     0.26217   0.76673   0.12718   0.00000  Uiso   1.00
O715   O     0.22940   0.70504   0.10724   0.00000  Uiso   1.00
N716   N     0.23381   0.73180   0.45734   0.00000  Uiso   1.00
O717   O     0.27479   0.74490   0.45072   0.00000  Uiso   1.00
O718   O     0.22138   0.69768   0.43756   0.00000  Uiso   1.00
O719   O     0.06008   0.91378   0.48397   0.00000  Uiso   1.00
C720   C     0.08417   0.95315   0.48938   0.00000  Uiso   1.00
H721   H     0.10154   0.96527   0.46025   0.00000  Uiso   1.00
H722   H     0.10791   0.95118   0.00612   0.00000  Uiso   1.00
C723   C     0.05376   0.98419   0.01313   0.00000  Uiso   1.00
H724   H     0.03639   0.97337   0.04269   0.00000  Uiso   1.00
H725   H     0.07243   0.68195   0.01739   0.00000  Uiso   1.00
H726   H     0.02990   0.98726   0.49704   0.00000  Uiso   1.00
O727   O     0.08911   0.82893   0.08386   0.00000  Uiso   1.00
C728   C     0.06516   0.78880   0.08630   0.00000  Uiso   1.00
H729   H     0.08666   0.76392   0.07444   0.00000  Uiso   1.00
H730   H     0.04031   0.78515   0.06964   0.00000  Uiso   1.00
C731   C     0.04224   0.78299   0.12961   0.00000  Uiso   1.00
H732   H     0.01992   0.80695   0.14219   0.00000  Uiso   1.00
H733   H     0.02336   0.75148   0.13195   0.00000  Uiso   1.00
H734   H     0.06622   0.78604   0.14698   0.00000  Uiso   1.00
O735   O     0.18034   0.76023   0.42276   0.00000  Uiso   1.00
C736   C     0.14193   0.73309   0.42307   0.00000  Uiso   1.00
H737   H     0.11313   0.75016   0.43443   0.00000  Uiso   1.00
H738   H     0.13829   0.70710   0.44172   0.00000  Uiso   1.00
C739   C     0.14359   0.71432   0.38084   0.00000  Uiso   1.00
H740   H     0.17194   0.69687   0.36860   0.00000  Uiso   1.00
H741   H     0.11380   0.69254   0.38065   0.00000  Uiso   1.00
H742   H     0.14615   0.73954   0.36179   0.00000  Uiso   1.00
Zn743  Zn    0.52577   0.80756   0.28277   0.00000  Uiso   1.00
Zn744  Zn    0.46792   0.79044   0.22258   0.00000  Uiso   1.00
Zn745  Zn    0.54500   0.86331   0.21188   0.00000  Uiso   1.00
Zn746  Zn    0.46131   0.87202   0.28277   0.00000  Uiso   1.00
O747   O     0.50000   0.83333   0.25000   0.00000  Uiso   1.00
O748   O     0.40323   0.85627   0.27820   0.00000  Uiso   1.00
O749   O     0.58773   0.81944   0.26767   0.00000  Uiso   1.00
O750   O     0.47133   0.73570   0.23607   0.00000  Uiso   1.00
O751   O     0.53771   0.92193   0.21806   0.00000  Uiso   1.00
O752   O     0.49027   0.79060   0.16625   0.00000  Uiso   1.00
O753   O     0.46020   0.87313   0.33749   0.00000  Uiso   1.00
O754   O     0.54421   0.84159   0.15877   0.00000  Uiso   1.00
O755   O     0.50532   0.82802   0.33749   0.00000  Uiso   1.00
O756   O     0.51182   0.74768   0.27820   0.00000  Uiso   1.00
O757   O     0.47914   0.92803   0.26767   0.00000  Uiso   1.00
O758   O     0.40785   0.79917   0.23607   0.00000  Uiso   1.00
O759   O     0.60119   0.85845   0.21805   0.00000  Uiso   1.00
C760   C     0.38598   0.82603   0.25879   0.00000  Uiso   1.00
C761   C     0.61448   0.84065   0.24149   0.00000  Uiso   1.00
C762   C     0.48887   0.72277   0.25933   0.00000  Uiso   1.00
C763   C     0.51016   0.94429   0.24068   0.00000  Uiso   1.00
C764   C     0.52134   0.81202   0.14381   0.00000  Uiso   1.00
C765   C     0.47894   0.85430   0.35634   0.00000  Uiso   1.00
C766   C     0.46692   0.85927   0.40015   0.00000  Uiso   1.00
C767   C     0.53069   0.80110   0.10091   0.00000  Uiso   1.00
C768   C     0.42176   0.88575   0.46349   0.00000  Uiso   1.00
C769   C     0.43503   0.88383   0.42200   0.00000  Uiso   1.00
C770   C     0.48624   0.83739   0.42020   0.00000  Uiso   1.00
C771   C     0.47011   0.83433   0.46133   0.00000  Uiso   1.00
C772   C     0.43719   0.85903   0.48351   0.00000  Uiso   1.00
C773   C     0.48777   0.80916   0.48117   0.00000  Uiso   1.00
C774   C     0.47946   0.81647   0.02279   0.00000  Uiso   1.00
C775   C     0.44175   0.83482   0.04427   0.00000  Uiso   1.00
C776   C     0.42108   0.85648   0.02491   0.00000  Uiso   1.00
C777   C     0.51265   0.77642   0.46132   0.00000  Uiso   1.00
C778   C     0.53628   0.75855   0.48089   0.00000  Uiso   1.00
C779   C     0.53284   0.77042   0.02178   0.00000  Uiso   1.00
C780   C     0.50677   0.80221   0.04183   0.00000  Uiso   1.00
C781   C     0.55399   0.75121   0.04357   0.00000  Uiso   1.00
C782   C     0.55206   0.76622   0.08334   0.00000  Uiso   1.00
C783   C     0.51058   0.82059   0.07966   0.00000  Uiso   1.00
H784   H     0.42082   0.90234   0.40708   0.00000  Uiso   1.00
H785   H     0.51467   0.82366   0.40311   0.00000  Uiso   1.00
C786   C     0.66038   0.84555   0.23957   0.00000  Uiso   1.00
C787   C     0.34072   0.82197   0.26113   0.00000  Uiso   1.00
C788   C     0.51464   0.98878   0.23592   0.00000  Uiso   1.00
C789   C     0.48638   0.67873   0.26166   0.00000  Uiso   1.00
H790   H     0.46117   0.99879   0.28588   0.00000  Uiso   1.00
N791   N     0.38243   0.87363   0.04756   0.00000  Uiso   1.00
O792   O     0.34634   0.86062   0.03843   0.00000  Uiso   1.00
O793   O     0.38180   0.89707   0.08065   0.00000  Uiso   1.00
N794   N     0.57453   0.71446   0.02701   0.00000  Uiso   1.00
O795   O     0.61488   0.71420   0.02521   0.00000  Uiso   1.00
O796   O     0.55130   0.67952   0.01972   0.00000  Uiso   1.00
N797   N     0.35603   0.87682   0.21621   0.00000  Uiso   1.00
O798   O     0.34290   0.91195   0.21411   0.00000  Uiso   1.00
O799   O     0.39378   0.86881   0.19384   0.00000  Uiso   1.00
O800   O     0.64703   0.78821   0.27875   0.00000  Uiso   1.00
C801   C     0.64947   0.78789   0.31800   0.00000  Uiso   1.00
H802   H     0.64895   0.81977   0.33435   0.00000  Uiso   1.00
H803   H     0.34597   0.77523   0.31771   0.00000  Uiso   1.00
C804   C     0.61065   0.75988   0.34032   0.00000  Uiso   1.00
H805   H     0.61038   0.72755   0.32535   0.00000  Uiso   1.00
H806   H     0.61219   0.75924   0.37121   0.00000  Uiso   1.00
H807   H     0.58037   0.77200   0.34125   0.00000  Uiso   1.00
N808   N     0.54865   0.67291   0.20385   0.00000  Uiso   1.00
O809   O     0.56108   0.98381   0.17011   0.00000  Uiso   1.00
O810   O     0.56995   0.70955   0.20923   0.00000  Uiso   1.00
O811   O     0.49435   0.85767   0.09666   0.00000  Uiso   1.00
C812   C     0.52450   0.89132   0.08090   0.00000  Uiso   1.00
H813   H     0.53201   0.88893   0.04790   0.00000  Uiso   1.00
H814   H     0.55487   0.89246   0.08966   0.00000  Uiso   1.00
C815   C     0.50553   0.93196   0.09734   0.00000  Uiso   1.00
H816   H     0.49818   0.93575   0.13025   0.00000  Uiso   1.00
H817   H     0.52898   0.95872   0.08524   0.00000  Uiso   1.00
H818   H     0.47540   0.93181   0.08861   0.00000  Uiso   1.00
N819   N     0.57101   0.74535   0.10623   0.00000  Uiso   1.00
O820   O     0.59551   0.76673   0.12718   0.00000  Uiso   1.00
O821   O     0.56273   0.70504   0.10724   0.00000  Uiso   1.00
N822   N     0.56714   0.73180   0.45734   0.00000  Uiso   1.00
O823   O     0.60813   0.74490   0.45072   0.00000  Uiso   1.00
O824   O     0.55471   0.69768   0.43756   0.00000  Uiso   1.00
O825   O     0.39342   0.91378   0.48397   0.00000  Uiso   1.00
C826   C     0.41750   0.95315   0.48938   0.00000  Uiso   1.00
H827   H     0.43488   0.96527   0.46025   0.00000  Uiso   1.00
H828   H     0.44124   0.95118   0.00612   0.00000  Uiso   1.00
C829   C     0.38709   0.98419   0.01313   0.00000  Uiso   1.00
H830   H     0.36973   0.97337   0.04269   0.00000  Uiso   1.00
H831   H     0.40577   0.68195   0.01739   0.00000  Uiso   1.00
H832   H     0.36324   0.98726   0.49704   0.00000  Uiso   1.00
O833   O     0.42244   0.82893   0.08386   0.00000  Uiso   1.00
C834   C     0.39849   0.78880   0.08630   0.00000  Uiso   1.00
H835   H     0.42000   0.76392   0.07444   0.00000  Uiso   1.00
H836   H     0.37364   0.78515   0.06964   0.00000  Uiso   1.00
C837   C     0.37557   0.78299   0.12961   0.00000  Uiso   1.00
H838   H     0.35325   0.80695   0.14219   0.00000  Uiso   1.00
H839   H     0.35670   0.75148   0.13195   0.00000  Uiso   1.00
H840   H     0.39955   0.78604   0.14698   0.00000  Uiso   1.00
O841   O     0.51367   0.76023   0.42276   0.00000  Uiso   1.00
C842   C     0.47526   0.73309   0.42307   0.00000  Uiso   1.00
H843   H     0.44646   0.75016   0.43443   0.00000  Uiso   1.00
H844   H     0.47162   0.70710   0.44172   0.00000  Uiso   1.00
C845   C     0.47693   0.71432   0.38084   0.00000  Uiso   1.00
H846   H     0.50527   0.69687   0.36860   0.00000  Uiso   1.00
H847   H     0.44714   0.69254   0.38065   0.00000  Uiso   1.00
H848   H     0.47949   0.73954   0.36179   0.00000  Uiso   1.00
Zn849  Zn    0.85910   0.80756   0.28277   0.00000  Uiso   1.00
Zn850  Zn    0.80125   0.79044   0.22258   0.00000  Uiso   1.00
Zn851  Zn    0.87833   0.86331   0.21188   0.00000  Uiso   1.00
Zn852  Zn    0.79465   0.87202   0.28277   0.00000  Uiso   1.00
O853   O     0.83333   0.83333   0.25000   0.00000  Uiso   1.00
O854   O     0.73656   0.85627   0.27820   0.00000  Uiso   1.00
O855   O     0.92106   0.81944   0.26767   0.00000  Uiso   1.00
O856   O     0.80467   0.73570   0.23607   0.00000  Uiso   1.00
O857   O     0.87104   0.92193   0.21806   0.00000  Uiso   1.00
O858   O     0.82360   0.79060   0.16625   0.00000  Uiso   1.00
O859   O     0.79354   0.87313   0.33749   0.00000  Uiso   1.00
O860   O     0.87755   0.84159   0.15877   0.00000  Uiso   1.00
O861   O     0.83865   0.82802   0.33749   0.00000  Uiso   1.00
O862   O     0.84515   0.74768   0.27820   0.00000  Uiso   1.00
O863   O     0.81247   0.92803   0.26767   0.00000  Uiso   1.00
O864   O     0.74119   0.79917   0.23607   0.00000  Uiso   1.00
O865   O     0.93452   0.85845   0.21805   0.00000  Uiso   1.00
C866   C     0.71932   0.82603   0.25879   0.00000  Uiso   1.00
C867   C     0.94781   0.84065   0.24149   0.00000  Uiso   1.00
C868   C     0.82220   0.72277   0.25933   0.00000  Uiso   1.00
C869   C     0.84349   0.94429   0.24068   0.00000  Uiso   1.00
C870   C     0.85467   0.81202   0.14381   0.00000  Uiso   1.00
C871   C     0.81228   0.85430   0.35634   0.00000  Uiso   1.00
C872   C     0.80025   0.85927   0.40015   0.00000  Uiso   1.00
C873   C     0.86402   0.80110   0.10091   0.00000  Uiso   1.00
C874   C     0.75509   0.88575   0.46349   0.00000  Uiso   1.00
C875   C     0.76836   0.88383   0.42200   0.00000  Uiso   1.00
C876   C     0.81957   0.83739   0.42020   0.00000  Uiso   1.00
C877   C     0.80344   0.83433   0.46133   0.00000  Uiso   1.00
C878   C     0.77052   0.85903   0.48351   0.00000  Uiso   1.00
C879   C     0.82111   0.80916   0.48117   0.00000  Uiso   1.00
C880   C     0.81279   0.81647   0.02279   0.00000  Uiso   1.00
C881   C     0.77509   0.83482   0.04427   0.00000  Uiso   1.00
C882   C     0.75441   0.85648   0.02491   0.00000  Uiso   1.00
C883   C     0.84598   0.77642   0.46132   0.00000  Uiso   1.00
C884   C     0.86961   0.75855   0.48089   0.00000  Uiso   1.00
C885   C     0.86618   0.77042   0.02178   0.00000  Uiso   1.00
C886   C     0.84011   0.80221   0.04183   0.00000  Uiso   1.00
C887   C     0.88733   0.75121   0.04357   0.00000  Uiso   1.00
C888   C     0.88539   0.76622   0.08334   0.00000  Uiso   1.00
C889   C     0.84392   0.82059   0.07966   0.00000  Uiso   1.00
H890   H     0.75415   0.90234   0.40708   0.00000  Uiso   1.00
H891   H     0.84800   0.82366   0.40311   0.00000  Uiso   1.00
C892   C     0.99371   0.84555   0.23957   0.00000  Uiso   1.00
C893   C     0.67406   0.82197   0.26113   0.00000  Uiso   1.00
C894   C     0.84797   0.98878   0.23592   0.00000  Uiso   1.00
C895   C     0.81971   0.67873   0.26166   0.00000  Uiso   1.00
H896   H     0.79451   0.99879   0.28588   0.00000  Uiso   1.00
N897   N     0.71576   0.87363   0.04756   0.00000  Uiso   1.00
O898   O     0.67967   0.86062   0.03843   0.00000  Uiso   1.00
O899   O     0.71513   0.89707   0.08065   0.00000  Uiso   1.00
N900   N     0.90787   0.71446   0.02701   0.00000  Uiso   1.00
O901   O     0.94822   0.71420   0.02521   0.00000  Uiso   1.00
O902   O     0.88464   0.67952   0.01972   0.00000  Uiso   1.00
N903   N     0.68936   0.87682   0.21621   0.00000  Uiso   1.00
O904   O     0.67624   0.91195   0.21411   0.00000  Uiso   1.00
O905   O     0.72711   0.86881   0.19384   0.00000  Uiso   1.00
O906   O     0.98037   0.78821   0.27875   0.00000  Uiso   1.00
C907   C     0.98280   0.78789   0.31800   0.00000  Uiso   1.00
H908   H     0.98228   0.81977   0.33435   0.00000  Uiso   1.00
H909   H     0.67930   0.77523   0.31771   0.00000  Uiso   1.00
C910   C     0.94399   0.75988   0.34032   0.00000  Uiso   1.00
H911   H     0.94371   0.72755   0.32535   0.00000  Uiso   1.00
H912   H     0.94553   0.75924   0.37121   0.00000  Uiso   1.00
H913   H     0.91370   0.77200   0.34125   0.00000  Uiso   1.00
N914   N     0.88198   0.67291   0.20385   0.00000  Uiso   1.00
O915   O     0.89442   0.98381   0.17011   0.00000  Uiso   1.00
O916   O     0.90329   0.70955   0.20923   0.00000  Uiso   1.00
O917   O     0.82769   0.85767   0.09666   0.00000  Uiso   1.00
C918   C     0.85783   0.89132   0.08090   0.00000  Uiso   1.00
H919   H     0.86534   0.88893   0.04790   0.00000  Uiso   1.00
H920   H     0.88820   0.89246   0.08966   0.00000  Uiso   1.00
C921   C     0.83887   0.93196   0.09734   0.00000  Uiso   1.00
H922   H     0.83152   0.93575   0.13025   0.00000  Uiso   1.00
H923   H     0.86232   0.95872   0.08524   0.00000  Uiso   1.00
H924   H     0.80874   0.93181   0.08861   0.00000  Uiso   1.00
N925   N     0.90434   0.74535   0.10623   0.00000  Uiso   1.00
O926   O     0.92884   0.76673   0.12718   0.00000  Uiso   1.00
O927   O     0.89606   0.70504   0.10724   0.00000  Uiso   1.00
N928   N     0.90048   0.73180   0.45734   0.00000  Uiso   1.00
O929   O     0.94146   0.74490   0.45072   0.00000  Uiso   1.00
O930   O     0.88805   0.69768   0.43756   0.00000  Uiso   1.00
O931   O     0.72675   0.91378   0.48397   0.00000  Uiso   1.00
C932   C     0.75084   0.95315   0.48938   0.00000  Uiso   1.00
H933   H     0.76821   0.96527   0.46025   0.00000  Uiso   1.00
H934   H     0.77457   0.95118   0.00612   0.00000  Uiso   1.00
C935   C     0.72043   0.98419   0.01313   0.00000  Uiso   1.00
H936   H     0.70306   0.97337   0.04269   0.00000  Uiso   1.00
H937   H     0.73910   0.68195   0.01739   0.00000  Uiso   1.00
H938   H     0.69657   0.98726   0.49704   0.00000  Uiso   1.00
O939   O     0.75577   0.82893   0.08386   0.00000  Uiso   1.00
C940   C     0.73183   0.78880   0.08630   0.00000  Uiso   1.00
H941   H     0.75333   0.76392   0.07444   0.00000  Uiso   1.00
H942   H     0.70698   0.78515   0.06964   0.00000  Uiso   1.00
C943   C     0.70890   0.78299   0.12961   0.00000  Uiso   1.00
H944   H     0.68658   0.80695   0.14219   0.00000  Uiso   1.00
H945   H     0.69003   0.75148   0.13195   0.00000  Uiso   1.00
H946   H     0.73288   0.78604   0.14698   0.00000  Uiso   1.00
O947   O     0.84701   0.76023   0.42276   0.00000  Uiso   1.00
C948   C     0.80860   0.73309   0.42307   0.00000  Uiso   1.00
H949   H     0.77980   0.75016   0.43443   0.00000  Uiso   1.00
H950   H     0.80496   0.70710   0.44172   0.00000  Uiso   1.00
C951   C     0.81026   0.71432   0.38084   0.00000  Uiso   1.00
H952   H     0.83861   0.69687   0.36860   0.00000  Uiso   1.00
H953   H     0.78047   0.69254   0.38065   0.00000  Uiso   1.00
H954   H     0.81282   0.73954   0.36179   0.00000  Uiso   1.00
Zn955  Zn    0.19244   0.14090   0.78277   0.00000  Uiso   1.00
Zn956  Zn    0.13459   0.12378   0.72258   0.00000  Uiso   1.00
Zn957  Zn    0.21166   0.19664   0.71188   0.00000  Uiso   1.00
Zn958  Zn    0.12798   0.20535   0.78277   0.00000  Uiso   1.00
O959   O     0.16667   0.16667   0.75000   0.00000  Uiso   1.00
O960   O     0.06990   0.18960   0.77820   0.00000  Uiso   1.00
O961   O     0.25440   0.15277   0.76767   0.00000  Uiso   1.00
O962   O     0.13800   0.06903   0.73607   0.00000  Uiso   1.00
O963   O     0.20437   0.25527   0.71806   0.00000  Uiso   1.00
O964   O     0.15693   0.12393   0.66625   0.00000  Uiso   1.00
O965   O     0.12687   0.20646   0.83749   0.00000  Uiso   1.00
O966   O     0.21088   0.17493   0.65877   0.00000  Uiso   1.00
O967   O     0.17198   0.16135   0.83749   0.00000  Uiso   1.00
O968   O     0.17849   0.08101   0.77820   0.00000  Uiso   1.00
O969   O     0.14581   0.26136   0.76767   0.00000  Uiso   1.00
O970   O     0.07452   0.13251   0.73607   0.00000  Uiso   1.00
O971   O     0.26785   0.19179   0.71805   0.00000  Uiso   1.00
C972   C     0.05265   0.15936   0.75879   0.00000  Uiso   1.00
C973   C     0.28114   0.17399   0.74149   0.00000  Uiso   1.00
C974   C     0.15553   0.05611   0.75933   0.00000  Uiso   1.00
C975   C     0.17683   0.27762   0.74068   0.00000  Uiso   1.00
C976   C     0.18800   0.14535   0.64381   0.00000  Uiso   1.00
C977   C     0.14561   0.18763   0.85634   0.00000  Uiso   1.00
C978   C     0.13359   0.19260   0.90015   0.00000  Uiso   1.00
C979   C     0.19736   0.13443   0.60091   0.00000  Uiso   1.00
C980   C     0.08842   0.21908   0.96349   0.00000  Uiso   1.00
C981   C     0.10170   0.21716   0.92200   0.00000  Uiso   1.00
C982   C     0.15291   0.17073   0.92020   0.00000  Uiso   1.00
C983   C     0.13678   0.16766   0.96133   0.00000  Uiso   1.00
C984   C     0.10385   0.19237   0.98351   0.00000  Uiso   1.00
C985   C     0.15444   0.14250   0.98117   0.00000  Uiso   1.00
C986   C     0.14612   0.14980   0.52279   0.00000  Uiso   1.00
C987   C     0.10842   0.16816   0.54427   0.00000  Uiso   1.00
C988   C     0.08775   0.18981   0.52491   0.00000  Uiso   1.00
C989   C     0.17931   0.10975   0.96132   0.00000  Uiso   1.00
C990   C     0.20295   0.09188   0.98089   0.00000  Uiso   1.00
C991   C     0.19951   0.10375   0.52178   0.00000  Uiso   1.00
C992   C     0.17344   0.13554   0.54183   0.00000  Uiso   1.00
C993   C     0.22066   0.08454   0.54357   0.00000  Uiso   1.00
C994   C     0.21872   0.09955   0.58334   0.00000  Uiso   1.00
C995   C     0.17725   0.15392   0.57966   0.00000  Uiso   1.00
H996   H     0.08749   0.23568   0.90708   0.00000  Uiso   1.00
H997   H     0.18134   0.15699   0.90311   0.00000  Uiso   1.00
C998   C     0.32704   0.17888   0.73957   0.00000  Uiso   1.00
C999   C     0.00739   0.15531   0.76113   0.00000  Uiso   1.00
C1000  C     0.18130   0.32212   0.73592   0.00000  Uiso   1.00
C1001  C     0.15304   0.01207   0.76166   0.00000  Uiso   1.00
H1002  H     0.12784   0.33212   0.78588   0.00000  Uiso   1.00
N1003  N     0.04909   0.20697   0.54756   0.00000  Uiso   1.00
O1004  O     0.01301   0.19395   0.53843   0.00000  Uiso   1.00
O1005  O     0.04846   0.23041   0.58065   0.00000  Uiso   1.00
N1006  N     0.24120   0.04779   0.52701   0.00000  Uiso   1.00
O1007  O     0.28155   0.04753   0.52521   0.00000  Uiso   1.00
O1008  O     0.21797   0.01286   0.51972   0.00000  Uiso   1.00
N1009  N     0.02270   0.21016   0.71621   0.00000  Uiso   1.00
O1010  O     0.00957   0.24528   0.71411   0.00000  Uiso   1.00
O1011  O     0.06045   0.20214   0.69384   0.00000  Uiso   1.00
O1012  O     0.31370   0.12154   0.77875   0.00000  Uiso   1.00
C1013  C     0.31614   0.12122   0.81800   0.00000  Uiso   1.00
H1014  H     0.31562   0.15311   0.83435   0.00000  Uiso   1.00
H1015  H     0.01264   0.10856   0.81771   0.00000  Uiso   1.00
C1016  C     0.27732   0.09322   0.84032   0.00000  Uiso   1.00
H1017  H     0.27705   0.06089   0.82535   0.00000  Uiso   1.00
H1018  H     0.27886   0.09257   0.87121   0.00000  Uiso   1.00
H1019  H     0.24704   0.10533   0.84125   0.00000  Uiso   1.00
N1020  N     0.21532   0.00624   0.70385   0.00000  Uiso   1.00
O1021  O     0.22775   0.31715   0.67011   0.00000  Uiso   1.00
O1022  O     0.23662   0.04288   0.70923   0.00000  Uiso   1.00
O1023  O     0.16102   0.19100   0.59666   0.00000  Uiso   1.00
C1024  C     0.19117   0.22465   0.58090   0.00000  Uiso   1.00
H1025  H     0.19867   0.22226   0.54790   0.00000  Uiso   1.00
H1026  H     0.22154   0.22579   0.58966   0.00000  Uiso   1.00
C1027  C     0.17220   0.26530   0.59734   0.00000  Uiso   1.00
H1028  H     0.16485   0.26909   0.63025   0.00000  Uiso   1.00
H1029  H     0.19565   0.29205   0.58524   0.00000  Uiso   1.00
H1030  H     0.14207   0.26514   0.58861   0.00000  Uiso   1.00
N1031  N     0.23767   0.07868   0.60623   0.00000  Uiso   1.00
O1032  O     0.26217   0.10006   0.62718   0.00000  Uiso   1.00
O1033  O     0.22940   0.03838   0.60724   0.00000  Uiso   1.00
N1034  N     0.23381   0.06514   0.95734   0.00000  Uiso   1.00
O1035  O     0.27479   0.07823   0.95072   0.00000  Uiso   1.00
O1036  O     0.22138   0.03101   0.93756   0.00000  Uiso   1.00
O1037  O     0.06008   0.24712   0.98397   0.00000  Uiso   1.00
C1038  C     0.08417   0.28648   0.98938   0.00000  Uiso   1.00
H1039  H     0.10154   0.29860   0.96025   0.00000  Uiso   1.00
H1040  H     0.10791   0.28451   0.50612   0.00000  Uiso   1.00
C1041  C     0.05376   0.31753   0.51313   0.00000  Uiso   1.00
H1042  H     0.03639   0.30671   0.54269   0.00000  Uiso   1.00
H1043  H     0.07243   0.01529   0.51739   0.00000  Uiso   1.00
H1044  H     0.02990   0.32059   0.99704   0.00000  Uiso   1.00
O1045  O     0.08911   0.16226   0.58386   0.00000  Uiso   1.00
C1046  C     0.06516   0.12213   0.58630   0.00000  Uiso   1.00
H1047  H     0.08666   0.09725   0.57444   0.00000  Uiso   1.00
H1048  H     0.04031   0.11848   0.56964   0.00000  Uiso   1.00
C1049  C     0.04224   0.11633   0.62961   0.00000  Uiso   1.00
H1050  H     0.01992   0.14028   0.64219   0.00000  Uiso   1.00
H1051  H     0.02336   0.08482   0.63195   0.00000  Uiso   1.00
H1052  H     0.06622   0.11937   0.64698   0.00000  Uiso   1.00
O1053  O     0.18034   0.09356   0.92276   0.00000  Uiso   1.00
C1054  C     0.14193   0.06642   0.92307   0.00000  Uiso   1.00
H1055  H     0.11313   0.08349   0.93443   0.00000  Uiso   1.00
H1056  H     0.13829   0.04044   0.94172   0.00000  Uiso   1.00
C1057  C     0.14359   0.04766   0.88084   0.00000  Uiso   1.00
H1058  H     0.17194   0.03020   0.86860   0.00000  Uiso   1.00
H1059  H     0.11380   0.02587   0.88065   0.00000  Uiso   1.00
H1060  H     0.14615   0.07288   0.86179   0.00000  Uiso   1.00
Zn1061 Zn    0.52577   0.14090   0.78277   0.00000  Uiso   1.00
Zn1062 Zn    0.46792   0.12378   0.72258   0.00000  Uiso   1.00
Zn1063 Zn    0.54500   0.19664   0.71188   0.00000  Uiso   1.00
Zn1064 Zn    0.46131   0.20535   0.78277   0.00000  Uiso   1.00
O1065  O     0.50000   0.16667   0.75000   0.00000  Uiso   1.00
O1066  O     0.40323   0.18960   0.77820   0.00000  Uiso   1.00
O1067  O     0.58773   0.15277   0.76767   0.00000  Uiso   1.00
O1068  O     0.47133   0.06903   0.73607   0.00000  Uiso   1.00
O1069  O     0.53771   0.25527   0.71806   0.00000  Uiso   1.00
O1070  O     0.49027   0.12393   0.66625   0.00000  Uiso   1.00
O1071  O     0.46020   0.20646   0.83749   0.00000  Uiso   1.00
O1072  O     0.54421   0.17493   0.65877   0.00000  Uiso   1.00
O1073  O     0.50532   0.16135   0.83749   0.00000  Uiso   1.00
O1074  O     0.51182   0.08101   0.77820   0.00000  Uiso   1.00
O1075  O     0.47914   0.26136   0.76767   0.00000  Uiso   1.00
O1076  O     0.40785   0.13251   0.73607   0.00000  Uiso   1.00
O1077  O     0.60119   0.19179   0.71805   0.00000  Uiso   1.00
C1078  C     0.38598   0.15936   0.75879   0.00000  Uiso   1.00
C1079  C     0.61448   0.17399   0.74149   0.00000  Uiso   1.00
C1080  C     0.48887   0.05611   0.75933   0.00000  Uiso   1.00
C1081  C     0.51016   0.27762   0.74068   0.00000  Uiso   1.00
C1082  C     0.52134   0.14535   0.64381   0.00000  Uiso   1.00
C1083  C     0.47894   0.18763   0.85634   0.00000  Uiso   1.00
C1084  C     0.46692   0.19260   0.90015   0.00000  Uiso   1.00
C1085  C     0.53069   0.13443   0.60091   0.00000  Uiso   1.00
C1086  C     0.42176   0.21908   0.96349   0.00000  Uiso   1.00
C1087  C     0.43503   0.21716   0.92200   0.00000  Uiso   1.00
C1088  C     0.48624   0.17073   0.92020   0.00000  Uiso   1.00
C1089  C     0.47011   0.16766   0.96133   0.00000  Uiso   1.00
C1090  C     0.43719   0.19237   0.98351   0.00000  Uiso   1.00
C1091  C     0.48777   0.14250   0.98117   0.00000  Uiso   1.00
C1092  C     0.47946   0.14980   0.52279   0.00000  Uiso   1.00
C1093  C     0.44175   0.16816   0.54427   0.00000  Uiso   1.00
C1094  C     0.42108   0.18981   0.52491   0.00000  Uiso   1.00
C1095  C     0.51265   0.10975   0.96132   0.00000  Uiso   1.00
C1096  C     0.53628   0.09188   0.98089   0.00000  Uiso   1.00
C1097  C     0.53284   0.10375   0.52178   0.00000  Uiso   1.00
C1098  C     0.50677   0.13554   0.54183   0.00000  Uiso   1.00
C1099  C     0.55399   0.08454   0.54357   0.00000  Uiso   1.00
C1100  C     0.55206   0.09955   0.58334   0.00000  Uiso   1.00
C1101  C     0.51058   0.15392   0.57966   0.00000  Uiso   1.00
H1102  H     0.42082   0.23568   0.90708   0.00000  Uiso   1.00
H1103  H     0.51467   0.15699   0.90311   0.00000  Uiso   1.00
C1104  C     0.66038   0.17888   0.73957   0.00000  Uiso   1.00
C1105  C     0.34072   0.15531   0.76113   0.00000  Uiso   1.00
C1106  C     0.51464   0.32212   0.73592   0.00000  Uiso   1.00
C1107  C     0.48638   0.01207   0.76166   0.00000  Uiso   1.00
H1108  H     0.46117   0.33212   0.78588   0.00000  Uiso   1.00
N1109  N     0.38243   0.20697   0.54756   0.00000  Uiso   1.00
O1110  O     0.34634   0.19395   0.53843   0.00000  Uiso   1.00
O1111  O     0.38180   0.23041   0.58065   0.00000  Uiso   1.00
N1112  N     0.57453   0.04779   0.52701   0.00000  Uiso   1.00
O1113  O     0.61488   0.04753   0.52521   0.00000  Uiso   1.00
O1114  O     0.55130   0.01286   0.51972   0.00000  Uiso   1.00
N1115  N     0.35603   0.21016   0.71621   0.00000  Uiso   1.00
O1116  O     0.34290   0.24528   0.71411   0.00000  Uiso   1.00
O1117  O     0.39378   0.20214   0.69384   0.00000  Uiso   1.00
O1118  O     0.64703   0.12154   0.77875   0.00000  Uiso   1.00
C1119  C     0.64947   0.12122   0.81800   0.00000  Uiso   1.00
H1120  H     0.64895   0.15311   0.83435   0.00000  Uiso   1.00
H1121  H     0.34597   0.10856   0.81771   0.00000  Uiso   1.00
C1122  C     0.61065   0.09322   0.84032   0.00000  Uiso   1.00
H1123  H     0.61038   0.06089   0.82535   0.00000  Uiso   1.00
H1124  H     0.61219   0.09257   0.87121   0.00000  Uiso   1.00
H1125  H     0.58037   0.10533   0.84125   0.00000  Uiso   1.00
N1126  N     0.54865   0.00624   0.70385   0.00000  Uiso   1.00
O1127  O     0.56108   0.31715   0.67011   0.00000  Uiso   1.00
O1128  O     0.56995   0.04288   0.70923   0.00000  Uiso   1.00
O1129  O     0.49435   0.19100   0.59666   0.00000  Uiso   1.00
C1130  C     0.52450   0.22465   0.58090   0.00000  Uiso   1.00
H1131  H     0.53201   0.22226   0.54790   0.00000  Uiso   1.00
H1132  H     0.55487   0.22579   0.58966   0.00000  Uiso   1.00
C1133  C     0.50553   0.26530   0.59734   0.00000  Uiso   1.00
H1134  H     0.49818   0.26909   0.63025   0.00000  Uiso   1.00
H1135  H     0.52898   0.29205   0.58524   0.00000  Uiso   1.00
H1136  H     0.47540   0.26514   0.58861   0.00000  Uiso   1.00
N1137  N     0.57101   0.07868   0.60623   0.00000  Uiso   1.00
O1138  O     0.59551   0.10006   0.62718   0.00000  Uiso   1.00
O1139  O     0.56273   0.03838   0.60724   0.00000  Uiso   1.00
N1140  N     0.56714   0.06514   0.95734   0.00000  Uiso   1.00
O1141  O     0.60813   0.07823   0.95072   0.00000  Uiso   1.00
O1142  O     0.55471   0.03101   0.93756   0.00000  Uiso   1.00
O1143  O     0.39342   0.24712   0.98397   0.00000  Uiso   1.00
C1144  C     0.41750   0.28648   0.98938   0.00000  Uiso   1.00
H1145  H     0.43488   0.29860   0.96025   0.00000  Uiso   1.00
H1146  H     0.44124   0.28451   0.50612   0.00000  Uiso   1.00
C1147  C     0.38709   0.31753   0.51313   0.00000  Uiso   1.00
H1148  H     0.36973   0.30671   0.54269   0.00000  Uiso   1.00
H1149  H     0.40577   0.01529   0.51739   0.00000  Uiso   1.00
H1150  H     0.36324   0.32059   0.99704   0.00000  Uiso   1.00
O1151  O     0.42244   0.16226   0.58386   0.00000  Uiso   1.00
C1152  C     0.39849   0.12213   0.58630   0.00000  Uiso   1.00
H1153  H     0.42000   0.09725   0.57444   0.00000  Uiso   1.00
H1154  H     0.37364   0.11848   0.56964   0.00000  Uiso   1.00
C1155  C     0.37557   0.11633   0.62961   0.00000  Uiso   1.00
H1156  H     0.35325   0.14028   0.64219   0.00000  Uiso   1.00
H1157  H     0.35670   0.08482   0.63195   0.00000  Uiso   1.00
H1158  H     0.39955   0.11937   0.64698   0.00000  Uiso   1.00
O1159  O     0.51367   0.09356   0.92276   0.00000  Uiso   1.00
C1160  C     0.47526   0.06642   0.92307   0.00000  Uiso   1.00
H1161  H     0.44646   0.08349   0.93443   0.00000  Uiso   1.00
H1162  H     0.47162   0.04044   0.94172   0.00000  Uiso   1.00
C1163  C     0.47693   0.04766   0.88084   0.00000  Uiso   1.00
H1164  H     0.50527   0.03020   0.86860   0.00000  Uiso   1.00
H1165  H     0.44714   0.02587   0.88065   0.00000  Uiso   1.00
H1166  H     0.47949   0.07288   0.86179   0.00000  Uiso   1.00
Zn1167 Zn    0.85910   0.14090   0.78277   0.00000  Uiso   1.00
Zn1168 Zn    0.80125   0.12378   0.72258   0.00000  Uiso   1.00
Zn1169 Zn    0.87833   0.19664   0.71188   0.00000  Uiso   1.00
Zn1170 Zn    0.79465   0.20535   0.78277   0.00000  Uiso   1.00
O1171  O     0.83333   0.16667   0.75000   0.00000  Uiso   1.00
O1172  O     0.73656   0.18960   0.77820   0.00000  Uiso   1.00
O1173  O     0.92106   0.15277   0.76767   0.00000  Uiso   1.00
O1174  O     0.80467   0.06903   0.73607   0.00000  Uiso   1.00
O1175  O     0.87104   0.25527   0.71806   0.00000  Uiso   1.00
O1176  O     0.82360   0.12393   0.66625   0.00000  Uiso   1.00
O1177  O     0.79354   0.20646   0.83749   0.00000  Uiso   1.00
O1178  O     0.87755   0.17493   0.65877   0.00000  Uiso   1.00
O1179  O     0.83865   0.16135   0.83749   0.00000  Uiso   1.00
O1180  O     0.84515   0.08101   0.77820   0.00000  Uiso   1.00
O1181  O     0.81247   0.26136   0.76767   0.00000  Uiso   1.00
O1182  O     0.74119   0.13251   0.73607   0.00000  Uiso   1.00
O1183  O     0.93452   0.19179   0.71805   0.00000  Uiso   1.00
C1184  C     0.71932   0.15936   0.75879   0.00000  Uiso   1.00
C1185  C     0.94781   0.17399   0.74149   0.00000  Uiso   1.00
C1186  C     0.82220   0.05611   0.75933   0.00000  Uiso   1.00
C1187  C     0.84349   0.27762   0.74068   0.00000  Uiso   1.00
C1188  C     0.85467   0.14535   0.64381   0.00000  Uiso   1.00
C1189  C     0.81228   0.18763   0.85634   0.00000  Uiso   1.00
C1190  C     0.80025   0.19260   0.90015   0.00000  Uiso   1.00
C1191  C     0.86402   0.13443   0.60091   0.00000  Uiso   1.00
C1192  C     0.75509   0.21908   0.96349   0.00000  Uiso   1.00
C1193  C     0.76836   0.21716   0.92200   0.00000  Uiso   1.00
C1194  C     0.81957   0.17073   0.92020   0.00000  Uiso   1.00
C1195  C     0.80344   0.16766   0.96133   0.00000  Uiso   1.00
C1196  C     0.77052   0.19237   0.98351   0.00000  Uiso   1.00
C1197  C     0.82111   0.14250   0.98117   0.00000  Uiso   1.00
C1198  C     0.81279   0.14980   0.52279   0.00000  Uiso   1.00
C1199  C     0.77509   0.16816   0.54427   0.00000  Uiso   1.00
C1200  C     0.75441   0.18981   0.52491   0.00000  Uiso   1.00
C1201  C     0.84598   0.10975   0.96132   0.00000  Uiso   1.00
C1202  C     0.86961   0.09188   0.98089   0.00000  Uiso   1.00
C1203  C     0.86618   0.10375   0.52178   0.00000  Uiso   1.00
C1204  C     0.84011   0.13554   0.54183   0.00000  Uiso   1.00
C1205  C     0.88733   0.08454   0.54357   0.00000  Uiso   1.00
C1206  C     0.88539   0.09955   0.58334   0.00000  Uiso   1.00
C1207  C     0.84392   0.15392   0.57966   0.00000  Uiso   1.00
H1208  H     0.75415   0.23568   0.90708   0.00000  Uiso   1.00
H1209  H     0.84800   0.15699   0.90311   0.00000  Uiso   1.00
C1210  C     0.99371   0.17888   0.73957   0.00000  Uiso   1.00
C1211  C     0.67406   0.15531   0.76113   0.00000  Uiso   1.00
C1212  C     0.84797   0.32212   0.73592   0.00000  Uiso   1.00
C1213  C     0.81971   0.01207   0.76166   0.00000  Uiso   1.00
H1214  H     0.79451   0.33212   0.78588   0.00000  Uiso   1.00
N1215  N     0.71576   0.20697   0.54756   0.00000  Uiso   1.00
O1216  O     0.67967   0.19395   0.53843   0.00000  Uiso   1.00
O1217  O     0.71513   0.23041   0.58065   0.00000  Uiso   1.00
N1218  N     0.90787   0.04779   0.52701   0.00000  Uiso   1.00
O1219  O     0.94822   0.04753   0.52521   0.00000  Uiso   1.00
O1220  O     0.88464   0.01286   0.51972   0.00000  Uiso   1.00
N1221  N     0.68936   0.21016   0.71621   0.00000  Uiso   1.00
O1222  O     0.67624   0.24528   0.71411   0.00000  Uiso   1.00
O1223  O     0.72711   0.20214   0.69384   0.00000  Uiso   1.00
O1224  O     0.98037   0.12154   0.77875   0.00000  Uiso   1.00
C1225  C     0.98280   0.12122   0.81800   0.00000  Uiso   1.00
H1226  H     0.98228   0.15311   0.83435   0.00000  Uiso   1.00
H1227  H     0.67930   0.10856   0.81771   0.00000  Uiso   1.00
C1228  C     0.94399   0.09322   0.84032   0.00000  Uiso   1.00
H1229  H     0.94371   0.06089   0.82535   0.00000  Uiso   1.00
H1230  H     0.94553   0.09257   0.87121   0.00000  Uiso   1.00
H1231  H     0.91370   0.10533   0.84125   0.00000  Uiso   1.00
N1232  N     0.88198   0.00624   0.70385   0.00000  Uiso   1.00
O1233  O     0.89442   0.31715   0.67011   0.00000  Uiso   1.00
O1234  O     0.90329   0.04288   0.70923   0.00000  Uiso   1.00
O1235  O     0.82769   0.19100   0.59666   0.00000  Uiso   1.00
C1236  C     0.85783   0.22465   0.58090   0.00000  Uiso   1.00
H1237  H     0.86534   0.22226   0.54790   0.00000  Uiso   1.00
H1238  H     0.88820   0.22579   0.58966   0.00000  Uiso   1.00
C1239  C     0.83887   0.26530   0.59734   0.00000  Uiso   1.00
H1240  H     0.83152   0.26909   0.63025   0.00000  Uiso   1.00
H1241  H     0.86232   0.29205   0.58524   0.00000  Uiso   1.00
H1242  H     0.80874   0.26514   0.58861   0.00000  Uiso   1.00
N1243  N     0.90434   0.07868   0.60623   0.00000  Uiso   1.00
O1244  O     0.92884   0.10006   0.62718   0.00000  Uiso   1.00
O1245  O     0.89606   0.03838   0.60724   0.00000  Uiso   1.00
N1246  N     0.90048   0.06514   0.95734   0.00000  Uiso   1.00
O1247  O     0.94146   0.07823   0.95072   0.00000  Uiso   1.00
O1248  O     0.88805   0.03101   0.93756   0.00000  Uiso   1.00
O1249  O     0.72675   0.24712   0.98397   0.00000  Uiso   1.00
C1250  C     0.75084   0.28648   0.98938   0.00000  Uiso   1.00
H1251  H     0.76821   0.29860   0.96025   0.00000  Uiso   1.00
H1252  H     0.77457   0.28451   0.50612   0.00000  Uiso   1.00
C1253  C     0.72043   0.31753   0.51313   0.00000  Uiso   1.00
H1254  H     0.70306   0.30671   0.54269   0.00000  Uiso   1.00
H1255  H     0.73910   0.01529   0.51739   0.00000  Uiso   1.00
H1256  H     0.69657   0.32059   0.99704   0.00000  Uiso   1.00
O1257  O     0.75577   0.16226   0.58386   0.00000  Uiso   1.00
C1258  C     0.73183   0.12213   0.58630   0.00000  Uiso   1.00
H1259  H     0.75333   0.09725   0.57444   0.00000  Uiso   1.00
H1260  H     0.70698   0.11848   0.56964   0.00000  Uiso   1.00
C1261  C     0.70890   0.11633   0.62961   0.00000  Uiso   1.00
H1262  H     0.68658   0.14028   0.64219   0.00000  Uiso   1.00
H1263  H     0.69003   0.08482   0.63195   0.00000  Uiso   1.00
H1264  H     0.73288   0.11937   0.64698   0.00000  Uiso   1.00
O1265  O     0.84701   0.09356   0.92276   0.00000  Uiso   1.00
C1266  C     0.80860   0.06642   0.92307   0.00000  Uiso   1.00
H1267  H     0.77980   0.08349   0.93443   0.00000  Uiso   1.00
H1268  H     0.80496   0.04044   0.94172   0.00000  Uiso   1.00
C1269  C     0.81026   0.04766   0.88084   0.00000  Uiso   1.00
H1270  H     0.83861   0.03020   0.86860   0.00000  Uiso   1.00
H1271  H     0.78047   0.02587   0.88065   0.00000  Uiso   1.00
H1272  H     0.81282   0.07288   0.86179   0.00000  Uiso   1.00
Zn1273 Zn    0.19244   0.47423   0.78277   0.00000  Uiso   1.00
Zn1274 Zn    0.13459   0.45711   0.72258   0.00000  Uiso   1.00
Zn1275 Zn    0.21166   0.52997   0.71188   0.00000  Uiso   1.00
Zn1276 Zn    0.12798   0.53868   0.78277   0.00000  Uiso   1.00
O1277  O     0.16667   0.50000   0.75000   0.00000  Uiso   1.00
O1278  O     0.06990   0.52293   0.77820   0.00000  Uiso   1.00
O1279  O     0.25440   0.48610   0.76767   0.00000  Uiso   1.00
O1280  O     0.13800   0.40236   0.73607   0.00000  Uiso   1.00
O1281  O     0.20437   0.58860   0.71806   0.00000  Uiso   1.00
O1282  O     0.15693   0.45726   0.66625   0.00000  Uiso   1.00
O1283  O     0.12687   0.53979   0.83749   0.00000  Uiso   1.00
O1284  O     0.21088   0.50826   0.65877   0.00000  Uiso   1.00
O1285  O     0.17198   0.49468   0.83749   0.00000  Uiso   1.00
O1286  O     0.17849   0.41434   0.77820   0.00000  Uiso   1.00
O1287  O     0.14581   0.59469   0.76767   0.00000  Uiso   1.00
O1288  O     0.07452   0.46584   0.73607   0.00000  Uiso   1.00
O1289  O     0.26785   0.52512   0.71805   0.00000  Uiso   1.00
C1290  C     0.05265   0.49269   0.75879   0.00000  Uiso   1.00
C1291  C     0.28114   0.50732   0.74149   0.00000  Uiso   1.00
C1292  C     0.15553   0.38944   0.75933   0.00000  Uiso   1.00
C1293  C     0.17683   0.61095   0.74068   0.00000  Uiso   1.00
C1294  C     0.18800   0.47868   0.64381   0.00000  Uiso   1.00
C1295  C     0.14561   0.52096   0.85634   0.00000  Uiso   1.00
C1296  C     0.13359   0.52593   0.90015   0.00000  Uiso   1.00
C1297  C     0.19736   0.46777   0.60091   0.00000  Uiso   1.00
C1298  C     0.08842   0.55242   0.96349   0.00000  Uiso   1.00
C1299  C     0.10170   0.55049   0.92200   0.00000  Uiso   1.00
C1300  C     0.15291   0.50406   0.92020   0.00000  Uiso   1.00
C1301  C     0.13678   0.50100   0.96133   0.00000  Uiso   1.00
C1302  C     0.10385   0.52570   0.98351   0.00000  Uiso   1.00
C1303  C     0.15444   0.47583   0.98117   0.00000  Uiso   1.00
C1304  C     0.14612   0.48314   0.52279   0.00000  Uiso   1.00
C1305  C     0.10842   0.50149   0.54427   0.00000  Uiso   1.00
C1306  C     0.08775   0.52314   0.52491   0.00000  Uiso   1.00
C1307  C     0.17931   0.44309   0.96132   0.00000  Uiso   1.00
C1308  C     0.20295   0.42522   0.98089   0.00000  Uiso   1.00
C1309  C     0.19951   0.43708   0.52178   0.00000  Uiso   1.00
C1310  C     0.17344   0.46887   0.54183   0.00000  Uiso   1.00
C1311  C     0.22066   0.41787   0.54357   0.00000  Uiso   1.00
C1312  C     0.21872   0.43288   0.58334   0.00000  Uiso   1.00
C1313  C     0.17725   0.48726   0.57966   0.00000  Uiso   1.00
H1314  H     0.08749   0.56901   0.90708   0.00000  Uiso   1.00
H1315  H     0.18134   0.49032   0.90311   0.00000  Uiso   1.00
C1316  C     0.32704   0.51221   0.73957   0.00000  Uiso   1.00
C1317  C     0.00739   0.48864   0.76113   0.00000  Uiso   1.00
C1318  C     0.18130   0.65545   0.73592   0.00000  Uiso   1.00
C1319  C     0.15304   0.34540   0.76166   0.00000  Uiso   1.00
H1320  H     0.12784   0.66546   0.78588   0.00000  Uiso   1.00
N1321  N     0.04909   0.54030   0.54756   0.00000  Uiso   1.00
O1322  O     0.01301   0.52729   0.53843   0.00000  Uiso   1.00
O1323  O     0.04846   0.56374   0.58065   0.00000  Uiso   1.00
N1324  N     0.24120   0.38112   0.52701   0.00000  Uiso   1.00
O1325  O     0.28155   0.38086   0.52521   0.00000  Uiso   1.00
O1326  O     0.21797   0.34619   0.51972   0.00000  Uiso   1.00
N1327  N     0.02270   0.54349   0.71621   0.00000  Uiso   1.00
O1328  O     0.00957   0.57861   0.71411   0.00000  Uiso   1.00
O1329  O     0.06045   0.53548   0.69384   0.00000  Uiso   1.00
O1330  O     0.31370   0.45488   0.77875   0.00000  Uiso   1.00
C1331  C     0.31614   0.45456   0.81800   0.00000  Uiso   1.00
H1332  H     0.31562   0.48644   0.83435   0.00000  Uiso   1.00
H1333  H     0.01264   0.44190   0.81771   0.00000  Uiso   1.00
C1334  C     0.27732   0.42655   0.84032   0.00000  Uiso   1.00
H1335  H     0.27705   0.39422   0.82535   0.00000  Uiso   1.00
H1336  H     0.27886   0.42590   0.87121   0.00000  Uiso   1.00
H1337  H     0.24704   0.43867   0.84125   0.00000  Uiso   1.00
N1338  N     0.21532   0.33958   0.70385   0.00000  Uiso   1.00
O1339  O     0.22775   0.65048   0.67011   0.00000  Uiso   1.00
O1340  O     0.23662   0.37622   0.70923   0.00000  Uiso   1.00
O1341  O     0.16102   0.52434   0.59666   0.00000  Uiso   1.00
C1342  C     0.19117   0.55799   0.58090   0.00000  Uiso   1.00
H1343  H     0.19867   0.55559   0.54790   0.00000  Uiso   1.00
H1344  H     0.22154   0.55912   0.58966   0.00000  Uiso   1.00
C1345  C     0.17220   0.59863   0.59734   0.00000  Uiso   1.00
H1346  H     0.16485   0.60242   0.63025   0.00000  Uiso   1.00
H1347  H     0.19565   0.62538   0.58524   0.00000  Uiso   1.00
H1348  H     0.14207   0.59847   0.58861   0.00000  Uiso   1.00
N1349  N     0.23767   0.41201   0.60623   0.00000  Uiso   1.00
O1350  O     0.26217   0.43339   0.62718   0.00000  Uiso   1.00
O1351  O     0.22940   0.37171   0.60724   0.00000  Uiso   1.00
N1352  N     0.23381   0.39847   0.95734   0.00000  Uiso   1.00
O1353  O     0.27479   0.41157   0.95072   0.00000  Uiso   1.00
O1354  O     0.22138   0.36434   0.93756   0.00000  Uiso   1.00
O1355  O     0.06008   0.58045   0.98397   0.00000  Uiso   1.00
C1356  C     0.08417   0.61981   0.98938   0.00000  Uiso   1.00
H1357  H     0.10154   0.63194   0.96025   0.00000  Uiso   1.00
H1358  H     0.10791   0.61785   0.50612   0.00000  Uiso   1.00
C1359  C     0.05376   0.65086   0.51313   0.00000  Uiso   1.00
H1360  H     0.03639   0.64004   0.54269   0.00000  Uiso   1.00
H1361  H     0.07243   0.34862   0.51739   0.00000  Uiso   1.00
H1362  H     0.02990   0.65392   0.99704   0.00000  Uiso   1.00
O1363  O     0.08911   0.49559   0.58386   0.00000  Uiso   1.00
C1364  C     0.06516   0.45547   0.58630   0.00000  Uiso   1.00
H1365  H     0.08666   0.43059   0.57444   0.00000  Uiso   1.00
H1366  H     0.04031   0.45182   0.56964   0.00000  Uiso   1.00
C1367  C     0.04224   0.44966   0.62961   0.00000  Uiso   1.00
H1368  H     0.01992   0.47362   0.64219   0.00000  Uiso   1.00
H1369  H     0.02336   0.41815   0.63195   0.00000  Uiso   1.00
H1370  H     0.06622   0.45271   0.64698   0.00000  Uiso   1.00
O1371  O     0.18034   0.42689   0.92276   0.00000  Uiso   1.00
C1372  C     0.14193   0.39975   0.92307   0.00000  Uiso   1.00
H1373  H     0.11313   0.41683   0.93443   0.00000  Uiso   1.00
H1374  H     0.13829   0.37377   0.94172   0.00000  Uiso   1.00
C1375  C     0.14359   0.38099   0.88084   0.00000  Uiso   1.00
H1376  H     0.17194   0.36354   0.86860   0.00000  Uiso   1.00
H1377  H     0.11380   0.35920   0.88065   0.00000  Uiso   1.00
H1378  H     0.14615   0.40621   0.86179   0.00000  Uiso   1.00
Zn1379 Zn    0.52577   0.47423   0.78277   0.00000  Uiso   1.00
Zn1380 Zn    0.46792   0.45711   0.72258   0.00000  Uiso   1.00
Zn1381 Zn    0.54500   0.52997   0.71188   0.00000  Uiso   1.00
Zn1382 Zn    0.46131   0.53868   0.78277   0.00000  Uiso   1.00
O1383  O     0.50000   0.50000   0.75000   0.00000  Uiso   1.00
O1384  O     0.40323   0.52293   0.77820   0.00000  Uiso   1.00
O1385  O     0.58773   0.48610   0.76767   0.00000  Uiso   1.00
O1386  O     0.47133   0.40236   0.73607   0.00000  Uiso   1.00
O1387  O     0.53771   0.58860   0.71806   0.00000  Uiso   1.00
O1388  O     0.49027   0.45726   0.66625   0.00000  Uiso   1.00
O1389  O     0.46020   0.53979   0.83749   0.00000  Uiso   1.00
O1390  O     0.54421   0.50826   0.65877   0.00000  Uiso   1.00
O1391  O     0.50532   0.49468   0.83749   0.00000  Uiso   1.00
O1392  O     0.51182   0.41434   0.77820   0.00000  Uiso   1.00
O1393  O     0.47914   0.59469   0.76767   0.00000  Uiso   1.00
O1394  O     0.40785   0.46584   0.73607   0.00000  Uiso   1.00
O1395  O     0.60119   0.52512   0.71805   0.00000  Uiso   1.00
C1396  C     0.38598   0.49269   0.75879   0.00000  Uiso   1.00
C1397  C     0.61448   0.50732   0.74149   0.00000  Uiso   1.00
C1398  C     0.48887   0.38944   0.75933   0.00000  Uiso   1.00
C1399  C     0.51016   0.61095   0.74068   0.00000  Uiso   1.00
C1400  C     0.52134   0.47868   0.64381   0.00000  Uiso   1.00
C1401  C     0.47894   0.52096   0.85634   0.00000  Uiso   1.00
C1402  C     0.46692   0.52593   0.90015   0.00000  Uiso   1.00
C1403  C     0.53069   0.46777   0.60091   0.00000  Uiso   1.00
C1404  C     0.42176   0.55242   0.96349   0.00000  Uiso   1.00
C1405  C     0.43503   0.55049   0.92200   0.00000  Uiso   1.00
C1406  C     0.48624   0.50406   0.92020   0.00000  Uiso   1.00
C1407  C     0.47011   0.50100   0.96133   0.00000  Uiso   1.00
C1408  C     0.43719   0.52570   0.98351   0.00000  Uiso   1.00
C1409  C     0.48777   0.47583   0.98117   0.00000  Uiso   1.00
C1410  C     0.47946   0.48314   0.52279   0.00000  Uiso   1.00
C1411  C     0.44175   0.50149   0.54427   0.00000  Uiso   1.00
C1412  C     0.42108   0.52314   0.52491   0.00000  Uiso   1.00
C1413  C     0.51265   0.44309   0.96132   0.00000  Uiso   1.00
C1414  C     0.53628   0.42522   0.98089   0.00000  Uiso   1.00
C1415  C     0.53284   0.43708   0.52178   0.00000  Uiso   1.00
C1416  C     0.50677   0.46887   0.54183   0.00000  Uiso   1.00
C1417  C     0.55399   0.41787   0.54357   0.00000  Uiso   1.00
C1418  C     0.55206   0.43288   0.58334   0.00000  Uiso   1.00
C1419  C     0.51058   0.48726   0.57966   0.00000  Uiso   1.00
H1420  H     0.42082   0.56901   0.90708   0.00000  Uiso   1.00
H1421  H     0.51467   0.49032   0.90311   0.00000  Uiso   1.00
C1422  C     0.66038   0.51221   0.73957   0.00000  Uiso   1.00
C1423  C     0.34072   0.48864   0.76113   0.00000  Uiso   1.00
C1424  C     0.51464   0.65545   0.73592   0.00000  Uiso   1.00
C1425  C     0.48638   0.34540   0.76166   0.00000  Uiso   1.00
H1426  H     0.46117   0.66546   0.78588   0.00000  Uiso   1.00
N1427  N     0.38243   0.54030   0.54756   0.00000  Uiso   1.00
O1428  O     0.34634   0.52729   0.53843   0.00000  Uiso   1.00
O1429  O     0.38180   0.56374   0.58065   0.00000  Uiso   1.00
N1430  N     0.57453   0.38112   0.52701   0.00000  Uiso   1.00
O1431  O     0.61488   0.38086   0.52521   0.00000  Uiso   1.00
O1432  O     0.55130   0.34619   0.51972   0.00000  Uiso   1.00
N1433  N     0.35603   0.54349   0.71621   0.00000  Uiso   1.00
O1434  O     0.34290   0.57861   0.71411   0.00000  Uiso   1.00
O1435  O     0.39378   0.53548   0.69384   0.00000  Uiso   1.00
O1436  O     0.64703   0.45488   0.77875   0.00000  Uiso   1.00
C1437  C     0.64947   0.45456   0.81800   0.00000  Uiso   1.00
H1438  H     0.64895   0.48644   0.83435   0.00000  Uiso   1.00
H1439  H     0.34597   0.44190   0.81771   0.00000  Uiso   1.00
C1440  C     0.61065   0.42655   0.84032   0.00000  Uiso   1.00
H1441  H     0.61038   0.39422   0.82535   0.00000  Uiso   1.00
H1442  H     0.61219   0.42590   0.87121   0.00000  Uiso   1.00
H1443  H     0.58037   0.43867   0.84125   0.00000  Uiso   1.00
N1444  N     0.54865   0.33958   0.70385   0.00000  Uiso   1.00
O1445  O     0.56108   0.65048   0.67011   0.00000  Uiso   1.00
O1446  O     0.56995   0.37622   0.70923   0.00000  Uiso   1.00
O1447  O     0.49435   0.52434   0.59666   0.00000  Uiso   1.00
C1448  C     0.52450   0.55799   0.58090   0.00000  Uiso   1.00
H1449  H     0.53201   0.55559   0.54790   0.00000  Uiso   1.00
H1450  H     0.55487   0.55912   0.58966   0.00000  Uiso   1.00
C1451  C     0.50553   0.59863   0.59734   0.00000  Uiso   1.00
H1452  H     0.49818   0.60242   0.63025   0.00000  Uiso   1.00
H1453  H     0.52898   0.62538   0.58524   0.00000  Uiso   1.00
H1454  H     0.47540   0.59847   0.58861   0.00000  Uiso   1.00
N1455  N     0.57101   0.41201   0.60623   0.00000  Uiso   1.00
O1456  O     0.59551   0.43339   0.62718   0.00000  Uiso   1.00
O1457  O     0.56273   0.37171   0.60724   0.00000  Uiso   1.00
N1458  N     0.56714   0.39847   0.95734   0.00000  Uiso   1.00
O1459  O     0.60813   0.41157   0.95072   0.00000  Uiso   1.00
O1460  O     0.55471   0.36434   0.93756   0.00000  Uiso   1.00
O1461  O     0.39342   0.58045   0.98397   0.00000  Uiso   1.00
C1462  C     0.41750   0.61981   0.98938   0.00000  Uiso   1.00
H1463  H     0.43488   0.63194   0.96025   0.00000  Uiso   1.00
H1464  H     0.44124   0.61785   0.50612   0.00000  Uiso   1.00
C1465  C     0.38709   0.65086   0.51313   0.00000  Uiso   1.00
H1466  H     0.36973   0.64004   0.54269   0.00000  Uiso   1.00
H1467  H     0.40577   0.34862   0.51739   0.00000  Uiso   1.00
H1468  H     0.36324   0.65392   0.99704   0.00000  Uiso   1.00
O1469  O     0.42244   0.49559   0.58386   0.00000  Uiso   1.00
C1470  C     0.39849   0.45547   0.58630   0.00000  Uiso   1.00
H1471  H     0.42000   0.43059   0.57444   0.00000  Uiso   1.00
H1472  H     0.37364   0.45182   0.56964   0.00000  Uiso   1.00
C1473  C     0.37557   0.44966   0.62961   0.00000  Uiso   1.00
H1474  H     0.35325   0.47362   0.64219   0.00000  Uiso   1.00
H1475  H     0.35670   0.41815   0.63195   0.00000  Uiso   1.00
H1476  H     0.39955   0.45271   0.64698   0.00000  Uiso   1.00
O1477  O     0.51367   0.42689   0.92276   0.00000  Uiso   1.00
C1478  C     0.47526   0.39975   0.92307   0.00000  Uiso   1.00
H1479  H     0.44646   0.41683   0.93443   0.00000  Uiso   1.00
H1480  H     0.47162   0.37377   0.94172   0.00000  Uiso   1.00
C1481  C     0.47693   0.38099   0.88084   0.00000  Uiso   1.00
H1482  H     0.50527   0.36354   0.86860   0.00000  Uiso   1.00
H1483  H     0.44714   0.35920   0.88065   0.00000  Uiso   1.00
H1484  H     0.47949   0.40621   0.86179   0.00000  Uiso   1.00
Zn1485 Zn    0.85910   0.47423   0.78277   0.00000  Uiso   1.00
Zn1486 Zn    0.80125   0.45711   0.72258   0.00000  Uiso   1.00
Zn1487 Zn    0.87833   0.52997   0.71188   0.00000  Uiso   1.00
Zn1488 Zn    0.79465   0.53868   0.78277   0.00000  Uiso   1.00
O1489  O     0.83333   0.50000   0.75000   0.00000  Uiso   1.00
O1490  O     0.73656   0.52293   0.77820   0.00000  Uiso   1.00
O1491  O     0.92106   0.48610   0.76767   0.00000  Uiso   1.00
O1492  O     0.80467   0.40236   0.73607   0.00000  Uiso   1.00
O1493  O     0.87104   0.58860   0.71806   0.00000  Uiso   1.00
O1494  O     0.82360   0.45726   0.66625   0.00000  Uiso   1.00
O1495  O     0.79354   0.53979   0.83749   0.00000  Uiso   1.00
O1496  O     0.87755   0.50826   0.65877   0.00000  Uiso   1.00
O1497  O     0.83865   0.49468   0.83749   0.00000  Uiso   1.00
O1498  O     0.84515   0.41434   0.77820   0.00000  Uiso   1.00
O1499  O     0.81247   0.59469   0.76767   0.00000  Uiso   1.00
O1500  O     0.74119   0.46584   0.73607   0.00000  Uiso   1.00
O1501  O     0.93452   0.52512   0.71805   0.00000  Uiso   1.00
C1502  C     0.71932   0.49269   0.75879   0.00000  Uiso   1.00
C1503  C     0.94781   0.50732   0.74149   0.00000  Uiso   1.00
C1504  C     0.82220   0.38944   0.75933   0.00000  Uiso   1.00
C1505  C     0.84349   0.61095   0.74068   0.00000  Uiso   1.00
C1506  C     0.85467   0.47868   0.64381   0.00000  Uiso   1.00
C1507  C     0.81228   0.52096   0.85634   0.00000  Uiso   1.00
C1508  C     0.80025   0.52593   0.90015   0.00000  Uiso   1.00
C1509  C     0.86402   0.46777   0.60091   0.00000  Uiso   1.00
C1510  C     0.75509   0.55242   0.96349   0.00000  Uiso   1.00
C1511  C     0.76836   0.55049   0.92200   0.00000  Uiso   1.00
C1512  C     0.81957   0.50406   0.92020   0.00000  Uiso   1.00
C1513  C     0.80344   0.50100   0.96133   0.00000  Uiso   1.00
C1514  C     0.77052   0.52570   0.98351   0.00000  Uiso   1.00
C1515  C     0.82111   0.47583   0.98117   0.00000  Uiso   1.00
C1516  C     0.81279   0.48314   0.52279   0.00000  Uiso   1.00
C1517  C     0.77509   0.50149   0.54427   0.00000  Uiso   1.00
C1518  C     0.75441   0.52314   0.52491   0.00000  Uiso   1.00
C1519  C     0.84598   0.44309   0.96132   0.00000  Uiso   1.00
C1520  C     0.86961   0.42522   0.98089   0.00000  Uiso   1.00
C1521  C     0.86618   0.43708   0.52178   0.00000  Uiso   1.00
C1522  C     0.84011   0.46887   0.54183   0.00000  Uiso   1.00
C1523  C     0.88733   0.41787   0.54357   0.00000  Uiso   1.00
C1524  C     0.88539   0.43288   0.58334   0.00000  Uiso   1.00
C1525  C     0.84392   0.48726   0.57966   0.00000  Uiso   1.00
H1526  H     0.75415   0.56901   0.90708   0.00000  Uiso   1.00
H1527  H     0.84800   0.49032   0.90311   0.00000  Uiso   1.00
C1528  C     0.99371   0.51221   0.73957   0.00000  Uiso   1.00
C1529  C     0.67406   0.48864   0.76113   0.00000  Uiso   1.00
C1530  C     0.84797   0.65545   0.73592   0.00000  Uiso   1.00
C1531  C     0.81971   0.34540   0.76166   0.00000  Uiso   1.00
H1532  H     0.79451   0.66546   0.78588   0.00000  Uiso   1.00
N1533  N     0.71576   0.54030   0.54756   0.00000  Uiso   1.00
O1534  O     0.67967   0.52729   0.53843   0.00000  Uiso   1.00
O1535  O     0.71513   0.56374   0.58065   0.00000  Uiso   1.00
N1536  N     0.90787   0.38112   0.52701   0.00000  Uiso   1.00
O1537  O     0.94822   0.38086   0.52521   0.00000  Uiso   1.00
O1538  O     0.88464   0.34619   0.51972   0.00000  Uiso   1.00
N1539  N     0.68936   0.54349   0.71621   0.00000  Uiso   1.00
O1540  O     0.67624   0.57861   0.71411   0.00000  Uiso   1.00
O1541  O     0.72711   0.53548   0.69384   0.00000  Uiso   1.00
O1542  O     0.98037   0.45488   0.77875   0.00000  Uiso   1.00
C1543  C     0.98280   0.45456   0.81800   0.00000  Uiso   1.00
H1544  H     0.98228   0.48644   0.83435   0.00000  Uiso   1.00
H1545  H     0.67930   0.44190   0.81771   0.00000  Uiso   1.00
C1546  C     0.94399   0.42655   0.84032   0.00000  Uiso   1.00
H1547  H     0.94371   0.39422   0.82535   0.00000  Uiso   1.00
H1548  H     0.94553   0.42590   0.87121   0.00000  Uiso   1.00
H1549  H     0.91370   0.43867   0.84125   0.00000  Uiso   1.00
N1550  N     0.88198   0.33958   0.70385   0.00000  Uiso   1.00
O1551  O     0.89442   0.65048   0.67011   0.00000  Uiso   1.00
O1552  O     0.90329   0.37622   0.70923   0.00000  Uiso   1.00
O1553  O     0.82769   0.52434   0.59666   0.00000  Uiso   1.00
C1554  C     0.85783   0.55799   0.58090   0.00000  Uiso   1.00
H1555  H     0.86534   0.55559   0.54790   0.00000  Uiso   1.00
H1556  H     0.88820   0.55912   0.58966   0.00000  Uiso   1.00
C1557  C     0.83887   0.59863   0.59734   0.00000  Uiso   1.00
H1558  H     0.83152   0.60242   0.63025   0.00000  Uiso   1.00
H1559  H     0.86232   0.62538   0.58524   0.00000  Uiso   1.00
H1560  H     0.80874   0.59847   0.58861   0.00000  Uiso   1.00
N1561  N     0.90434   0.41201   0.60623   0.00000  Uiso   1.00
O1562  O     0.92884   0.43339   0.62718   0.00000  Uiso   1.00
O1563  O     0.89606   0.37171   0.60724   0.00000  Uiso   1.00
N1564  N     0.90048   0.39847   0.95734   0.00000  Uiso   1.00
O1565  O     0.94146   0.41157   0.95072   0.00000  Uiso   1.00
O1566  O     0.88805   0.36434   0.93756   0.00000  Uiso   1.00
O1567  O     0.72675   0.58045   0.98397   0.00000  Uiso   1.00
C1568  C     0.75084   0.61981   0.98938   0.00000  Uiso   1.00
H1569  H     0.76821   0.63194   0.96025   0.00000  Uiso   1.00
H1570  H     0.77457   0.61785   0.50612   0.00000  Uiso   1.00
C1571  C     0.72043   0.65086   0.51313   0.00000  Uiso   1.00
H1572  H     0.70306   0.64004   0.54269   0.00000  Uiso   1.00
H1573  H     0.73910   0.34862   0.51739   0.00000  Uiso   1.00
H1574  H     0.69657   0.65392   0.99704   0.00000  Uiso   1.00
O1575  O     0.75577   0.49559   0.58386   0.00000  Uiso   1.00
C1576  C     0.73183   0.45547   0.58630   0.00000  Uiso   1.00
H1577  H     0.75333   0.43059   0.57444   0.00000  Uiso   1.00
H1578  H     0.70698   0.45182   0.56964   0.00000  Uiso   1.00
C1579  C     0.70890   0.44966   0.62961   0.00000  Uiso   1.00
H1580  H     0.68658   0.47362   0.64219   0.00000  Uiso   1.00
H1581  H     0.69003   0.41815   0.63195   0.00000  Uiso   1.00
H1582  H     0.73288   0.45271   0.64698   0.00000  Uiso   1.00
O1583  O     0.84701   0.42689   0.92276   0.00000  Uiso   1.00
C1584  C     0.80860   0.39975   0.92307   0.00000  Uiso   1.00
H1585  H     0.77980   0.41683   0.93443   0.00000  Uiso   1.00
H1586  H     0.80496   0.37377   0.94172   0.00000  Uiso   1.00
C1587  C     0.81026   0.38099   0.88084   0.00000  Uiso   1.00
H1588  H     0.83861   0.36354   0.86860   0.00000  Uiso   1.00
H1589  H     0.78047   0.35920   0.88065   0.00000  Uiso   1.00
H1590  H     0.81282   0.40621   0.86179   0.00000  Uiso   1.00
Zn1591 Zn    0.19244   0.80756   0.78277   0.00000  Uiso   1.00
Zn1592 Zn    0.13459   0.79044   0.72258   0.00000  Uiso   1.00
Zn1593 Zn    0.21166   0.86331   0.71188   0.00000  Uiso   1.00
Zn1594 Zn    0.12798   0.87202   0.78277   0.00000  Uiso   1.00
O1595  O     0.16667   0.83333   0.75000   0.00000  Uiso   1.00
O1596  O     0.06990   0.85627   0.77820   0.00000  Uiso   1.00
O1597  O     0.25440   0.81944   0.76767   0.00000  Uiso   1.00
O1598  O     0.13800   0.73570   0.73607   0.00000  Uiso   1.00
O1599  O     0.20437   0.92193   0.71806   0.00000  Uiso   1.00
O1600  O     0.15693   0.79060   0.66625   0.00000  Uiso   1.00
O1601  O     0.12687   0.87313   0.83749   0.00000  Uiso   1.00
O1602  O     0.21088   0.84159   0.65877   0.00000  Uiso   1.00
O1603  O     0.17198   0.82802   0.83749   0.00000  Uiso   1.00
O1604  O     0.17849   0.74768   0.77820   0.00000  Uiso   1.00
O1605  O     0.14581   0.92803   0.76767   0.00000  Uiso   1.00
O1606  O     0.07452   0.79917   0.73607   0.00000  Uiso   1.00
O1607  O     0.26785   0.85845   0.71805   0.00000  Uiso   1.00
C1608  C     0.05265   0.82603   0.75879   0.00000  Uiso   1.00
C1609  C     0.28114   0.84065   0.74149   0.00000  Uiso   1.00
C1610  C     0.15553   0.72277   0.75933   0.00000  Uiso   1.00
C1611  C     0.17683   0.94429   0.74068   0.00000  Uiso   1.00
C1612  C     0.18800   0.81202   0.64381   0.00000  Uiso   1.00
C1613  C     0.14561   0.85430   0.85634   0.00000  Uiso   1.00
C1614  C     0.13359   0.85927   0.90015   0.00000  Uiso   1.00
C1615  C     0.19736   0.80110   0.60091   0.00000  Uiso   1.00
C1616  C     0.08842   0.88575   0.96349   0.00000  Uiso   1.00
C1617  C     0.10170   0.88383   0.92200   0.00000  Uiso   1.00
C1618  C     0.15291   0.83739   0.92020   0.00000  Uiso   1.00
C1619  C     0.13678   0.83433   0.96133   0.00000  Uiso   1.00
C1620  C     0.10385   0.85903   0.98351   0.00000  Uiso   1.00
C1621  C     0.15444   0.80916   0.98117   0.00000  Uiso   1.00
C1622  C     0.14612   0.81647   0.52279   0.00000  Uiso   1.00
C1623  C     0.10842   0.83482   0.54427   0.00000  Uiso   1.00
C1624  C     0.08775   0.85648   0.52491   0.00000  Uiso   1.00
C1625  C     0.17931   0.77642   0.96132   0.00000  Uiso   1.00
C1626  C     0.20295   0.75855   0.98089   0.00000  Uiso   1.00
C1627  C     0.19951   0.77042   0.52178   0.00000  Uiso   1.00
C1628  C     0.17344   0.80221   0.54183   0.00000  Uiso   1.00
C1629  C     0.22066   0.75121   0.54357   0.00000  Uiso   1.00
C1630  C     0.21872   0.76622   0.58334   0.00000  Uiso   1.00
C1631  C     0.17725   0.82059   0.57966   0.00000  Uiso   1.00
H1632  H     0.08749   0.90234   0.90708   0.00000  Uiso   1.00
H1633  H     0.18134   0.82366   0.90311   0.00000  Uiso   1.00
C1634  C     0.32704   0.84555   0.73957   0.00000  Uiso   1.00
C1635  C     0.00739   0.82197   0.76113   0.00000  Uiso   1.00
C1636  C     0.18130   0.98878   0.73592   0.00000  Uiso   1.00
C1637  C     0.15304   0.67873   0.76166   0.00000  Uiso   1.00
H1638  H     0.12784   0.99879   0.78588   0.00000  Uiso   1.00
N1639  N     0.04909   0.87363   0.54756   0.00000  Uiso   1.00
O1640  O     0.01301   0.86062   0.53843   0.00000  Uiso   1.00
O1641  O     0.04846   0.89707   0.58065   0.00000  Uiso   1.00
N1642  N     0.24120   0.71446   0.52701   0.00000  Uiso   1.00
O1643  O     0.28155   0.71420   0.52521   0.00000  Uiso   1.00
O1644  O     0.21797   0.67952   0.51972   0.00000  Uiso   1.00
N1645  N     0.02270   0.87682   0.71621   0.00000  Uiso   1.00
O1646  O     0.00957   0.91195   0.71411   0.00000  Uiso   1.00
O1647  O     0.06045   0.86881   0.69384   0.00000  Uiso   1.00
O1648  O     0.31370   0.78821   0.77875   0.00000  Uiso   1.00
C1649  C     0.31614   0.78789   0.81800   0.00000  Uiso   1.00
H1650  H     0.31562   0.81977   0.83435   0.00000  Uiso   1.00
H1651  H     0.01264   0.77523   0.81771   0.00000  Uiso   1.00
C1652  C     0.27732   0.75988   0.84032   0.00000  Uiso   1.00
H1653  H     0.27705   0.72755   0.82535   0.00000  Uiso   1.00
H1654  H     0.27886   0.75924   0.87121   0.00000  Uiso   1.00
H1655  H     0.24704   0.77200   0.84125   0.00000  Uiso   1.00
N1656  N     0.21532   0.67291   0.70385   0.00000  Uiso   1.00
O1657  O     0.22775   0.98381   0.67011   0.00000  Uiso   1.00
O1658  O     0.23662   0.70955   0.70923   0.00000  Uiso   1.00
O1659  O     0.16102   0.85767   0.59666   0.00000  Uiso   1.00
C1660  C     0.19117   0.89132   0.58090   0.00000  Uiso   1.00
H1661  H     0.19867   0.88893   0.54790   0.00000  Uiso   1.00
H1662  H     0.22154   0.89246   0.58966   0.00000  Uiso   1.00
C1663  C     0.17220   0.93196   0.59734   0.00000  Uiso   1.00
H1664  H     0.16485   0.93575   0.63025   0.00000  Uiso   1.00
H1665  H     0.19565   0.95872   0.58524   0.00000  Uiso   1.00
H1666  H     0.14207   0.93181   0.58861   0.00000  Uiso   1.00
N1667  N     0.23767   0.74535   0.60623   0.00000  Uiso   1.00
O1668  O     0.26217   0.76673   0.62718   0.00000  Uiso   1.00
O1669  O     0.22940   0.70504   0.60724   0.00000  Uiso   1.00
N1670  N     0.23381   0.73180   0.95734   0.00000  Uiso   1.00
O1671  O     0.27479   0.74490   0.95072   0.00000  Uiso   1.00
O1672  O     0.22138   0.69768   0.93756   0.00000  Uiso   1.00
O1673  O     0.06008   0.91378   0.98397   0.00000  Uiso   1.00
C1674  C     0.08417   0.95315   0.98938   0.00000  Uiso   1.00
H1675  H     0.10154   0.96527   0.96025   0.00000  Uiso   1.00
H1676  H     0.10791   0.95118   0.50612   0.00000  Uiso   1.00
C1677  C     0.05376   0.98419   0.51313   0.00000  Uiso   1.00
H1678  H     0.03639   0.97337   0.54269   0.00000  Uiso   1.00
H1679  H     0.07243   0.68195   0.51739   0.00000  Uiso   1.00
H1680  H     0.02990   0.98726   0.99704   0.00000  Uiso   1.00
O1681  O     0.08911   0.82893   0.58386   0.00000  Uiso   1.00
C1682  C     0.06516   0.78880   0.58630   0.00000  Uiso   1.00
H1683  H     0.08666   0.76392   0.57444   0.00000  Uiso   1.00
H1684  H     0.04031   0.78515   0.56964   0.00000  Uiso   1.00
C1685  C     0.04224   0.78299   0.62961   0.00000  Uiso   1.00
H1686  H     0.01992   0.80695   0.64219   0.00000  Uiso   1.00
H1687  H     0.02336   0.75148   0.63195   0.00000  Uiso   1.00
H1688  H     0.06622   0.78604   0.64698   0.00000  Uiso   1.00
O1689  O     0.18034   0.76023   0.92276   0.00000  Uiso   1.00
C1690  C     0.14193   0.73309   0.92307   0.00000  Uiso   1.00
H1691  H     0.11313   0.75016   0.93443   0.00000  Uiso   1.00
H1692  H     0.13829   0.70710   0.94172   0.00000  Uiso   1.00
C1693  C     0.14359   0.71432   0.88084   0.00000  Uiso   1.00
H1694  H     0.17194   0.69687   0.86860   0.00000  Uiso   1.00
H1695  H     0.11380   0.69254   0.88065   0.00000  Uiso   1.00
H1696  H     0.14615   0.73954   0.86179   0.00000  Uiso   1.00
Zn1697 Zn    0.52577   0.80756   0.78277   0.00000  Uiso   1.00
Zn1698 Zn    0.46792   0.79044   0.72258   0.00000  Uiso   1.00
Zn1699 Zn    0.54500   0.86331   0.71188   0.00000  Uiso   1.00
Zn1700 Zn    0.46131   0.87202   0.78277   0.00000  Uiso   1.00
O1701  O     0.50000   0.83333   0.75000   0.00000  Uiso   1.00
O1702  O     0.40323   0.85627   0.77820   0.00000  Uiso   1.00
O1703  O     0.58773   0.81944   0.76767   0.00000  Uiso   1.00
O1704  O     0.47133   0.73570   0.73607   0.00000  Uiso   1.00
O1705  O     0.53771   0.92193   0.71806   0.00000  Uiso   1.00
O1706  O     0.49027   0.79060   0.66625   0.00000  Uiso   1.00
O1707  O     0.46020   0.87313   0.83749   0.00000  Uiso   1.00
O1708  O     0.54421   0.84159   0.65877   0.00000  Uiso   1.00
O1709  O     0.50532   0.82802   0.83749   0.00000  Uiso   1.00
O1710  O     0.51182   0.74768   0.77820   0.00000  Uiso   1.00
O1711  O     0.47914   0.92803   0.76767   0.00000  Uiso   1.00
O1712  O     0.40785   0.79917   0.73607   0.00000  Uiso   1.00
O1713  O     0.60119   0.85845   0.71805   0.00000  Uiso   1.00
C1714  C     0.38598   0.82603   0.75879   0.00000  Uiso   1.00
C1715  C     0.61448   0.84065   0.74149   0.00000  Uiso   1.00
C1716  C     0.48887   0.72277   0.75933   0.00000  Uiso   1.00
C1717  C     0.51016   0.94429   0.74068   0.00000  Uiso   1.00
C1718  C     0.52134   0.81202   0.64381   0.00000  Uiso   1.00
C1719  C     0.47894   0.85430   0.85634   0.00000  Uiso   1.00
C1720  C     0.46692   0.85927   0.90015   0.00000  Uiso   1.00
C1721  C     0.53069   0.80110   0.60091   0.00000  Uiso   1.00
C1722  C     0.42176   0.88575   0.96349   0.00000  Uiso   1.00
C1723  C     0.43503   0.88383   0.92200   0.00000  Uiso   1.00
C1724  C     0.48624   0.83739   0.92020   0.00000  Uiso   1.00
C1725  C     0.47011   0.83433   0.96133   0.00000  Uiso   1.00
C1726  C     0.43719   0.85903   0.98351   0.00000  Uiso   1.00
C1727  C     0.48777   0.80916   0.98117   0.00000  Uiso   1.00
C1728  C     0.47946   0.81647   0.52279   0.00000  Uiso   1.00
C1729  C     0.44175   0.83482   0.54427   0.00000  Uiso   1.00
C1730  C     0.42108   0.85648   0.52491   0.00000  Uiso   1.00
C1731  C     0.51265   0.77642   0.96132   0.00000  Uiso   1.00
C1732  C     0.53628   0.75855   0.98089   0.00000  Uiso   1.00
C1733  C     0.53284   0.77042   0.52178   0.00000  Uiso   1.00
C1734  C     0.50677   0.80221   0.54183   0.00000  Uiso   1.00
C1735  C     0.55399   0.75121   0.54357   0.00000  Uiso   1.00
C1736  C     0.55206   0.76622   0.58334   0.00000  Uiso   1.00
C1737  C     0.51058   0.82059   0.57966   0.00000  Uiso   1.00
H1738  H     0.42082   0.90234   0.90708   0.00000  Uiso   1.00
H1739  H     0.51467   0.82366   0.90311   0.00000  Uiso   1.00
C1740  C     0.66038   0.84555   0.73957   0.00000  Uiso   1.00
C1741  C     0.34072   0.82197   0.76113   0.00000  Uiso   1.00
C1742  C     0.51464   0.98878   0.73592   0.00000  Uiso   1.00
C1743  C     0.48638   0.67873   0.76166   0.00000  Uiso   1.00
H1744  H     0.46117   0.99879   0.78588   0.00000  Uiso   1.00
N1745  N     0.38243   0.87363   0.54756   0.00000  Uiso   1.00
O1746  O     0.34634   0.86062   0.53843   0.00000  Uiso   1.00
O1747  O     0.38180   0.89707   0.58065   0.00000  Uiso   1.00
N1748  N     0.57453   0.71446   0.52701   0.00000  Uiso   1.00
O1749  O     0.61488   0.71420   0.52521   0.00000  Uiso   1.00
O1750  O     0.55130   0.67952   0.51972   0.00000  Uiso   1.00
N1751  N     0.35603   0.87682   0.71621   0.00000  Uiso   1.00
O1752  O     0.34290   0.91195   0.71411   0.00000  Uiso   1.00
O1753  O     0.39378   0.86881   0.69384   0.00000  Uiso   1.00
O1754  O     0.64703   0.78821   0.77875   0.00000  Uiso   1.00
C1755  C     0.64947   0.78789   0.81800   0.00000  Uiso   1.00
H1756  H     0.64895   0.81977   0.83435   0.00000  Uiso   1.00
H1757  H     0.34597   0.77523   0.81771   0.00000  Uiso   1.00
C1758  C     0.61065   0.75988   0.84032   0.00000  Uiso   1.00
H1759  H     0.61038   0.72755   0.82535   0.00000  Uiso   1.00
H1760  H     0.61219   0.75924   0.87121   0.00000  Uiso   1.00
H1761  H     0.58037   0.77200   0.84125   0.00000  Uiso   1.00
N1762  N     0.54865   0.67291   0.70385   0.00000  Uiso   1.00
O1763  O     0.56108   0.98381   0.67011   0.00000  Uiso   1.00
O1764  O     0.56995   0.70955   0.70923   0.00000  Uiso   1.00
O1765  O     0.49435   0.85767   0.59666   0.00000  Uiso   1.00
C1766  C     0.52450   0.89132   0.58090   0.00000  Uiso   1.00
H1767  H     0.53201   0.88893   0.54790   0.00000  Uiso   1.00
H1768  H     0.55487   0.89246   0.58966   0.00000  Uiso   1.00
C1769  C     0.50553   0.93196   0.59734   0.00000  Uiso   1.00
H1770  H     0.49818   0.93575   0.63025   0.00000  Uiso   1.00
H1771  H     0.52898   0.95872   0.58524   0.00000  Uiso   1.00
H1772  H     0.47540   0.93181   0.58861   0.00000  Uiso   1.00
N1773  N     0.57101   0.74535   0.60623   0.00000  Uiso   1.00
O1774  O     0.59551   0.76673   0.62718   0.00000  Uiso   1.00
O1775  O     0.56273   0.70504   0.60724   0.00000  Uiso   1.00
N1776  N     0.56714   0.73180   0.95734   0.00000  Uiso   1.00
O1777  O     0.60813   0.74490   0.95072   0.00000  Uiso   1.00
O1778  O     0.55471   0.69768   0.93756   0.00000  Uiso   1.00
O1779  O     0.39342   0.91378   0.98397   0.00000  Uiso   1.00
C1780  C     0.41750   0.95315   0.98938   0.00000  Uiso   1.00
H1781  H     0.43488   0.96527   0.96025   0.00000  Uiso   1.00
H1782  H     0.44124   0.95118   0.50612   0.00000  Uiso   1.00
C1783  C     0.38709   0.98419   0.51313   0.00000  Uiso   1.00
H1784  H     0.36973   0.97337   0.54269   0.00000  Uiso   1.00
H1785  H     0.40577   0.68195   0.51739   0.00000  Uiso   1.00
H1786  H     0.36324   0.98726   0.99704   0.00000  Uiso   1.00
O1787  O     0.42244   0.82893   0.58386   0.00000  Uiso   1.00
C1788  C     0.39849   0.78880   0.58630   0.00000  Uiso   1.00
H1789  H     0.42000   0.76392   0.57444   0.00000  Uiso   1.00
H1790  H     0.37364   0.78515   0.56964   0.00000  Uiso   1.00
C1791  C     0.37557   0.78299   0.62961   0.00000  Uiso   1.00
H1792  H     0.35325   0.80695   0.64219   0.00000  Uiso   1.00
H1793  H     0.35670   0.75148   0.63195   0.00000  Uiso   1.00
H1794  H     0.39955   0.78604   0.64698   0.00000  Uiso   1.00
O1795  O     0.51367   0.76023   0.92276   0.00000  Uiso   1.00
C1796  C     0.47526   0.73309   0.92307   0.00000  Uiso   1.00
H1797  H     0.44646   0.75016   0.93443   0.00000  Uiso   1.00
H1798  H     0.47162   0.70710   0.94172   0.00000  Uiso   1.00
C1799  C     0.47693   0.71432   0.88084   0.00000  Uiso   1.00
H1800  H     0.50527   0.69687   0.86860   0.00000  Uiso   1.00
H1801  H     0.44714   0.69254   0.88065   0.00000  Uiso   1.00
H1802  H     0.47949   0.73954   0.86179   0.00000  Uiso   1.00
Zn1803 Zn    0.85910   0.80756   0.78277   0.00000  Uiso   1.00
Zn1804 Zn    0.80125   0.79044   0.72258   0.00000  Uiso   1.00
Zn1805 Zn    0.87833   0.86331   0.71188   0.00000  Uiso   1.00
Zn1806 Zn    0.79465   0.87202   0.78277   0.00000  Uiso   1.00
O1807  O     0.83333   0.83333   0.75000   0.00000  Uiso   1.00
O1808  O     0.73656   0.85627   0.77820   0.00000  Uiso   1.00
O1809  O     0.92106   0.81944   0.76767   0.00000  Uiso   1.00
O1810  O     0.80467   0.73570   0.73607   0.00000  Uiso   1.00
O1811  O     0.87104   0.92193   0.71806   0.00000  Uiso   1.00
O1812  O     0.82360   0.79060   0.66625   0.00000  Uiso   1.00
O1813  O     0.79354   0.87313   0.83749   0.00000  Uiso   1.00
O1814  O     0.87755   0.84159   0.65877   0.00000  Uiso   1.00
O1815  O     0.83865   0.82802   0.83749   0.00000  Uiso   1.00
O1816  O     0.84515   0.74768   0.77820   0.00000  Uiso   1.00
O1817  O     0.81247   0.92803   0.76767   0.00000  Uiso   1.00
O1818  O     0.74119   0.79917   0.73607   0.00000  Uiso   1.00
O1819  O     0.93452   0.85845   0.71805   0.00000  Uiso   1.00
C1820  C     0.71932   0.82603   0.75879   0.00000  Uiso   1.00
C1821  C     0.94781   0.84065   0.74149   0.00000  Uiso   1.00
C1822  C     0.82220   0.72277   0.75933   0.00000  Uiso   1.00
C1823  C     0.84349   0.94429   0.74068   0.00000  Uiso   1.00
C1824  C     0.85467   0.81202   0.64381   0.00000  Uiso   1.00
C1825  C     0.81228   0.85430   0.85634   0.00000  Uiso   1.00
C1826  C     0.80025   0.85927   0.90015   0.00000  Uiso   1.00
C1827  C     0.86402   0.80110   0.60091   0.00000  Uiso   1.00
C1828  C     0.75509   0.88575   0.96349   0.00000  Uiso   1.00
C1829  C     0.76836   0.88383   0.92200   0.00000  Uiso   1.00
C1830  C     0.81957   0.83739   0.92020   0.00000  Uiso   1.00
C1831  C     0.80344   0.83433   0.96133   0.00000  Uiso   1.00
C1832  C     0.77052   0.85903   0.98351   0.00000  Uiso   1.00
C1833  C     0.82111   0.80916   0.98117   0.00000  Uiso   1.00
C1834  C     0.81279   0.81647   0.52279   0.00000  Uiso   1.00
C1835  C     0.77509   0.83482   0.54427   0.00000  Uiso   1.00
C1836  C     0.75441   0.85648   0.52491   0.00000  Uiso   1.00
C1837  C     0.84598   0.77642   0.96132   0.00000  Uiso   1.00
C1838  C     0.86961   0.75855   0.98089   0.00000  Uiso   1.00
C1839  C     0.86618   0.77042   0.52178   0.00000  Uiso   1.00
C1840  C     0.84011   0.80221   0.54183   0.00000  Uiso   1.00
C1841  C     0.88733   0.75121   0.54357   0.00000  Uiso   1.00
C1842  C     0.88539   0.76622   0.58334   0.00000  Uiso   1.00
C1843  C     0.84392   0.82059   0.57966   0.00000  Uiso   1.00
H1844  H     0.75415   0.90234   0.90708   0.00000  Uiso   1.00
H1845  H     0.84800   0.82366   0.90311   0.00000  Uiso   1.00
C1846  C     0.99371   0.84555   0.73957   0.00000  Uiso   1.00
C1847  C     0.67406   0.82197   0.76113   0.00000  Uiso   1.00
C1848  C     0.84797   0.98878   0.73592   0.00000  Uiso   1.00
C1849  C     0.81971   0.67873   0.76166   0.00000  Uiso   1.00
H1850  H     0.79451   0.99879   0.78588   0.00000  Uiso   1.00
N1851  N     0.71576   0.87363   0.54756   0.00000  Uiso   1.00
O1852  O     0.67967   0.86062   0.53843   0.00000  Uiso   1.00
O1853  O     0.71513   0.89707   0.58065   0.00000  Uiso   1.00
N1854  N     0.90787   0.71446   0.52701   0.00000  Uiso   1.00
O1855  O     0.94822   0.71420   0.52521   0.00000  Uiso   1.00
O1856  O     0.88464   0.67952   0.51972   0.00000  Uiso   1.00
N1857  N     0.68936   0.87682   0.71621   0.00000  Uiso   1.00
O1858  O     0.67624   0.91195   0.71411   0.00000  Uiso   1.00
O1859  O     0.72711   0.86881   0.69384   0.00000  Uiso   1.00
O1860  O     0.98037   0.78821   0.77875   0.00000  Uiso   1.00
C1861  C     0.98280   0.78789   0.81800   0.00000  Uiso   1.00
H1862  H     0.98228   0.81977   0.83435   0.00000  Uiso   1.00
H1863  H     0.67930   0.77523   0.81771   0.00000  Uiso   1.00
C1864  C     0.94399   0.75988   0.84032   0.00000  Uiso   1.00
H1865  H     0.94371   0.72755   0.82535   0.00000  Uiso   1.00
H1866  H     0.94553   0.75924   0.87121   0.00000  Uiso   1.00
H1867  H     0.91370   0.77200   0.84125   0.00000  Uiso   1.00
N1868  N     0.88198   0.67291   0.70385   0.00000  Uiso   1.00
O1869  O     0.89442   0.98381   0.67011   0.00000  Uiso   1.00
O1870  O     0.90329   0.70955   0.70923   0.00000  Uiso   1.00
O1871  O     0.82769   0.85767   0.59666   0.00000  Uiso   1.00
C1872  C     0.85783   0.89132   0.58090   0.00000  Uiso   1.00
H1873  H     0.86534   0.88893   0.54790   0.00000  Uiso   1.00
H1874  H     0.88820   0.89246   0.58966   0.00000  Uiso   1.00
C1875  C     0.83887   0.93196   0.59734   0.00000  Uiso   1.00
H1876  H     0.83152   0.93575   0.63025   0.00000  Uiso   1.00
H1877  H     0.86232   0.95872   0.58524   0.00000  Uiso   1.00
H1878  H     0.80874   0.93181   0.58861   0.00000  Uiso   1.00
N1879  N     0.90434   0.74535   0.60623   0.00000  Uiso   1.00
O1880  O     0.92884   0.76673   0.62718   0.00000  Uiso   1.00
O1881  O     0.89606   0.70504   0.60724   0.00000  Uiso   1.00
N1882  N     0.90048   0.73180   0.95734   0.00000  Uiso   1.00
O1883  O     0.94146   0.74490   0.95072   0.00000  Uiso   1.00
O1884  O     0.88805   0.69768   0.93756   0.00000  Uiso   1.00
O1885  O     0.72675   0.91378   0.98397   0.00000  Uiso   1.00
C1886  C     0.75084   0.95315   0.98938   0.00000  Uiso   1.00
H1887  H     0.76821   0.96527   0.96025   0.00000  Uiso   1.00
H1888  H     0.77457   0.95118   0.50612   0.00000  Uiso   1.00
C1889  C     0.72043   0.98419   0.51313   0.00000  Uiso   1.00
H1890  H     0.70306   0.97337   0.54269   0.00000  Uiso   1.00
H1891  H     0.73910   0.68195   0.51739   0.00000  Uiso   1.00
H1892  H     0.69657   0.98726   0.99704   0.00000  Uiso   1.00
O1893  O     0.75577   0.82893   0.58386   0.00000  Uiso   1.00
C1894  C     0.73183   0.78880   0.58630   0.00000  Uiso   1.00
H1895  H     0.75333   0.76392   0.57444   0.00000  Uiso   1.00
H1896  H     0.70698   0.78515   0.56964   0.00000  Uiso   1.00
C1897  C     0.70890   0.78299   0.62961   0.00000  Uiso   1.00
H1898  H     0.68658   0.80695   0.64219   0.00000  Uiso   1.00
H1899  H     0.69003   0.75148   0.63195   0.00000  Uiso   1.00
H1900  H     0.73288   0.78604   0.64698   0.00000  Uiso   1.00
O1901  O     0.84701   0.76023   0.92276   0.00000  Uiso   1.00
C1902  C     0.80860   0.73309   0.92307   0.00000  Uiso   1.00
H1903  H     0.77980   0.75016   0.93443   0.00000  Uiso   1.00
H1904  H     0.80496   0.70710   0.94172   0.00000  Uiso   1.00
C1905  C     0.81026   0.71432   0.88084   0.00000  Uiso   1.00
H1906  H     0.83861   0.69687   0.86860   0.00000  Uiso   1.00
H1907  H     0.78047   0.69254   0.88065   0.00000  Uiso   1.00
H1908  H     0.81282   0.73954   0.86179   0.00000  Uiso   1.00
loop_
_geom_bond_atom_site_label_1
_geom_bond_atom_site_label_2
_geom_bond_distance
_geom_bond_site_symmetry_2
_ccdc_geom_bond_type
Zn1    O5      1.951   .     S
Zn1    O13     1.915   .     S
Zn1    O7      1.927   .     S
Zn1    O14     1.926   .     S
Zn2    O16     1.937   .     S
Zn2    O5      1.932   .     S
Zn2    O10     1.913   .     S
Zn2    O8      1.935   .     S
Zn3    O12     1.917   .     S
Zn3    O17     1.941   .     S
Zn3    O9      1.935   .     S
Zn3    O5      1.922   .     S
Zn4    O6      1.931   .     S
Zn4    O11     1.918   .     S
Zn4    O5      1.944   .     S
Zn4    O15     1.925   .     S
O6     C18     1.271   .     A
O7     C19     1.271   .     A
O8     C20     1.274   .     A
O9     C21     1.269   .     A
O10    C22     1.269   .     A
O11    C23     1.288   .     A
O12    C22     1.274   .     A
O13    C23     1.289   .     A
O14    C20     1.269   .     A
O15    C21     1.276   .     A
O16    C18     1.261   .     A
O17    C19     1.276   .     A
C18    C45     1.441   .     S
C19    C44     1.464   .     S
C20    C47     1.436   .     S
C21    C46     1.461   .     S
C22    C25     1.461   .     S
C23    C24     1.475   .     S
C24    C27     1.396   .     A
C24    C28     1.395   .     A
C25    C40     1.403   .     A
C25    C41     1.394   .     A
C26    O83     1.382   .     S
C26    C27     1.399   .     A
C26    C30     1.423   .     A
C27    H42     1.083   .     S
C28    C29     1.408   .     A
C28    H43     1.077   .     S
C29    C30     1.425   .     A
C29    C31     1.427   .     A
C30    C988    1.414   .     S
C31    C35     1.423   .     A
C31    C986    1.409   .     S
C32    C38     1.423   .     A
C32    C33     1.420   .     A
C32    C985    1.409   1_554 S
C33    O91     1.386   .     S
C33    C34     1.403   .     A
C34    N49     1.436   .     S
C34    C984    1.414   1_554 S
C35    C36     1.404   .     A
C35    O99     1.384   .     S
C36    N80     1.435   .     S
C36    C991    1.419   .     S
C37    C38     1.423   .     A
C37    C39     1.427   .     A
C37    C990    1.419   1_554 S
C38    C41     1.418   .     A
C39    C40     1.409   .     A
C39    N52     1.434   .     S
C40    N77     1.439   .     S
C41    O69     1.385   .     S
C44    C151    1.355   .     S
C44    N161    1.446   .     S
C45    C256    1.355   1_455 S
C45    O270    1.393   1_455 S
C46    C365    1.342   .     S
C46    N384    1.447   .     S
C47    C682    1.342   1_545 S
C47    H684    1.086   1_545 S
H48    C365    1.086   .     S
N49    O51     1.301   .     A
N49    O50     1.301   .     A
N52    O53     1.301   .     A
N52    O54     1.301   .     A
N55    O56     1.301   .     A
N55    O57     1.302   .     A
N55    C256    1.446   1_455 S
O58    C59     1.413   .     S
O58    C151    1.393   .     S
C59    C62     1.522   .     S
C59    H60     1.116   .     S
C59    H167    1.113   .     S
H61    C271    1.113   1_455 S
C62    H63     1.111   .     S
C62    H64     1.110   .     S
C62    H65     1.111   .     S
N66    O68     1.302   .     A
N66    C682    1.447   1_545 S
N66    O703    1.301   1_545 S
O67    N384    1.301   .     S
O69    C70     1.411   .     S
C70    H71     1.115   .     S
C70    C73     1.520   .     S
C70    H72     1.114   .     S
C73    H74     1.111   .     S
C73    H75     1.110   .     S
C73    H76     1.111   .     S
N77    O78     1.301   .     A
N77    O79     1.301   .     A
N80    O81     1.301   .     A
N80    O82     1.301   .     A
O83    C84     1.413   .     S
C84    H85     1.114   .     S
C84    H1040   1.115   .     S
C84    C1041   1.521   .     S
H86    C1038   1.115   1_554 S
C87    H88     1.111   .     S
C87    C1038   1.521   1_554 S
C87    H407    1.111   .     S
C87    H1044   1.111   1_554 S
H89    C723    1.111   1_545 S
H90    C1041   1.111   .     S
O91    C92     1.412   .     S
C92    C95     1.521   .     S
C92    H94     1.115   .     S
C92    H93     1.114   .     S
C95    H96     1.111   .     S
C95    H98     1.111   .     S
C95    H97     1.110   .     S
O99    C100    1.413   .     S
C100   H101    1.113   .     S
C100   H102    1.114   .     S
C100   C103    1.521   .     S
C103   H105    1.110   .     S
C103   H106    1.111   .     S
C103   H104    1.111   .     S
Zn107  O111    1.951   .     S
Zn107  O119    1.915   .     S
Zn107  O113    1.927   .     S
Zn107  O120    1.926   .     S
Zn108  O122    1.937   .     S
Zn108  O111    1.932   .     S
Zn108  O116    1.913   .     S
Zn108  O114    1.935   .     S
Zn109  O118    1.917   .     S
Zn109  O123    1.941   .     S
Zn109  O115    1.935   .     S
Zn109  O111    1.922   .     S
Zn110  O112    1.931   .     S
Zn110  O117    1.918   .     S
Zn110  O111    1.944   .     S
Zn110  O121    1.925   .     S
O112   C124    1.271   .     A
O113   C125    1.271   .     A
O114   C126    1.274   .     A
O115   C127    1.269   .     A
O116   C128    1.269   .     A
O117   C129    1.288   .     A
O118   C128    1.274   .     A
O119   C129    1.289   .     A
O120   C126    1.269   .     A
O121   C127    1.276   .     A
O122   C124    1.261   .     A
O123   C125    1.276   .     A
C124   C151    1.441   .     S
C125   C150    1.464   .     S
C126   C153    1.436   .     S
C127   C152    1.461   .     S
C128   C131    1.461   .     S
C129   C130    1.475   .     S
C130   C133    1.396   .     A
C130   C134    1.395   .     A
C131   C146    1.403   .     A
C131   C147    1.394   .     A
C132   O189    1.382   .     S
C132   C133    1.399   .     A
C132   C136    1.423   .     A
C133   H148    1.083   .     S
C134   C135    1.408   .     A
C134   H149    1.077   .     S
C135   C136    1.425   .     A
C135   C137    1.427   .     A
C136   C1094   1.414   .     S
C137   C141    1.423   .     A
C137   C1092   1.409   .     S
C138   C144    1.423   .     A
C138   C139    1.420   .     A
C138   C1091   1.409   1_554 S
C139   O197    1.386   .     S
C139   C140    1.403   .     A
C140   N155    1.436   .     S
C140   C1090   1.414   1_554 S
C141   C142    1.404   .     A
C141   O205    1.384   .     S
C142   N186    1.435   .     S
C142   C1097   1.419   .     S
C143   C144    1.423   .     A
C143   C145    1.427   .     A
C143   C1096   1.419   1_554 S
C144   C147    1.418   .     A
C145   C146    1.409   .     A
C145   N158    1.434   .     S
C146   N183    1.439   .     S
C147   O175    1.385   .     S
C150   C257    1.355   .     S
C150   N267    1.446   .     S
C152   C471    1.342   .     S
C152   N490    1.447   .     S
C153   C788    1.342   1_545 S
C153   H790    1.086   1_545 S
H154   C471    1.086   .     S
N155   O157    1.301   .     A
N155   O156    1.301   .     A
N158   O159    1.301   .     A
N158   O160    1.301   .     A
N161   O162    1.301   .     A
N161   O163    1.302   .     A
O164   C165    1.413   .     S
O164   C257    1.393   .     S
C165   C168    1.522   .     S
C165   H166    1.116   .     S
C165   H273    1.113   .     S
C168   H169    1.111   .     S
C168   H170    1.110   .     S
C168   H171    1.111   .     S
N172   O174    1.302   .     A
N172   C788    1.447   1_545 S
N172   O809    1.301   1_545 S
O173   N490    1.301   .     S
O175   C176    1.411   .     S
C176   H177    1.115   .     S
C176   C179    1.520   .     S
C176   H178    1.114   .     S
C179   H180    1.111   .     S
C179   H181    1.110   .     S
C179   H182    1.111   .     S
N183   O184    1.301   .     A
N183   O185    1.301   .     A
N186   O187    1.301   .     A
N186   O188    1.301   .     A
O189   C190    1.413   .     S
C190   H191    1.114   .     S
C190   H1146   1.115   .     S
C190   C1147   1.521   .     S
H192   C1144   1.115   1_554 S
C193   H194    1.111   .     S
C193   C1144   1.521   1_554 S
C193   H513    1.111   .     S
C193   H1150   1.111   1_554 S
H195   C829    1.111   1_545 S
H196   C1147   1.111   .     S
O197   C198    1.412   .     S
C198   C201    1.521   .     S
C198   H200    1.115   .     S
C198   H199    1.114   .     S
C201   H202    1.111   .     S
C201   H204    1.111   .     S
C201   H203    1.110   .     S
O205   C206    1.413   .     S
C206   H207    1.113   .     S
C206   H208    1.114   .     S
C206   C209    1.521   .     S
C209   H211    1.110   .     S
C209   H212    1.111   .     S
C209   H210    1.111   .     S
Zn213  O217    1.951   .     S
Zn213  O225    1.915   .     S
Zn213  O219    1.927   .     S
Zn213  O226    1.926   .     S
Zn214  O228    1.937   .     S
Zn214  O217    1.932   .     S
Zn214  O222    1.913   .     S
Zn214  O220    1.935   .     S
Zn215  O224    1.917   .     S
Zn215  O229    1.941   .     S
Zn215  O221    1.935   .     S
Zn215  O217    1.922   .     S
Zn216  O218    1.931   .     S
Zn216  O223    1.918   .     S
Zn216  O217    1.944   .     S
Zn216  O227    1.925   .     S
O218   C230    1.271   .     A
O219   C231    1.271   .     A
O220   C232    1.274   .     A
O221   C233    1.269   .     A
O222   C234    1.269   .     A
O223   C235    1.288   .     A
O224   C234    1.274   .     A
O225   C235    1.289   .     A
O226   C232    1.269   .     A
O227   C233    1.276   .     A
O228   C230    1.261   .     A
O229   C231    1.276   .     A
C230   C257    1.441   .     S
C231   C256    1.464   .     S
C232   C259    1.436   .     S
C233   C258    1.461   .     S
C234   C237    1.461   .     S
C235   C236    1.475   .     S
C236   C239    1.396   .     A
C236   C240    1.395   .     A
C237   C252    1.403   .     A
C237   C253    1.394   .     A
C238   O295    1.382   .     S
C238   C239    1.399   .     A
C238   C242    1.423   .     A
C239   H254    1.083   .     S
C240   C241    1.408   .     A
C240   H255    1.077   .     S
C241   C242    1.425   .     A
C241   C243    1.427   .     A
C242   C1200   1.414   .     S
C243   C247    1.423   .     A
C243   C1198   1.409   .     S
C244   C250    1.423   .     A
C244   C245    1.420   .     A
C244   C1197   1.409   1_554 S
C245   O303    1.386   .     S
C245   C246    1.403   .     A
C246   N261    1.436   .     S
C246   C1196   1.414   1_554 S
C247   C248    1.404   .     A
C247   O311    1.384   .     S
C248   N292    1.435   .     S
C248   C1203   1.419   .     S
C249   C250    1.423   .     A
C249   C251    1.427   .     A
C249   C1202   1.419   1_554 S
C250   C253    1.418   .     A
C251   C252    1.409   .     A
C251   N264    1.434   .     S
C252   N289    1.439   .     S
C253   O281    1.385   .     S
C256   C45     1.355   1_655 S
C256   N55     1.446   1_655 S
C258   C577    1.342   .     S
C258   N596    1.447   .     S
C259   C894    1.342   1_545 S
C259   H896    1.086   1_545 S
H260   C577    1.086   .     S
N261   O263    1.301   .     A
N261   O262    1.301   .     A
N264   O265    1.301   .     A
N264   O266    1.301   .     A
N267   O268    1.301   .     A
N267   O269    1.302   .     A
O270   C271    1.413   .     S
O270   C45     1.393   1_655 S
C271   C274    1.522   .     S
C271   H272    1.116   .     S
C271   H61     1.113   1_655 S
C274   H275    1.111   .     S
C274   H276    1.110   .     S
C274   H277    1.111   .     S
N278   O280    1.302   .     A
N278   C894    1.447   1_545 S
N278   O915    1.301   1_545 S
O279   N596    1.301   .     S
O281   C282    1.411   .     S
C282   H283    1.115   .     S
C282   C285    1.520   .     S
C282   H284    1.114   .     S
C285   H286    1.111   .     S
C285   H287    1.110   .     S
C285   H288    1.111   .     S
N289   O290    1.301   .     A
N289   O291    1.301   .     A
N292   O293    1.301   .     A
N292   O294    1.301   .     A
O295   C296    1.413   .     S
C296   H297    1.114   .     S
C296   H1252   1.115   .     S
C296   C1253   1.521   .     S
H298   C1250   1.115   1_554 S
C299   H300    1.111   .     S
C299   C1250   1.521   1_554 S
C299   H619    1.111   .     S
C299   H1256   1.111   1_554 S
H301   C935    1.111   1_545 S
H302   C1253   1.111   .     S
O303   C304    1.412   .     S
C304   C307    1.521   .     S
C304   H306    1.115   .     S
C304   H305    1.114   .     S
C307   H308    1.111   .     S
C307   H310    1.111   .     S
C307   H309    1.110   .     S
O311   C312    1.413   .     S
C312   H313    1.113   .     S
C312   H314    1.114   .     S
C312   C315    1.521   .     S
C315   H317    1.110   .     S
C315   H318    1.111   .     S
C315   H316    1.111   .     S
Zn319  O323    1.951   .     S
Zn319  O331    1.915   .     S
Zn319  O325    1.927   .     S
Zn319  O332    1.926   .     S
Zn320  O334    1.937   .     S
Zn320  O323    1.932   .     S
Zn320  O328    1.913   .     S
Zn320  O326    1.935   .     S
Zn321  O330    1.917   .     S
Zn321  O335    1.941   .     S
Zn321  O327    1.935   .     S
Zn321  O323    1.922   .     S
Zn322  O324    1.931   .     S
Zn322  O329    1.918   .     S
Zn322  O323    1.944   .     S
Zn322  O333    1.925   .     S
O324   C336    1.271   .     A
O325   C337    1.271   .     A
O326   C338    1.274   .     A
O327   C339    1.269   .     A
O328   C340    1.269   .     A
O329   C341    1.288   .     A
O330   C340    1.274   .     A
O331   C341    1.289   .     A
O332   C338    1.269   .     A
O333   C339    1.276   .     A
O334   C336    1.261   .     A
O335   C337    1.276   .     A
C336   C363    1.441   .     S
C337   C362    1.464   .     S
C338   C365    1.436   .     S
C339   C364    1.461   .     S
C340   C343    1.461   .     S
C341   C342    1.475   .     S
C342   C345    1.396   .     A
C342   C346    1.395   .     A
C343   C358    1.403   .     A
C343   C359    1.394   .     A
C344   O401    1.382   .     S
C344   C345    1.399   .     A
C344   C348    1.423   .     A
C345   H360    1.083   .     S
C346   C347    1.408   .     A
C346   H361    1.077   .     S
C347   C348    1.425   .     A
C347   C349    1.427   .     A
C348   C1306   1.414   .     S
C349   C353    1.423   .     A
C349   C1304   1.409   .     S
C350   C356    1.423   .     A
C350   C351    1.420   .     A
C350   C1303   1.409   1_554 S
C351   O409    1.386   .     S
C351   C352    1.403   .     A
C352   N367    1.436   .     S
C352   C1302   1.414   1_554 S
C353   C354    1.404   .     A
C353   O417    1.384   .     S
C354   N398    1.435   .     S
C354   C1309   1.419   .     S
C355   C356    1.423   .     A
C355   C357    1.427   .     A
C355   C1308   1.419   1_554 S
C356   C359    1.418   .     A
C357   C358    1.409   .     A
C357   N370    1.434   .     S
C358   N395    1.439   .     S
C359   O387    1.385   .     S
C362   C469    1.355   .     S
C362   N479    1.446   .     S
C363   C574    1.355   1_455 S
C363   O588    1.393   1_455 S
C364   C683    1.342   .     S
C364   N702    1.447   .     S
H366   C683    1.086   .     S
N367   O369    1.301   .     A
N367   O368    1.301   .     A
N370   O371    1.301   .     A
N370   O372    1.301   .     A
N373   O374    1.301   .     A
N373   O375    1.302   .     A
N373   C574    1.446   1_455 S
O376   C377    1.413   .     S
O376   C469    1.393   .     S
C377   C380    1.522   .     S
C377   H378    1.116   .     S
C377   H485    1.113   .     S
H379   C589    1.113   1_455 S
C380   H381    1.111   .     S
C380   H382    1.110   .     S
C380   H383    1.111   .     S
N384   O386    1.302   .     A
O385   N702    1.301   .     S
O387   C388    1.411   .     S
C388   H389    1.115   .     S
C388   C391    1.520   .     S
C388   H390    1.114   .     S
C391   H392    1.111   .     S
C391   H393    1.110   .     S
C391   H394    1.111   .     S
N395   O396    1.301   .     A
N395   O397    1.301   .     A
N398   O399    1.301   .     A
N398   O400    1.301   .     A
O401   C402    1.413   .     S
C402   H403    1.114   .     S
C402   H1358   1.115   .     S
C402   C1359   1.521   .     S
H404   C1356   1.115   1_554 S
C405   H406    1.111   .     S
C405   C1356   1.521   1_554 S
C405   H725    1.111   .     S
C405   H1362   1.111   1_554 S
H408   C1359   1.111   .     S
O409   C410    1.412   .     S
C410   C413    1.521   .     S
C410   H412    1.115   .     S
C410   H411    1.114   .     S
C413   H414    1.111   .     S
C413   H416    1.111   .     S
C413   H415    1.110   .     S
O417   C418    1.413   .     S
C418   H419    1.113   .     S
C418   H420    1.114   .     S
C418   C421    1.521   .     S
C421   H423    1.110   .     S
C421   H424    1.111   .     S
C421   H422    1.111   .     S
Zn425  O429    1.951   .     S
Zn425  O437    1.915   .     S
Zn425  O431    1.927   .     S
Zn425  O438    1.926   .     S
Zn426  O440    1.937   .     S
Zn426  O429    1.932   .     S
Zn426  O434    1.913   .     S
Zn426  O432    1.935   .     S
Zn427  O436    1.917   .     S
Zn427  O441    1.941   .     S
Zn427  O433    1.935   .     S
Zn427  O429    1.922   .     S
Zn428  O430    1.931   .     S
Zn428  O435    1.918   .     S
Zn428  O429    1.944   .     S
Zn428  O439    1.925   .     S
O430   C442    1.271   .     A
O431   C443    1.271   .     A
O432   C444    1.274   .     A
O433   C445    1.269   .     A
O434   C446    1.269   .     A
O435   C447    1.288   .     A
O436   C446    1.274   .     A
O437   C447    1.289   .     A
O438   C444    1.269   .     A
O439   C445    1.276   .     A
O440   C442    1.261   .     A
O441   C443    1.276   .     A
C442   C469    1.441   .     S
C443   C468    1.464   .     S
C444   C471    1.436   .     S
C445   C470    1.461   .     S
C446   C449    1.461   .     S
C447   C448    1.475   .     S
C448   C451    1.396   .     A
C448   C452    1.395   .     A
C449   C464    1.403   .     A
C449   C465    1.394   .     A
C450   O507    1.382   .     S
C450   C451    1.399   .     A
C450   C454    1.423   .     A
C451   H466    1.083   .     S
C452   C453    1.408   .     A
C452   H467    1.077   .     S
C453   C454    1.425   .     A
C453   C455    1.427   .     A
C454   C1412   1.414   .     S
C455   C459    1.423   .     A
C455   C1410   1.409   .     S
C456   C462    1.423   .     A
C456   C457    1.420   .     A
C456   C1409   1.409   1_554 S
C457   O515    1.386   .     S
C457   C458    1.403   .     A
C458   N473    1.436   .     S
C458   C1408   1.414   1_554 S
C459   C460    1.404   .     A
C459   O523    1.384   .     S
C460   N504    1.435   .     S
C460   C1415   1.419   .     S
C461   C462    1.423   .     A
C461   C463    1.427   .     A
C461   C1414   1.419   1_554 S
C462   C465    1.418   .     A
C463   C464    1.409   .     A
C463   N476    1.434   .     S
C464   N501    1.439   .     S
C465   O493    1.385   .     S
C468   C575    1.355   .     S
C468   N585    1.446   .     S
C470   C789    1.342   .     S
C470   N808    1.447   .     S
H472   C789    1.086   .     S
N473   O475    1.301   .     A
N473   O474    1.301   .     A
N476   O477    1.301   .     A
N476   O478    1.301   .     A
N479   O480    1.301   .     A
N479   O481    1.302   .     A
O482   C483    1.413   .     S
O482   C575    1.393   .     S
C483   C486    1.522   .     S
C483   H484    1.116   .     S
C483   H591    1.113   .     S
C486   H487    1.111   .     S
C486   H488    1.110   .     S
C486   H489    1.111   .     S
N490   O492    1.302   .     A
O491   N808    1.301   .     S
O493   C494    1.411   .     S
C494   H495    1.115   .     S
C494   C497    1.520   .     S
C494   H496    1.114   .     S
C497   H498    1.111   .     S
C497   H499    1.110   .     S
C497   H500    1.111   .     S
N501   O502    1.301   .     A
N501   O503    1.301   .     A
N504   O505    1.301   .     A
N504   O506    1.301   .     A
O507   C508    1.413   .     S
C508   H509    1.114   .     S
C508   H1464   1.115   .     S
C508   C1465   1.521   .     S
H510   C1462   1.115   1_554 S
C511   H512    1.111   .     S
C511   C1462   1.521   1_554 S
C511   H831    1.111   .     S
C511   H1468   1.111   1_554 S
H514   C1465   1.111   .     S
O515   C516    1.412   .     S
C516   C519    1.521   .     S
C516   H518    1.115   .     S
C516   H517    1.114   .     S
C519   H520    1.111   .     S
C519   H522    1.111   .     S
C519   H521    1.110   .     S
O523   C524    1.413   .     S
C524   H525    1.113   .     S
C524   H526    1.114   .     S
C524   C527    1.521   .     S
C527   H529    1.110   .     S
C527   H530    1.111   .     S
C527   H528    1.111   .     S
Zn531  O535    1.951   .     S
Zn531  O543    1.915   .     S
Zn531  O537    1.927   .     S
Zn531  O544    1.926   .     S
Zn532  O546    1.937   .     S
Zn532  O535    1.932   .     S
Zn532  O540    1.913   .     S
Zn532  O538    1.935   .     S
Zn533  O542    1.917   .     S
Zn533  O547    1.941   .     S
Zn533  O539    1.935   .     S
Zn533  O535    1.922   .     S
Zn534  O536    1.931   .     S
Zn534  O541    1.918   .     S
Zn534  O535    1.944   .     S
Zn534  O545    1.925   .     S
O536   C548    1.271   .     A
O537   C549    1.271   .     A
O538   C550    1.274   .     A
O539   C551    1.269   .     A
O540   C552    1.269   .     A
O541   C553    1.288   .     A
O542   C552    1.274   .     A
O543   C553    1.289   .     A
O544   C550    1.269   .     A
O545   C551    1.276   .     A
O546   C548    1.261   .     A
O547   C549    1.276   .     A
C548   C575    1.441   .     S
C549   C574    1.464   .     S
C550   C577    1.436   .     S
C551   C576    1.461   .     S
C552   C555    1.461   .     S
C553   C554    1.475   .     S
C554   C557    1.396   .     A
C554   C558    1.395   .     A
C555   C570    1.403   .     A
C555   C571    1.394   .     A
C556   O613    1.382   .     S
C556   C557    1.399   .     A
C556   C560    1.423   .     A
C557   H572    1.083   .     S
C558   C559    1.408   .     A
C558   H573    1.077   .     S
C559   C560    1.425   .     A
C559   C561    1.427   .     A
C560   C1518   1.414   .     S
C561   C565    1.423   .     A
C561   C1516   1.409   .     S
C562   C568    1.423   .     A
C562   C563    1.420   .     A
C562   C1515   1.409   1_554 S
C563   O621    1.386   .     S
C563   C564    1.403   .     A
C564   N579    1.436   .     S
C564   C1514   1.414   1_554 S
C565   C566    1.404   .     A
C565   O629    1.384   .     S
C566   N610    1.435   .     S
C566   C1521   1.419   .     S
C567   C568    1.423   .     A
C567   C569    1.427   .     A
C567   C1520   1.419   1_554 S
C568   C571    1.418   .     A
C569   C570    1.409   .     A
C569   N582    1.434   .     S
C570   N607    1.439   .     S
C571   O599    1.385   .     S
C574   C363    1.355   1_655 S
C574   N373    1.446   1_655 S
C576   C895    1.342   .     S
C576   N914    1.447   .     S
H578   C895    1.086   .     S
N579   O581    1.301   .     A
N579   O580    1.301   .     A
N582   O583    1.301   .     A
N582   O584    1.301   .     A
N585   O586    1.301   .     A
N585   O587    1.302   .     A
O588   C589    1.413   .     S
O588   C363    1.393   1_655 S
C589   C592    1.522   .     S
C589   H590    1.116   .     S
C589   H379    1.113   1_655 S
C592   H593    1.111   .     S
C592   H594    1.110   .     S
C592   H595    1.111   .     S
N596   O598    1.302   .     A
O597   N914    1.301   .     S
O599   C600    1.411   .     S
C600   H601    1.115   .     S
C600   C603    1.520   .     S
C600   H602    1.114   .     S
C603   H604    1.111   .     S
C603   H605    1.110   .     S
C603   H606    1.111   .     S
N607   O608    1.301   .     A
N607   O609    1.301   .     A
N610   O611    1.301   .     A
N610   O612    1.301   .     A
O613   C614    1.413   .     S
C614   H615    1.114   .     S
C614   H1570   1.115   .     S
C614   C1571   1.521   .     S
H616   C1568   1.115   1_554 S
C617   H618    1.111   .     S
C617   C1568   1.521   1_554 S
C617   H937    1.111   .     S
C617   H1574   1.111   1_554 S
H620   C1571   1.111   .     S
O621   C622    1.412   .     S
C622   C625    1.521   .     S
C622   H624    1.115   .     S
C622   H623    1.114   .     S
C625   H626    1.111   .     S
C625   H628    1.111   .     S
C625   H627    1.110   .     S
O629   C630    1.413   .     S
C630   H631    1.113   .     S
C630   H632    1.114   .     S
C630   C633    1.521   .     S
C633   H635    1.110   .     S
C633   H636    1.111   .     S
C633   H634    1.111   .     S
Zn637  O641    1.951   .     S
Zn637  O649    1.915   .     S
Zn637  O643    1.927   .     S
Zn637  O650    1.926   .     S
Zn638  O652    1.937   .     S
Zn638  O641    1.932   .     S
Zn638  O646    1.913   .     S
Zn638  O644    1.935   .     S
Zn639  O648    1.917   .     S
Zn639  O653    1.941   .     S
Zn639  O645    1.935   .     S
Zn639  O641    1.922   .     S
Zn640  O642    1.931   .     S
Zn640  O647    1.918   .     S
Zn640  O641    1.944   .     S
Zn640  O651    1.925   .     S
O642   C654    1.271   .     A
O643   C655    1.271   .     A
O644   C656    1.274   .     A
O645   C657    1.269   .     A
O646   C658    1.269   .     A
O647   C659    1.288   .     A
O648   C658    1.274   .     A
O649   C659    1.289   .     A
O650   C656    1.269   .     A
O651   C657    1.276   .     A
O652   C654    1.261   .     A
O653   C655    1.276   .     A
C654   C681    1.441   .     S
C655   C680    1.464   .     S
C656   C683    1.436   .     S
C657   C682    1.461   .     S
C658   C661    1.461   .     S
C659   C660    1.475   .     S
C660   C663    1.396   .     A
C660   C664    1.395   .     A
C661   C676    1.403   .     A
C661   C677    1.394   .     A
C662   O719    1.382   .     S
C662   C663    1.399   .     A
C662   C666    1.423   .     A
C663   H678    1.083   .     S
C664   C665    1.408   .     A
C664   H679    1.077   .     S
C665   C666    1.425   .     A
C665   C667    1.427   .     A
C666   C1624   1.414   .     S
C667   C671    1.423   .     A
C667   C1622   1.409   .     S
C668   C674    1.423   .     A
C668   C669    1.420   .     A
C668   C1621   1.409   1_554 S
C669   O727    1.386   .     S
C669   C670    1.403   .     A
C670   N685    1.436   .     S
C670   C1620   1.414   1_554 S
C671   C672    1.404   .     A
C671   O735    1.384   .     S
C672   N716    1.435   .     S
C672   C1627   1.419   .     S
C673   C674    1.423   .     A
C673   C675    1.427   .     A
C673   C1626   1.419   1_554 S
C674   C677    1.418   .     A
C675   C676    1.409   .     A
C675   N688    1.434   .     S
C676   N713    1.439   .     S
C677   O705    1.385   .     S
C680   C787    1.355   .     S
C680   N797    1.446   .     S
C681   C892    1.355   1_455 S
C681   O906    1.393   1_455 S
C682   C47     1.342   1_565 S
C682   N66     1.447   1_565 S
H684   C47     1.086   1_565 S
N685   O687    1.301   .     A
N685   O686    1.301   .     A
N688   O689    1.301   .     A
N688   O690    1.301   .     A
N691   O692    1.301   .     A
N691   O693    1.302   .     A
N691   C892    1.446   1_455 S
O694   C695    1.413   .     S
O694   C787    1.393   .     S
C695   C698    1.522   .     S
C695   H696    1.116   .     S
C695   H803    1.113   .     S
H697   C907    1.113   1_455 S
C698   H699    1.111   .     S
C698   H700    1.110   .     S
C698   H701    1.111   .     S
N702   O704    1.302   .     A
O703   N66     1.301   1_565 S
O705   C706    1.411   .     S
C706   H707    1.115   .     S
C706   C709    1.520   .     S
C706   H708    1.114   .     S
C709   H710    1.111   .     S
C709   H711    1.110   .     S
C709   H712    1.111   .     S
N713   O714    1.301   .     A
N713   O715    1.301   .     A
N716   O717    1.301   .     A
N716   O718    1.301   .     A
O719   C720    1.413   .     S
C720   H721    1.114   .     S
C720   H1676   1.115   .     S
C720   C1677   1.521   .     S
H722   C1674   1.115   1_554 S
C723   H724    1.111   .     S
C723   C1674   1.521   1_554 S
C723   H89     1.111   1_565 S
C723   H1680   1.111   1_554 S
H726   C1677   1.111   .     S
O727   C728    1.412   .     S
C728   C731    1.521   .     S
C728   H730    1.115   .     S
C728   H729    1.114   .     S
C731   H732    1.111   .     S
C731   H734    1.111   .     S
C731   H733    1.110   .     S
O735   C736    1.413   .     S
C736   H737    1.113   .     S
C736   H738    1.114   .     S
C736   C739    1.521   .     S
C739   H741    1.110   .     S
C739   H742    1.111   .     S
C739   H740    1.111   .     S
Zn743  O747    1.951   .     S
Zn743  O755    1.915   .     S
Zn743  O749    1.927   .     S
Zn743  O756    1.926   .     S
Zn744  O758    1.937   .     S
Zn744  O747    1.932   .     S
Zn744  O752    1.913   .     S
Zn744  O750    1.935   .     S
Zn745  O754    1.917   .     S
Zn745  O759    1.941   .     S
Zn745  O751    1.935   .     S
Zn745  O747    1.922   .     S
Zn746  O748    1.931   .     S
Zn746  O753    1.918   .     S
Zn746  O747    1.944   .     S
Zn746  O757    1.925   .     S
O748   C760    1.271   .     A
O749   C761    1.271   .     A
O750   C762    1.274   .     A
O751   C763    1.269   .     A
O752   C764    1.269   .     A
O753   C765    1.288   .     A
O754   C764    1.274   .     A
O755   C765    1.289   .     A
O756   C762    1.269   .     A
O757   C763    1.276   .     A
O758   C760    1.261   .     A
O759   C761    1.276   .     A
C760   C787    1.441   .     S
C761   C786    1.464   .     S
C762   C789    1.436   .     S
C763   C788    1.461   .     S
C764   C767    1.461   .     S
C765   C766    1.475   .     S
C766   C769    1.396   .     A
C766   C770    1.395   .     A
C767   C782    1.403   .     A
C767   C783    1.394   .     A
C768   O825    1.382   .     S
C768   C769    1.399   .     A
C768   C772    1.423   .     A
C769   H784    1.083   .     S
C770   C771    1.408   .     A
C770   H785    1.077   .     S
C771   C772    1.425   .     A
C771   C773    1.427   .     A
C772   C1730   1.414   .     S
C773   C777    1.423   .     A
C773   C1728   1.409   .     S
C774   C780    1.423   .     A
C774   C775    1.420   .     A
C774   C1727   1.409   1_554 S
C775   O833    1.386   .     S
C775   C776    1.403   .     A
C776   N791    1.436   .     S
C776   C1726   1.414   1_554 S
C777   C778    1.404   .     A
C777   O841    1.384   .     S
C778   N822    1.435   .     S
C778   C1733   1.419   .     S
C779   C780    1.423   .     A
C779   C781    1.427   .     A
C779   C1732   1.419   1_554 S
C780   C783    1.418   .     A
C781   C782    1.409   .     A
C781   N794    1.434   .     S
C782   N819    1.439   .     S
C783   O811    1.385   .     S
C786   C893    1.355   .     S
C786   N903    1.446   .     S
C788   C153    1.342   1_565 S
C788   N172    1.447   1_565 S
H790   C153    1.086   1_565 S
N791   O793    1.301   .     A
N791   O792    1.301   .     A
N794   O795    1.301   .     A
N794   O796    1.301   .     A
N797   O798    1.301   .     A
N797   O799    1.302   .     A
O800   C801    1.413   .     S
O800   C893    1.393   .     S
C801   C804    1.522   .     S
C801   H802    1.116   .     S
C801   H909    1.113   .     S
C804   H805    1.111   .     S
C804   H806    1.110   .     S
C804   H807    1.111   .     S
N808   O810    1.302   .     A
O809   N172    1.301   1_565 S
O811   C812    1.411   .     S
C812   H813    1.115   .     S
C812   C815    1.520   .     S
C812   H814    1.114   .     S
C815   H816    1.111   .     S
C815   H817    1.110   .     S
C815   H818    1.111   .     S
N819   O820    1.301   .     A
N819   O821    1.301   .     A
N822   O823    1.301   .     A
N822   O824    1.301   .     A
O825   C826    1.413   .     S
C826   H827    1.114   .     S
C826   H1782   1.115   .     S
C826   C1783   1.521   .     S
H828   C1780   1.115   1_554 S
C829   H830    1.111   .     S
C829   C1780   1.521   1_554 S
C829   H195    1.111   1_565 S
C829   H1786   1.111   1_554 S
H832   C1783   1.111   .     S
O833   C834    1.412   .     S
C834   C837    1.521   .     S
C834   H836    1.115   .     S
C834   H835    1.114   .     S
C837   H838    1.111   .     S
C837   H840    1.111   .     S
C837   H839    1.110   .     S
O841   C842    1.413   .     S
C842   H843    1.113   .     S
C842   H844    1.114   .     S
C842   C845    1.521   .     S
C845   H847    1.110   .     S
C845   H848    1.111   .     S
C845   H846    1.111   .     S
Zn849  O853    1.951   .     S
Zn849  O861    1.915   .     S
Zn849  O855    1.927   .     S
Zn849  O862    1.926   .     S
Zn850  O864    1.937   .     S
Zn850  O853    1.932   .     S
Zn850  O858    1.913   .     S
Zn850  O856    1.935   .     S
Zn851  O860    1.917   .     S
Zn851  O865    1.941   .     S
Zn851  O857    1.935   .     S
Zn851  O853    1.922   .     S
Zn852  O854    1.931   .     S
Zn852  O859    1.918   .     S
Zn852  O853    1.944   .     S
Zn852  O863    1.925   .     S
O854   C866    1.271   .     A
O855   C867    1.271   .     A
O856   C868    1.274   .     A
O857   C869    1.269   .     A
O858   C870    1.269   .     A
O859   C871    1.288   .     A
O860   C870    1.274   .     A
O861   C871    1.289   .     A
O862   C868    1.269   .     A
O863   C869    1.276   .     A
O864   C866    1.261   .     A
O865   C867    1.276   .     A
C866   C893    1.441   .     S
C867   C892    1.464   .     S
C868   C895    1.436   .     S
C869   C894    1.461   .     S
C870   C873    1.461   .     S
C871   C872    1.475   .     S
C872   C875    1.396   .     A
C872   C876    1.395   .     A
C873   C888    1.403   .     A
C873   C889    1.394   .     A
C874   O931    1.382   .     S
C874   C875    1.399   .     A
C874   C878    1.423   .     A
C875   H890    1.083   .     S
C876   C877    1.408   .     A
C876   H891    1.077   .     S
C877   C878    1.425   .     A
C877   C879    1.427   .     A
C878   C1836   1.414   .     S
C879   C883    1.423   .     A
C879   C1834   1.409   .     S
C880   C886    1.423   .     A
C880   C881    1.420   .     A
C880   C1833   1.409   1_554 S
C881   O939    1.386   .     S
C881   C882    1.403   .     A
C882   N897    1.436   .     S
C882   C1832   1.414   1_554 S
C883   C884    1.404   .     A
C883   O947    1.384   .     S
C884   N928    1.435   .     S
C884   C1839   1.419   .     S
C885   C886    1.423   .     A
C885   C887    1.427   .     A
C885   C1838   1.419   1_554 S
C886   C889    1.418   .     A
C887   C888    1.409   .     A
C887   N900    1.434   .     S
C888   N925    1.439   .     S
C889   O917    1.385   .     S
C892   C681    1.355   1_655 S
C892   N691    1.446   1_655 S
C894   C259    1.342   1_565 S
C894   N278    1.447   1_565 S
H896   C259    1.086   1_565 S
N897   O899    1.301   .     A
N897   O898    1.301   .     A
N900   O901    1.301   .     A
N900   O902    1.301   .     A
N903   O904    1.301   .     A
N903   O905    1.302   .     A
O906   C907    1.413   .     S
O906   C681    1.393   1_655 S
C907   C910    1.522   .     S
C907   H908    1.116   .     S
C907   H697    1.113   1_655 S
C910   H911    1.111   .     S
C910   H912    1.110   .     S
C910   H913    1.111   .     S
N914   O916    1.302   .     A
O915   N278    1.301   1_565 S
O917   C918    1.411   .     S
C918   H919    1.115   .     S
C918   C921    1.520   .     S
C918   H920    1.114   .     S
C921   H922    1.111   .     S
C921   H923    1.110   .     S
C921   H924    1.111   .     S
N925   O926    1.301   .     A
N925   O927    1.301   .     A
N928   O929    1.301   .     A
N928   O930    1.301   .     A
O931   C932    1.413   .     S
C932   H933    1.114   .     S
C932   H1888   1.115   .     S
C932   C1889   1.521   .     S
H934   C1886   1.115   1_554 S
C935   H936    1.111   .     S
C935   C1886   1.521   1_554 S
C935   H301    1.111   1_565 S
C935   H1892   1.111   1_554 S
H938   C1889   1.111   .     S
O939   C940    1.412   .     S
C940   C943    1.521   .     S
C940   H942    1.115   .     S
C940   H941    1.114   .     S
C943   H944    1.111   .     S
C943   H946    1.111   .     S
C943   H945    1.110   .     S
O947   C948    1.413   .     S
C948   H949    1.113   .     S
C948   H950    1.114   .     S
C948   C951    1.521   .     S
C951   H953    1.110   .     S
C951   H954    1.111   .     S
C951   H952    1.111   .     S
Zn955  O959    1.951   .     S
Zn955  O967    1.915   .     S
Zn955  O961    1.927   .     S
Zn955  O968    1.926   .     S
Zn956  O970    1.937   .     S
Zn956  O959    1.932   .     S
Zn956  O964    1.913   .     S
Zn956  O962    1.935   .     S
Zn957  O966    1.917   .     S
Zn957  O971    1.941   .     S
Zn957  O963    1.935   .     S
Zn957  O959    1.922   .     S
Zn958  O960    1.931   .     S
Zn958  O965    1.918   .     S
Zn958  O959    1.944   .     S
Zn958  O969    1.925   .     S
O960   C972    1.271   .     A
O961   C973    1.271   .     A
O962   C974    1.274   .     A
O963   C975    1.269   .     A
O964   C976    1.269   .     A
O965   C977    1.288   .     A
O966   C976    1.274   .     A
O967   C977    1.289   .     A
O968   C974    1.269   .     A
O969   C975    1.276   .     A
O970   C972    1.261   .     A
O971   C973    1.276   .     A
C972   C999    1.441   .     S
C973   C998    1.464   .     S
C974   C1001   1.436   .     S
C975   C1000   1.461   .     S
C976   C979    1.461   .     S
C977   C978    1.475   .     S
C978   C981    1.396   .     A
C978   C982    1.395   .     A
C979   C994    1.403   .     A
C979   C995    1.394   .     A
C980   O1037   1.382   .     S
C980   C981    1.399   .     A
C980   C984    1.423   .     A
C981   H996    1.083   .     S
C982   C983    1.408   .     A
C982   H997    1.077   .     S
C983   C984    1.425   .     A
C983   C985    1.427   .     A
C984   C34     1.414   1_556 S
C985   C989    1.423   .     A
C985   C32     1.409   1_556 S
C986   C992    1.423   .     A
C986   C987    1.420   .     A
C987   O1045   1.386   .     S
C987   C988    1.403   .     A
C988   N1003   1.436   .     S
C989   C990    1.404   .     A
C989   O1053   1.384   .     S
C990   N1034   1.435   .     S
C990   C37     1.419   1_556 S
C991   C992    1.423   .     A
C991   C993    1.427   .     A
C992   C995    1.418   .     A
C993   C994    1.409   .     A
C993   N1006   1.434   .     S
C994   N1031   1.439   .     S
C995   O1023   1.385   .     S
C998   C1105   1.355   .     S
C998   N1115   1.446   .     S
C999   C1210   1.355   1_455 S
C999   O1224   1.393   1_455 S
C1000  C1319   1.342   .     S
C1000  N1338   1.447   .     S
C1001  C1636   1.342   1_545 S
C1001  H1638   1.086   1_545 S
H1002  C1319   1.086   .     S
N1003  O1005   1.301   .     A
N1003  O1004   1.301   .     A
N1006  O1007   1.301   .     A
N1006  O1008   1.301   .     A
N1009  O1010   1.301   .     A
N1009  O1011   1.302   .     A
N1009  C1210   1.446   1_455 S
O1012  C1013   1.413   .     S
O1012  C1105   1.393   .     S
C1013  C1016   1.522   .     S
C1013  H1014   1.116   .     S
C1013  H1121   1.113   .     S
H1015  C1225   1.113   1_455 S
C1016  H1017   1.111   .     S
C1016  H1018   1.110   .     S
C1016  H1019   1.111   .     S
N1020  O1022   1.302   .     A
N1020  C1636   1.447   1_545 S
N1020  O1657   1.301   1_545 S
O1021  N1338   1.301   .     S
O1023  C1024   1.411   .     S
C1024  H1025   1.115   .     S
C1024  C1027   1.520   .     S
C1024  H1026   1.114   .     S
C1027  H1028   1.111   .     S
C1027  H1029   1.110   .     S
C1027  H1030   1.111   .     S
N1031  O1032   1.301   .     A
N1031  O1033   1.301   .     A
N1034  O1035   1.301   .     A
N1034  O1036   1.301   .     A
O1037  C1038   1.413   .     S
C1038  H1039   1.114   .     S
C1038  H86     1.115   1_556 S
C1038  C87     1.521   1_556 S
C1041  H1042   1.111   .     S
C1041  H1361   1.111   .     S
H1043  C1677   1.111   1_545 S
H1044  C87     1.111   1_556 S
O1045  C1046   1.412   .     S
C1046  C1049   1.521   .     S
C1046  H1048   1.115   .     S
C1046  H1047   1.114   .     S
C1049  H1050   1.111   .     S
C1049  H1052   1.111   .     S
C1049  H1051   1.110   .     S
O1053  C1054   1.413   .     S
C1054  H1055   1.113   .     S
C1054  H1056   1.114   .     S
C1054  C1057   1.521   .     S
C1057  H1059   1.110   .     S
C1057  H1060   1.111   .     S
C1057  H1058   1.111   .     S
Zn1061 O1065   1.951   .     S
Zn1061 O1073   1.915   .     S
Zn1061 O1067   1.927   .     S
Zn1061 O1074   1.926   .     S
Zn1062 O1076   1.937   .     S
Zn1062 O1065   1.932   .     S
Zn1062 O1070   1.913   .     S
Zn1062 O1068   1.935   .     S
Zn1063 O1072   1.917   .     S
Zn1063 O1077   1.941   .     S
Zn1063 O1069   1.935   .     S
Zn1063 O1065   1.922   .     S
Zn1064 O1066   1.931   .     S
Zn1064 O1071   1.918   .     S
Zn1064 O1065   1.944   .     S
Zn1064 O1075   1.925   .     S
O1066  C1078   1.271   .     A
O1067  C1079   1.271   .     A
O1068  C1080   1.274   .     A
O1069  C1081   1.269   .     A
O1070  C1082   1.269   .     A
O1071  C1083   1.288   .     A
O1072  C1082   1.274   .     A
O1073  C1083   1.289   .     A
O1074  C1080   1.269   .     A
O1075  C1081   1.276   .     A
O1076  C1078   1.261   .     A
O1077  C1079   1.276   .     A
C1078  C1105   1.441   .     S
C1079  C1104   1.464   .     S
C1080  C1107   1.436   .     S
C1081  C1106   1.461   .     S
C1082  C1085   1.461   .     S
C1083  C1084   1.475   .     S
C1084  C1087   1.396   .     A
C1084  C1088   1.395   .     A
C1085  C1100   1.403   .     A
C1085  C1101   1.394   .     A
C1086  O1143   1.382   .     S
C1086  C1087   1.399   .     A
C1086  C1090   1.423   .     A
C1087  H1102   1.083   .     S
C1088  C1089   1.408   .     A
C1088  H1103   1.077   .     S
C1089  C1090   1.425   .     A
C1089  C1091   1.427   .     A
C1090  C140    1.414   1_556 S
C1091  C1095   1.423   .     A
C1091  C138    1.409   1_556 S
C1092  C1098   1.423   .     A
C1092  C1093   1.420   .     A
C1093  O1151   1.386   .     S
C1093  C1094   1.403   .     A
C1094  N1109   1.436   .     S
C1095  C1096   1.404   .     A
C1095  O1159   1.384   .     S
C1096  N1140   1.435   .     S
C1096  C143    1.419   1_556 S
C1097  C1098   1.423   .     A
C1097  C1099   1.427   .     A
C1098  C1101   1.418   .     A
C1099  C1100   1.409   .     A
C1099  N1112   1.434   .     S
C1100  N1137   1.439   .     S
C1101  O1129   1.385   .     S
C1104  C1211   1.355   .     S
C1104  N1221   1.446   .     S
C1106  C1425   1.342   .     S
C1106  N1444   1.447   .     S
C1107  C1742   1.342   1_545 S
C1107  H1744   1.086   1_545 S
H1108  C1425   1.086   .     S
N1109  O1111   1.301   .     A
N1109  O1110   1.301   .     A
N1112  O1113   1.301   .     A
N1112  O1114   1.301   .     A
N1115  O1116   1.301   .     A
N1115  O1117   1.302   .     A
O1118  C1119   1.413   .     S
O1118  C1211   1.393   .     S
C1119  C1122   1.522   .     S
C1119  H1120   1.116   .     S
C1119  H1227   1.113   .     S
C1122  H1123   1.111   .     S
C1122  H1124   1.110   .     S
C1122  H1125   1.111   .     S
N1126  O1128   1.302   .     A
N1126  C1742   1.447   1_545 S
N1126  O1763   1.301   1_545 S
O1127  N1444   1.301   .     S
O1129  C1130   1.411   .     S
C1130  H1131   1.115   .     S
C1130  C1133   1.520   .     S
C1130  H1132   1.114   .     S
C1133  H1134   1.111   .     S
C1133  H1135   1.110   .     S
C1133  H1136   1.111   .     S
N1137  O1138   1.301   .     A
N1137  O1139   1.301   .     A
N1140  O1141   1.301   .     A
N1140  O1142   1.301   .     A
O1143  C1144   1.413   .     S
C1144  H1145   1.114   .     S
C1144  H192    1.115   1_556 S
C1144  C193    1.521   1_556 S
C1147  H1148   1.111   .     S
C1147  H1467   1.111   .     S
H1149  C1783   1.111   1_545 S
H1150  C193    1.111   1_556 S
O1151  C1152   1.412   .     S
C1152  C1155   1.521   .     S
C1152  H1154   1.115   .     S
C1152  H1153   1.114   .     S
C1155  H1156   1.111   .     S
C1155  H1158   1.111   .     S
C1155  H1157   1.110   .     S
O1159  C1160   1.413   .     S
C1160  H1161   1.113   .     S
C1160  H1162   1.114   .     S
C1160  C1163   1.521   .     S
C1163  H1165   1.110   .     S
C1163  H1166   1.111   .     S
C1163  H1164   1.111   .     S
Zn1167 O1171   1.951   .     S
Zn1167 O1179   1.915   .     S
Zn1167 O1173   1.927   .     S
Zn1167 O1180   1.926   .     S
Zn1168 O1182   1.937   .     S
Zn1168 O1171   1.932   .     S
Zn1168 O1176   1.913   .     S
Zn1168 O1174   1.935   .     S
Zn1169 O1178   1.917   .     S
Zn1169 O1183   1.941   .     S
Zn1169 O1175   1.935   .     S
Zn1169 O1171   1.922   .     S
Zn1170 O1172   1.931   .     S
Zn1170 O1177   1.918   .     S
Zn1170 O1171   1.944   .     S
Zn1170 O1181   1.925   .     S
O1172  C1184   1.271   .     A
O1173  C1185   1.271   .     A
O1174  C1186   1.274   .     A
O1175  C1187   1.269   .     A
O1176  C1188   1.269   .     A
O1177  C1189   1.288   .     A
O1178  C1188   1.274   .     A
O1179  C1189   1.289   .     A
O1180  C1186   1.269   .     A
O1181  C1187   1.276   .     A
O1182  C1184   1.261   .     A
O1183  C1185   1.276   .     A
C1184  C1211   1.441   .     S
C1185  C1210   1.464   .     S
C1186  C1213   1.436   .     S
C1187  C1212   1.461   .     S
C1188  C1191   1.461   .     S
C1189  C1190   1.475   .     S
C1190  C1193   1.396   .     A
C1190  C1194   1.395   .     A
C1191  C1206   1.403   .     A
C1191  C1207   1.394   .     A
C1192  O1249   1.382   .     S
C1192  C1193   1.399   .     A
C1192  C1196   1.423   .     A
C1193  H1208   1.083   .     S
C1194  C1195   1.408   .     A
C1194  H1209   1.077   .     S
C1195  C1196   1.425   .     A
C1195  C1197   1.427   .     A
C1196  C246    1.414   1_556 S
C1197  C1201   1.423   .     A
C1197  C244    1.409   1_556 S
C1198  C1204   1.423   .     A
C1198  C1199   1.420   .     A
C1199  O1257   1.386   .     S
C1199  C1200   1.403   .     A
C1200  N1215   1.436   .     S
C1201  C1202   1.404   .     A
C1201  O1265   1.384   .     S
C1202  N1246   1.435   .     S
C1202  C249    1.419   1_556 S
C1203  C1204   1.423   .     A
C1203  C1205   1.427   .     A
C1204  C1207   1.418   .     A
C1205  C1206   1.409   .     A
C1205  N1218   1.434   .     S
C1206  N1243   1.439   .     S
C1207  O1235   1.385   .     S
C1210  C999    1.355   1_655 S
C1210  N1009   1.446   1_655 S
C1212  C1531   1.342   .     S
C1212  N1550   1.447   .     S
C1213  C1848   1.342   1_545 S
C1213  H1850   1.086   1_545 S
H1214  C1531   1.086   .     S
N1215  O1217   1.301   .     A
N1215  O1216   1.301   .     A
N1218  O1219   1.301   .     A
N1218  O1220   1.301   .     A
N1221  O1222   1.301   .     A
N1221  O1223   1.302   .     A
O1224  C1225   1.413   .     S
O1224  C999    1.393   1_655 S
C1225  C1228   1.522   .     S
C1225  H1226   1.116   .     S
C1225  H1015   1.113   1_655 S
C1228  H1229   1.111   .     S
C1228  H1230   1.110   .     S
C1228  H1231   1.111   .     S
N1232  O1234   1.302   .     A
N1232  C1848   1.447   1_545 S
N1232  O1869   1.301   1_545 S
O1233  N1550   1.301   .     S
O1235  C1236   1.411   .     S
C1236  H1237   1.115   .     S
C1236  C1239   1.520   .     S
C1236  H1238   1.114   .     S
C1239  H1240   1.111   .     S
C1239  H1241   1.110   .     S
C1239  H1242   1.111   .     S
N1243  O1244   1.301   .     A
N1243  O1245   1.301   .     A
N1246  O1247   1.301   .     A
N1246  O1248   1.301   .     A
O1249  C1250   1.413   .     S
C1250  H1251   1.114   .     S
C1250  H298    1.115   1_556 S
C1250  C299    1.521   1_556 S
C1253  H1254   1.111   .     S
C1253  H1573   1.111   .     S
H1255  C1889   1.111   1_545 S
H1256  C299    1.111   1_556 S
O1257  C1258   1.412   .     S
C1258  C1261   1.521   .     S
C1258  H1260   1.115   .     S
C1258  H1259   1.114   .     S
C1261  H1262   1.111   .     S
C1261  H1264   1.111   .     S
C1261  H1263   1.110   .     S
O1265  C1266   1.413   .     S
C1266  H1267   1.113   .     S
C1266  H1268   1.114   .     S
C1266  C1269   1.521   .     S
C1269  H1271   1.110   .     S
C1269  H1272   1.111   .     S
C1269  H1270   1.111   .     S
Zn1273 O1277   1.951   .     S
Zn1273 O1285   1.915   .     S
Zn1273 O1279   1.927   .     S
Zn1273 O1286   1.926   .     S
Zn1274 O1288   1.937   .     S
Zn1274 O1277   1.932   .     S
Zn1274 O1282   1.913   .     S
Zn1274 O1280   1.935   .     S
Zn1275 O1284   1.917   .     S
Zn1275 O1289   1.941   .     S
Zn1275 O1281   1.935   .     S
Zn1275 O1277   1.922   .     S
Zn1276 O1278   1.931   .     S
Zn1276 O1283   1.918   .     S
Zn1276 O1277   1.944   .     S
Zn1276 O1287   1.925   .     S
O1278  C1290   1.271   .     A
O1279  C1291   1.271   .     A
O1280  C1292   1.274   .     A
O1281  C1293   1.269   .     A
O1282  C1294   1.269   .     A
O1283  C1295   1.288   .     A
O1284  C1294   1.274   .     A
O1285  C1295   1.289   .     A
O1286  C1292   1.269   .     A
O1287  C1293   1.276   .     A
O1288  C1290   1.261   .     A
O1289  C1291   1.276   .     A
C1290  C1317   1.441   .     S
C1291  C1316   1.464   .     S
C1292  C1319   1.436   .     S
C1293  C1318   1.461   .     S
C1294  C1297   1.461   .     S
C1295  C1296   1.475   .     S
C1296  C1299   1.396   .     A
C1296  C1300   1.395   .     A
C1297  C1312   1.403   .     A
C1297  C1313   1.394   .     A
C1298  O1355   1.382   .     S
C1298  C1299   1.399   .     A
C1298  C1302   1.423   .     A
C1299  H1314   1.083   .     S
C1300  C1301   1.408   .     A
C1300  H1315   1.077   .     S
C1301  C1302   1.425   .     A
C1301  C1303   1.427   .     A
C1302  C352    1.414   1_556 S
C1303  C1307   1.423   .     A
C1303  C350    1.409   1_556 S
C1304  C1310   1.423   .     A
C1304  C1305   1.420   .     A
C1305  O1363   1.386   .     S
C1305  C1306   1.403   .     A
C1306  N1321   1.436   .     S
C1307  C1308   1.404   .     A
C1307  O1371   1.384   .     S
C1308  N1352   1.435   .     S
C1308  C355    1.419   1_556 S
C1309  C1310   1.423   .     A
C1309  C1311   1.427   .     A
C1310  C1313   1.418   .     A
C1311  C1312   1.409   .     A
C1311  N1324   1.434   .     S
C1312  N1349   1.439   .     S
C1313  O1341   1.385   .     S
C1316  C1423   1.355   .     S
C1316  N1433   1.446   .     S
C1317  C1528   1.355   1_455 S
C1317  O1542   1.393   1_455 S
C1318  C1637   1.342   .     S
C1318  N1656   1.447   .     S
H1320  C1637   1.086   .     S
N1321  O1323   1.301   .     A
N1321  O1322   1.301   .     A
N1324  O1325   1.301   .     A
N1324  O1326   1.301   .     A
N1327  O1328   1.301   .     A
N1327  O1329   1.302   .     A
N1327  C1528   1.446   1_455 S
O1330  C1331   1.413   .     S
O1330  C1423   1.393   .     S
C1331  C1334   1.522   .     S
C1331  H1332   1.116   .     S
C1331  H1439   1.113   .     S
H1333  C1543   1.113   1_455 S
C1334  H1335   1.111   .     S
C1334  H1336   1.110   .     S
C1334  H1337   1.111   .     S
N1338  O1340   1.302   .     A
O1339  N1656   1.301   .     S
O1341  C1342   1.411   .     S
C1342  H1343   1.115   .     S
C1342  C1345   1.520   .     S
C1342  H1344   1.114   .     S
C1345  H1346   1.111   .     S
C1345  H1347   1.110   .     S
C1345  H1348   1.111   .     S
N1349  O1350   1.301   .     A
N1349  O1351   1.301   .     A
N1352  O1353   1.301   .     A
N1352  O1354   1.301   .     A
O1355  C1356   1.413   .     S
C1356  H1357   1.114   .     S
C1356  H404    1.115   1_556 S
C1356  C405    1.521   1_556 S
C1359  H1360   1.111   .     S
C1359  H1679   1.111   .     S
H1362  C405    1.111   1_556 S
O1363  C1364   1.412   .     S
C1364  C1367   1.521   .     S
C1364  H1366   1.115   .     S
C1364  H1365   1.114   .     S
C1367  H1368   1.111   .     S
C1367  H1370   1.111   .     S
C1367  H1369   1.110   .     S
O1371  C1372   1.413   .     S
C1372  H1373   1.113   .     S
C1372  H1374   1.114   .     S
C1372  C1375   1.521   .     S
C1375  H1377   1.110   .     S
C1375  H1378   1.111   .     S
C1375  H1376   1.111   .     S
Zn1379 O1383   1.951   .     S
Zn1379 O1391   1.915   .     S
Zn1379 O1385   1.927   .     S
Zn1379 O1392   1.926   .     S
Zn1380 O1394   1.937   .     S
Zn1380 O1383   1.932   .     S
Zn1380 O1388   1.913   .     S
Zn1380 O1386   1.935   .     S
Zn1381 O1390   1.917   .     S
Zn1381 O1395   1.941   .     S
Zn1381 O1387   1.935   .     S
Zn1381 O1383   1.922   .     S
Zn1382 O1384   1.931   .     S
Zn1382 O1389   1.918   .     S
Zn1382 O1383   1.944   .     S
Zn1382 O1393   1.925   .     S
O1384  C1396   1.271   .     A
O1385  C1397   1.271   .     A
O1386  C1398   1.274   .     A
O1387  C1399   1.269   .     A
O1388  C1400   1.269   .     A
O1389  C1401   1.288   .     A
O1390  C1400   1.274   .     A
O1391  C1401   1.289   .     A
O1392  C1398   1.269   .     A
O1393  C1399   1.276   .     A
O1394  C1396   1.261   .     A
O1395  C1397   1.276   .     A
C1396  C1423   1.441   .     S
C1397  C1422   1.464   .     S
C1398  C1425   1.436   .     S
C1399  C1424   1.461   .     S
C1400  C1403   1.461   .     S
C1401  C1402   1.475   .     S
C1402  C1405   1.396   .     A
C1402  C1406   1.395   .     A
C1403  C1418   1.403   .     A
C1403  C1419   1.394   .     A
C1404  O1461   1.382   .     S
C1404  C1405   1.399   .     A
C1404  C1408   1.423   .     A
C1405  H1420   1.083   .     S
C1406  C1407   1.408   .     A
C1406  H1421   1.077   .     S
C1407  C1408   1.425   .     A
C1407  C1409   1.427   .     A
C1408  C458    1.414   1_556 S
C1409  C1413   1.423   .     A
C1409  C456    1.409   1_556 S
C1410  C1416   1.423   .     A
C1410  C1411   1.420   .     A
C1411  O1469   1.386   .     S
C1411  C1412   1.403   .     A
C1412  N1427   1.436   .     S
C1413  C1414   1.404   .     A
C1413  O1477   1.384   .     S
C1414  N1458   1.435   .     S
C1414  C461    1.419   1_556 S
C1415  C1416   1.423   .     A
C1415  C1417   1.427   .     A
C1416  C1419   1.418   .     A
C1417  C1418   1.409   .     A
C1417  N1430   1.434   .     S
C1418  N1455   1.439   .     S
C1419  O1447   1.385   .     S
C1422  C1529   1.355   .     S
C1422  N1539   1.446   .     S
C1424  C1743   1.342   .     S
C1424  N1762   1.447   .     S
H1426  C1743   1.086   .     S
N1427  O1429   1.301   .     A
N1427  O1428   1.301   .     A
N1430  O1431   1.301   .     A
N1430  O1432   1.301   .     A
N1433  O1434   1.301   .     A
N1433  O1435   1.302   .     A
O1436  C1437   1.413   .     S
O1436  C1529   1.393   .     S
C1437  C1440   1.522   .     S
C1437  H1438   1.116   .     S
C1437  H1545   1.113   .     S
C1440  H1441   1.111   .     S
C1440  H1442   1.110   .     S
C1440  H1443   1.111   .     S
N1444  O1446   1.302   .     A
O1445  N1762   1.301   .     S
O1447  C1448   1.411   .     S
C1448  H1449   1.115   .     S
C1448  C1451   1.520   .     S
C1448  H1450   1.114   .     S
C1451  H1452   1.111   .     S
C1451  H1453   1.110   .     S
C1451  H1454   1.111   .     S
N1455  O1456   1.301   .     A
N1455  O1457   1.301   .     A
N1458  O1459   1.301   .     A
N1458  O1460   1.301   .     A
O1461  C1462   1.413   .     S
C1462  H1463   1.114   .     S
C1462  H510    1.115   1_556 S
C1462  C511    1.521   1_556 S
C1465  H1466   1.111   .     S
C1465  H1785   1.111   .     S
H1468  C511    1.111   1_556 S
O1469  C1470   1.412   .     S
C1470  C1473   1.521   .     S
C1470  H1472   1.115   .     S
C1470  H1471   1.114   .     S
C1473  H1474   1.111   .     S
C1473  H1476   1.111   .     S
C1473  H1475   1.110   .     S
O1477  C1478   1.413   .     S
C1478  H1479   1.113   .     S
C1478  H1480   1.114   .     S
C1478  C1481   1.521   .     S
C1481  H1483   1.110   .     S
C1481  H1484   1.111   .     S
C1481  H1482   1.111   .     S
Zn1485 O1489   1.951   .     S
Zn1485 O1497   1.915   .     S
Zn1485 O1491   1.927   .     S
Zn1485 O1498   1.926   .     S
Zn1486 O1500   1.937   .     S
Zn1486 O1489   1.932   .     S
Zn1486 O1494   1.913   .     S
Zn1486 O1492   1.935   .     S
Zn1487 O1496   1.917   .     S
Zn1487 O1501   1.941   .     S
Zn1487 O1493   1.935   .     S
Zn1487 O1489   1.922   .     S
Zn1488 O1490   1.931   .     S
Zn1488 O1495   1.918   .     S
Zn1488 O1489   1.944   .     S
Zn1488 O1499   1.925   .     S
O1490  C1502   1.271   .     A
O1491  C1503   1.271   .     A
O1492  C1504   1.274   .     A
O1493  C1505   1.269   .     A
O1494  C1506   1.269   .     A
O1495  C1507   1.288   .     A
O1496  C1506   1.274   .     A
O1497  C1507   1.289   .     A
O1498  C1504   1.269   .     A
O1499  C1505   1.276   .     A
O1500  C1502   1.261   .     A
O1501  C1503   1.276   .     A
C1502  C1529   1.441   .     S
C1503  C1528   1.464   .     S
C1504  C1531   1.436   .     S
C1505  C1530   1.461   .     S
C1506  C1509   1.461   .     S
C1507  C1508   1.475   .     S
C1508  C1511   1.396   .     A
C1508  C1512   1.395   .     A
C1509  C1524   1.403   .     A
C1509  C1525   1.394   .     A
C1510  O1567   1.382   .     S
C1510  C1511   1.399   .     A
C1510  C1514   1.423   .     A
C1511  H1526   1.083   .     S
C1512  C1513   1.408   .     A
C1512  H1527   1.077   .     S
C1513  C1514   1.425   .     A
C1513  C1515   1.427   .     A
C1514  C564    1.414   1_556 S
C1515  C1519   1.423   .     A
C1515  C562    1.409   1_556 S
C1516  C1522   1.423   .     A
C1516  C1517   1.420   .     A
C1517  O1575   1.386   .     S
C1517  C1518   1.403   .     A
C1518  N1533   1.436   .     S
C1519  C1520   1.404   .     A
C1519  O1583   1.384   .     S
C1520  N1564   1.435   .     S
C1520  C567    1.419   1_556 S
C1521  C1522   1.423   .     A
C1521  C1523   1.427   .     A
C1522  C1525   1.418   .     A
C1523  C1524   1.409   .     A
C1523  N1536   1.434   .     S
C1524  N1561   1.439   .     S
C1525  O1553   1.385   .     S
C1528  C1317   1.355   1_655 S
C1528  N1327   1.446   1_655 S
C1530  C1849   1.342   .     S
C1530  N1868   1.447   .     S
H1532  C1849   1.086   .     S
N1533  O1535   1.301   .     A
N1533  O1534   1.301   .     A
N1536  O1537   1.301   .     A
N1536  O1538   1.301   .     A
N1539  O1540   1.301   .     A
N1539  O1541   1.302   .     A
O1542  C1543   1.413   .     S
O1542  C1317   1.393   1_655 S
C1543  C1546   1.522   .     S
C1543  H1544   1.116   .     S
C1543  H1333   1.113   1_655 S
C1546  H1547   1.111   .     S
C1546  H1548   1.110   .     S
C1546  H1549   1.111   .     S
N1550  O1552   1.302   .     A
O1551  N1868   1.301   .     S
O1553  C1554   1.411   .     S
C1554  H1555   1.115   .     S
C1554  C1557   1.520   .     S
C1554  H1556   1.114   .     S
C1557  H1558   1.111   .     S
C1557  H1559   1.110   .     S
C1557  H1560   1.111   .     S
N1561  O1562   1.301   .     A
N1561  O1563   1.301   .     A
N1564  O1565   1.301   .     A
N1564  O1566   1.301   .     A
O1567  C1568   1.413   .     S
C1568  H1569   1.114   .     S
C1568  H616    1.115   1_556 S
C1568  C617    1.521   1_556 S
C1571  H1572   1.111   .     S
C1571  H1891   1.111   .     S
H1574  C617    1.111   1_556 S
O1575  C1576   1.412   .     S
C1576  C1579   1.521   .     S
C1576  H1578   1.115   .     S
C1576  H1577   1.114   .     S
C1579  H1580   1.111   .     S
C1579  H1582   1.111   .     S
C1579  H1581   1.110   .     S
O1583  C1584   1.413   .     S
C1584  H1585   1.113   .     S
C1584  H1586   1.114   .     S
C1584  C1587   1.521   .     S
C1587  H1589   1.110   .     S
C1587  H1590   1.111   .     S
C1587  H1588   1.111   .     S
Zn1591 O1595   1.951   .     S
Zn1591 O1603   1.915   .     S
Zn1591 O1597   1.927   .     S
Zn1591 O1604   1.926   .     S
Zn1592 O1606   1.937   .     S
Zn1592 O1595   1.932   .     S
Zn1592 O1600   1.913   .     S
Zn1592 O1598   1.935   .     S
Zn1593 O1602   1.917   .     S
Zn1593 O1607   1.941   .     S
Zn1593 O1599   1.935   .     S
Zn1593 O1595   1.922   .     S
Zn1594 O1596   1.931   .     S
Zn1594 O1601   1.918   .     S
Zn1594 O1595   1.944   .     S
Zn1594 O1605   1.925   .     S
O1596  C1608   1.271   .     A
O1597  C1609   1.271   .     A
O1598  C1610   1.274   .     A
O1599  C1611   1.269   .     A
O1600  C1612   1.269   .     A
O1601  C1613   1.288   .     A
O1602  C1612   1.274   .     A
O1603  C1613   1.289   .     A
O1604  C1610   1.269   .     A
O1605  C1611   1.276   .     A
O1606  C1608   1.261   .     A
O1607  C1609   1.276   .     A
C1608  C1635   1.441   .     S
C1609  C1634   1.464   .     S
C1610  C1637   1.436   .     S
C1611  C1636   1.461   .     S
C1612  C1615   1.461   .     S
C1613  C1614   1.475   .     S
C1614  C1617   1.396   .     A
C1614  C1618   1.395   .     A
C1615  C1630   1.403   .     A
C1615  C1631   1.394   .     A
C1616  O1673   1.382   .     S
C1616  C1617   1.399   .     A
C1616  C1620   1.423   .     A
C1617  H1632   1.083   .     S
C1618  C1619   1.408   .     A
C1618  H1633   1.077   .     S
C1619  C1620   1.425   .     A
C1619  C1621   1.427   .     A
C1620  C670    1.414   1_556 S
C1621  C1625   1.423   .     A
C1621  C668    1.409   1_556 S
C1622  C1628   1.423   .     A
C1622  C1623   1.420   .     A
C1623  O1681   1.386   .     S
C1623  C1624   1.403   .     A
C1624  N1639   1.436   .     S
C1625  C1626   1.404   .     A
C1625  O1689   1.384   .     S
C1626  N1670   1.435   .     S
C1626  C673    1.419   1_556 S
C1627  C1628   1.423   .     A
C1627  C1629   1.427   .     A
C1628  C1631   1.418   .     A
C1629  C1630   1.409   .     A
C1629  N1642   1.434   .     S
C1630  N1667   1.439   .     S
C1631  O1659   1.385   .     S
C1634  C1741   1.355   .     S
C1634  N1751   1.446   .     S
C1635  C1846   1.355   1_455 S
C1635  O1860   1.393   1_455 S
C1636  C1001   1.342   1_565 S
C1636  N1020   1.447   1_565 S
H1638  C1001   1.086   1_565 S
N1639  O1641   1.301   .     A
N1639  O1640   1.301   .     A
N1642  O1643   1.301   .     A
N1642  O1644   1.301   .     A
N1645  O1646   1.301   .     A
N1645  O1647   1.302   .     A
N1645  C1846   1.446   1_455 S
O1648  C1649   1.413   .     S
O1648  C1741   1.393   .     S
C1649  C1652   1.522   .     S
C1649  H1650   1.116   .     S
C1649  H1757   1.113   .     S
H1651  C1861   1.113   1_455 S
C1652  H1653   1.111   .     S
C1652  H1654   1.110   .     S
C1652  H1655   1.111   .     S
N1656  O1658   1.302   .     A
O1657  N1020   1.301   1_565 S
O1659  C1660   1.411   .     S
C1660  H1661   1.115   .     S
C1660  C1663   1.520   .     S
C1660  H1662   1.114   .     S
C1663  H1664   1.111   .     S
C1663  H1665   1.110   .     S
C1663  H1666   1.111   .     S
N1667  O1668   1.301   .     A
N1667  O1669   1.301   .     A
N1670  O1671   1.301   .     A
N1670  O1672   1.301   .     A
O1673  C1674   1.413   .     S
C1674  H1675   1.114   .     S
C1674  H722    1.115   1_556 S
C1674  C723    1.521   1_556 S
C1677  H1678   1.111   .     S
C1677  H1043   1.111   1_565 S
H1680  C723    1.111   1_556 S
O1681  C1682   1.412   .     S
C1682  C1685   1.521   .     S
C1682  H1684   1.115   .     S
C1682  H1683   1.114   .     S
C1685  H1686   1.111   .     S
C1685  H1688   1.111   .     S
C1685  H1687   1.110   .     S
O1689  C1690   1.413   .     S
C1690  H1691   1.113   .     S
C1690  H1692   1.114   .     S
C1690  C1693   1.521   .     S
C1693  H1695   1.110   .     S
C1693  H1696   1.111   .     S
C1693  H1694   1.111   .     S
Zn1697 O1701   1.951   .     S
Zn1697 O1709   1.915   .     S
Zn1697 O1703   1.927   .     S
Zn1697 O1710   1.926   .     S
Zn1698 O1712   1.937   .     S
Zn1698 O1701   1.932   .     S
Zn1698 O1706   1.913   .     S
Zn1698 O1704   1.935   .     S
Zn1699 O1708   1.917   .     S
Zn1699 O1713   1.941   .     S
Zn1699 O1705   1.935   .     S
Zn1699 O1701   1.922   .     S
Zn1700 O1702   1.931   .     S
Zn1700 O1707   1.918   .     S
Zn1700 O1701   1.944   .     S
Zn1700 O1711   1.925   .     S
O1702  C1714   1.271   .     A
O1703  C1715   1.271   .     A
O1704  C1716   1.274   .     A
O1705  C1717   1.269   .     A
O1706  C1718   1.269   .     A
O1707  C1719   1.288   .     A
O1708  C1718   1.274   .     A
O1709  C1719   1.289   .     A
O1710  C1716   1.269   .     A
O1711  C1717   1.276   .     A
O1712  C1714   1.261   .     A
O1713  C1715   1.276   .     A
C1714  C1741   1.441   .     S
C1715  C1740   1.464   .     S
C1716  C1743   1.436   .     S
C1717  C1742   1.461   .     S
C1718  C1721   1.461   .     S
C1719  C1720   1.475   .     S
C1720  C1723   1.396   .     A
C1720  C1724   1.395   .     A
C1721  C1736   1.403   .     A
C1721  C1737   1.394   .     A
C1722  O1779   1.382   .     S
C1722  C1723   1.399   .     A
C1722  C1726   1.423   .     A
C1723  H1738   1.083   .     S
C1724  C1725   1.408   .     A
C1724  H1739   1.077   .     S
C1725  C1726   1.425   .     A
C1725  C1727   1.427   .     A
C1726  C776    1.414   1_556 S
C1727  C1731   1.423   .     A
C1727  C774    1.409   1_556 S
C1728  C1734   1.423   .     A
C1728  C1729   1.420   .     A
C1729  O1787   1.386   .     S
C1729  C1730   1.403   .     A
C1730  N1745   1.436   .     S
C1731  C1732   1.404   .     A
C1731  O1795   1.384   .     S
C1732  N1776   1.435   .     S
C1732  C779    1.419   1_556 S
C1733  C1734   1.423   .     A
C1733  C1735   1.427   .     A
C1734  C1737   1.418   .     A
C1735  C1736   1.409   .     A
C1735  N1748   1.434   .     S
C1736  N1773   1.439   .     S
C1737  O1765   1.385   .     S
C1740  C1847   1.355   .     S
C1740  N1857   1.446   .     S
C1742  C1107   1.342   1_565 S
C1742  N1126   1.447   1_565 S
H1744  C1107   1.086   1_565 S
N1745  O1747   1.301   .     A
N1745  O1746   1.301   .     A
N1748  O1749   1.301   .     A
N1748  O1750   1.301   .     A
N1751  O1752   1.301   .     A
N1751  O1753   1.302   .     A
O1754  C1755   1.413   .     S
O1754  C1847   1.393   .     S
C1755  C1758   1.522   .     S
C1755  H1756   1.116   .     S
C1755  H1863   1.113   .     S
C1758  H1759   1.111   .     S
C1758  H1760   1.110   .     S
C1758  H1761   1.111   .     S
N1762  O1764   1.302   .     A
O1763  N1126   1.301   1_565 S
O1765  C1766   1.411   .     S
C1766  H1767   1.115   .     S
C1766  C1769   1.520   .     S
C1766  H1768   1.114   .     S
C1769  H1770   1.111   .     S
C1769  H1771   1.110   .     S
C1769  H1772   1.111   .     S
N1773  O1774   1.301   .     A
N1773  O1775   1.301   .     A
N1776  O1777   1.301   .     A
N1776  O1778   1.301   .     A
O1779  C1780   1.413   .     S
C1780  H1781   1.114   .     S
C1780  H828    1.115   1_556 S
C1780  C829    1.521   1_556 S
C1783  H1784   1.111   .     S
C1783  H1149   1.111   1_565 S
H1786  C829    1.111   1_556 S
O1787  C1788   1.412   .     S
C1788  C1791   1.521   .     S
C1788  H1790   1.115   .     S
C1788  H1789   1.114   .     S
C1791  H1792   1.111   .     S
C1791  H1794   1.111   .     S
C1791  H1793   1.110   .     S
O1795  C1796   1.413   .     S
C1796  H1797   1.113   .     S
C1796  H1798   1.114   .     S
C1796  C1799   1.521   .     S
C1799  H1801   1.110   .     S
C1799  H1802   1.111   .     S
C1799  H1800   1.111   .     S
Zn1803 O1807   1.951   .     S
Zn1803 O1815   1.915   .     S
Zn1803 O1809   1.927   .     S
Zn1803 O1816   1.926   .     S
Zn1804 O1818   1.937   .     S
Zn1804 O1807   1.932   .     S
Zn1804 O1812   1.913   .     S
Zn1804 O1810   1.935   .     S
Zn1805 O1814   1.917   .     S
Zn1805 O1819   1.941   .     S
Zn1805 O1811   1.935   .     S
Zn1805 O1807   1.922   .     S
Zn1806 O1808   1.931   .     S
Zn1806 O1813   1.918   .     S
Zn1806 O1807   1.944   .     S
Zn1806 O1817   1.925   .     S
O1808  C1820   1.271   .     A
O1809  C1821   1.271   .     A
O1810  C1822   1.274   .     A
O1811  C1823   1.269   .     A
O1812  C1824   1.269   .     A
O1813  C1825   1.288   .     A
O1814  C1824   1.274   .     A
O1815  C1825   1.289   .     A
O1816  C1822   1.269   .     A
O1817  C1823   1.276   .     A
O1818  C1820   1.261   .     A
O1819  C1821   1.276   .     A
C1820  C1847   1.441   .     S
C1821  C1846   1.464   .     S
C1822  C1849   1.436   .     S
C1823  C1848   1.461   .     S
C1824  C1827   1.461   .     S
C1825  C1826   1.475   .     S
C1826  C1829   1.396   .     A
C1826  C1830   1.395   .     A
C1827  C1842   1.403   .     A
C1827  C1843   1.394   .     A
C1828  O1885   1.382   .     S
C1828  C1829   1.399   .     A
C1828  C1832   1.423   .     A
C1829  H1844   1.083   .     S
C1830  C1831   1.408   .     A
C1830  H1845   1.077   .     S
C1831  C1832   1.425   .     A
C1831  C1833   1.427   .     A
C1832  C882    1.414   1_556 S
C1833  C1837   1.423   .     A
C1833  C880    1.409   1_556 S
C1834  C1840   1.423   .     A
C1834  C1835   1.420   .     A
C1835  O1893   1.386   .     S
C1835  C1836   1.403   .     A
C1836  N1851   1.436   .     S
C1837  C1838   1.404   .     A
C1837  O1901   1.384   .     S
C1838  N1882   1.435   .     S
C1838  C885    1.419   1_556 S
C1839  C1840   1.423   .     A
C1839  C1841   1.427   .     A
C1840  C1843   1.418   .     A
C1841  C1842   1.409   .     A
C1841  N1854   1.434   .     S
C1842  N1879   1.439   .     S
C1843  O1871   1.385   .     S
C1846  C1635   1.355   1_655 S
C1846  N1645   1.446   1_655 S
C1848  C1213   1.342   1_565 S
C1848  N1232   1.447   1_565 S
H1850  C1213   1.086   1_565 S
N1851  O1853   1.301   .     A
N1851  O1852   1.301   .     A
N1854  O1855   1.301   .     A
N1854  O1856   1.301   .     A
N1857  O1858   1.301   .     A
N1857  O1859   1.302   .     A
O1860  C1861   1.413   .     S
O1860  C1635   1.393   1_655 S
C1861  C1864   1.522   .     S
C1861  H1862   1.116   .     S
C1861  H1651   1.113   1_655 S
C1864  H1865   1.111   .     S
C1864  H1866   1.110   .     S
C1864  H1867   1.111   .     S
N1868  O1870   1.302   .     A
O1869  N1232   1.301   1_565 S
O1871  C1872   1.411   .     S
C1872  H1873   1.115   .     S
C1872  C1875   1.520   .     S
C1872  H1874   1.114   .     S
C1875  H1876   1.111   .     S
C1875  H1877   1.110   .     S
C1875  H1878   1.111   .     S
N1879  O1880   1.301   .     A
N1879  O1881   1.301   .     A
N1882  O1883   1.301   .     A
N1882  O1884   1.301   .     A
O1885  C1886   1.413   .     S
C1886  H1887   1.114   .     S
C1886  H934    1.115   1_556 S
C1886  C935    1.521   1_556 S
C1889  H1890   1.111   .     S
C1889  H1255   1.111   1_565 S
H1892  C935    1.111   1_556 S
O1893  C1894   1.412   .     S
C1894  C1897   1.521   .     S
C1894  H1896   1.115   .     S
C1894  H1895   1.114   .     S
C1897  H1898   1.111   .     S
C1897  H1900   1.111   .     S
C1897  H1899   1.110   .     S
O1901  C1902   1.413   .     S
C1902  H1903   1.113   .     S
C1902  H1904   1.114   .     S
C1902  C1905   1.521   .     S
C1905  H1907   1.110   .     S
C1905  H1908   1.111   .     S
C1905  H1906   1.111   .     S
