data_str_m1_o5_o17_pcu_sym.95
_audit_creation_date              2020-01-03
_audit_creation_method            'Materials Studio'
_symmetry_space_group_name_H-M    'P1'
_symmetry_Int_Tables_number       1
_symmetry_cell_setting            triclinic
loop_
_symmetry_equiv_pos_as_xyz
  x,y,z
_cell_length_a                    31.7569
_cell_length_b                    31.7574
_cell_length_c                    34.5787
_cell_angle_alpha                 90.0039
_cell_angle_beta                  89.9888
_cell_angle_gamma                 90.0074
loop_
_atom_site_label
_atom_site_type_symbol
_atom_site_fract_x
_atom_site_fract_y
_atom_site_fract_z
_atom_site_U_iso_or_equiv
_atom_site_adp_type
_atom_site_occupancy
C1     C     0.25046   0.49996   0.35580   0.00000  Uiso   1.00
C2     C     0.33002   0.41999   0.74999   0.00000  Uiso   1.00
C3     C     0.43365   0.20922   0.02035   0.00000  Uiso   1.00
C4     C     0.27939   0.07127   0.97958   0.00000  Uiso   1.00
C5     C     0.20993   0.43324   0.02027   0.00000  Uiso   1.00
C6     C     0.43324   0.20993   0.97974   0.00000  Uiso   1.00
C7     C     0.07127   0.27937   0.02040   0.00000  Uiso   1.00
C8     C     0.42793   0.32144   0.37839   0.00000  Uiso   1.00
C9     C     0.01340   0.15436   0.62640   0.00000  Uiso   1.00
C10    C     0.15473   0.01584   0.37413   0.00000  Uiso   1.00
C11    C     0.30484   0.41038   0.61064   0.00000  Uiso   1.00
C12    C     0.08395   0.18863   0.39688   0.00000  Uiso   1.00
C13    C     0.41998   0.17000   0.24999   0.00000  Uiso   1.00
C14    C     0.00463   0.35079   0.60875   0.00000  Uiso   1.00
C15    C     0.35043   0.00163   0.38848   0.00000  Uiso   1.00
C16    C     0.19641   0.09036   0.60220   0.00000  Uiso   1.00
C17    C     0.26647   0.09515   0.87412   0.00000  Uiso   1.00
C18    C     0.16015   0.44557   0.11103   0.00000  Uiso   1.00
C19    C     0.44556   0.16016   0.88897   0.00000  Uiso   1.00
C20    C     0.09515   0.26647   0.12587   0.00000  Uiso   1.00
C21    C     0.25100   0.39956   0.88854   0.00000  Uiso   1.00
C22    C     0.34073   0.05293   0.10206   0.00000  Uiso   1.00
C23    C     0.05295   0.34071   0.89792   0.00000  Uiso   1.00
C24    C     0.08002   0.33001   0.75001   0.00000  Uiso   1.00
C25    C     0.39956   0.25103   0.11147   0.00000  Uiso   1.00
C26    C     0.33003   0.42000   0.25002   0.00000  Uiso   1.00
C27    C     0.16998   0.08000   0.74999   0.00000  Uiso   1.00
C28    C     0.08003   0.32999   0.24998   0.00000  Uiso   1.00
C29    C     0.41998   0.17000   0.75001   0.00000  Uiso   1.00
C30    C     0.17000   0.41998   0.75002   0.00000  Uiso   1.00
C31    C     0.33001   0.08001   0.24999   0.00000  Uiso   1.00
C32    C     0.42000   0.33002   0.74999   0.00000  Uiso   1.00
C33    C     0.24997   0.49997   0.64412   0.00000  Uiso   1.00
C34    C     0.08000   0.16998   0.25001   0.00000  Uiso   1.00
C35    C     0.32999   0.08003   0.75002   0.00000  Uiso   1.00
C36    C     0.17000   0.41998   0.24999   0.00000  Uiso   1.00
C37    C     0.08000   0.16997   0.74998   0.00000  Uiso   1.00
C38    C     0.42000   0.33002   0.25002   0.00000  Uiso   1.00
C39    C     0.13835   0.38832   0.24996   0.00000  Uiso   1.00
C40    C     0.36164   0.11169   0.75004   0.00000  Uiso   1.00
C41    C     0.11165   0.13832   0.25003   0.00000  Uiso   1.00
C42    C     0.38835   0.36168   0.74997   0.00000  Uiso   1.00
C43    C     0.36165   0.11167   0.24998   0.00000  Uiso   1.00
C44    C     0.49994   0.25040   0.35588   0.00000  Uiso   1.00
C45    C     0.13835   0.38832   0.75003   0.00000  Uiso   1.00
C46    C     0.38835   0.36168   0.25004   0.00000  Uiso   1.00
C47    C     0.11165   0.13832   0.74996   0.00000  Uiso   1.00
C48    C     0.13832   0.11165   0.74997   0.00000  Uiso   1.00
C49    C     0.36169   0.38835   0.25004   0.00000  Uiso   1.00
C50    C     0.11167   0.36165   0.75002   0.00000  Uiso   1.00
C51    C     0.38832   0.13835   0.24998   0.00000  Uiso   1.00
C52    C     0.36167   0.38835   0.74997   0.00000  Uiso   1.00
C53    C     0.13832   0.11164   0.25004   0.00000  Uiso   1.00
C54    C     0.38832   0.13835   0.75004   0.00000  Uiso   1.00
C55    C     0.49996   0.25043   0.64418   0.00000  Uiso   1.00
C56    C     0.11168   0.36164   0.24996   0.00000  Uiso   1.00
C57    C     0.48065   0.28386   0.41790   0.00000  Uiso   1.00
C58    C     0.01576   0.21522   0.58216   0.00000  Uiso   1.00
C59    C     0.21617   0.01749   0.41774   0.00000  Uiso   1.00
C60    C     0.28128   0.47751   0.58215   0.00000  Uiso   1.00
C61    C     0.01655   0.21566   0.41830   0.00000  Uiso   1.00
C62    C     0.48175   0.28425   0.58207   0.00000  Uiso   1.00
C63    C     0.28425   0.48157   0.41790   0.00000  Uiso   1.00
C64    C     0.21763   0.02068   0.58151   0.00000  Uiso   1.00
C65    C     0.26765   0.03370   0.91774   0.00000  Uiso   1.00
C66    C     0.00001   0.24997   0.85588   0.00000  Uiso   1.00
C67    C     0.22722   0.46883   0.08217   0.00000  Uiso   1.00
C68    C     0.46883   0.22722   0.91783   0.00000  Uiso   1.00
C69    C     0.03370   0.26765   0.08226   0.00000  Uiso   1.00
C70    C     0.23126   0.46586   0.91790   0.00000  Uiso   1.00
C71    C     0.27086   0.03219   0.08148   0.00000  Uiso   1.00
C72    C     0.03219   0.27085   0.91851   0.00000  Uiso   1.00
C73    C     0.46585   0.23127   0.08211   0.00000  Uiso   1.00
C74    C     0.49927   0.24997   0.39823   0.00000  Uiso   1.00
C75    C     0.49933   0.25003   0.60194   0.00000  Uiso   1.00
C76    C     0.25022   0.49953   0.39802   0.00000  Uiso   1.00
C77    C     0.49951   0.24995   0.14420   0.00000  Uiso   1.00
C78    C     0.24962   0.49962   0.60177   0.00000  Uiso   1.00
C79    C     0.24949   0.49975   0.89802   0.00000  Uiso   1.00
C80    C     0.24960   0.00034   0.10176   0.00000  Uiso   1.00
C81    C     0.00034   0.24960   0.89824   0.00000  Uiso   1.00
C82    C     0.49975   0.24950   0.10198   0.00000  Uiso   1.00
C83    C     0.01269   0.21352   0.45908   0.00000  Uiso   1.00
C84    C     0.47854   0.28309   0.54125   0.00000  Uiso   1.00
C85    C     0.28367   0.47963   0.45883   0.00000  Uiso   1.00
C86    C     0.21520   0.01661   0.54079   0.00000  Uiso   1.00
C87    C     0.47823   0.28333   0.45900   0.00000  Uiso   1.00
C88    C     0.24995   0.49951   0.85580   0.00000  Uiso   1.00
C89    C     0.01275   0.21324   0.54120   0.00000  Uiso   1.00
C90    C     0.21451   0.01549   0.45873   0.00000  Uiso   1.00
C91    C     0.28305   0.47860   0.54110   0.00000  Uiso   1.00
C92    C     0.22923   0.46649   0.95882   0.00000  Uiso   1.00
C93    C     0.26676   0.03466   0.04077   0.00000  Uiso   1.00
C94    C     0.03467   0.26674   0.95922   0.00000  Uiso   1.00
C95    C     0.46648   0.22923   0.04118   0.00000  Uiso   1.00
C96    C     0.26562   0.03538   0.95873   0.00000  Uiso   1.00
C97    C     0.22818   0.46711   0.04111   0.00000  Uiso   1.00
C98    C     0.46711   0.22818   0.95890   0.00000  Uiso   1.00
C99    C     0.24998   0.00001   0.14412   0.00000  Uiso   1.00
C100   C     0.03538   0.26561   0.04127   0.00000  Uiso   1.00
C101   C     0.49544   0.24836   0.47956   0.00000  Uiso   1.00
C102   C     0.49556   0.24822   0.52067   0.00000  Uiso   1.00
C103   C     0.24914   0.49759   0.47930   0.00000  Uiso   1.00
C104   C     0.24915   0.49755   0.52039   0.00000  Uiso   1.00
C105   C     0.24744   0.00089   0.97930   0.00000  Uiso   1.00
C106   C     0.24741   0.00087   0.02039   0.00000  Uiso   1.00
C107   C     0.00087   0.24740   0.97961   0.00000  Uiso   1.00
C108   C     0.00089   0.24744   0.02070   0.00000  Uiso   1.00
C109   C     0.02412   0.17669   0.47970   0.00000  Uiso   1.00
C110   C     0.16997   0.08000   0.25002   0.00000  Uiso   1.00
C111   C     0.45757   0.31542   0.52068   0.00000  Uiso   1.00
C112   C     0.31668   0.45994   0.47966   0.00000  Uiso   1.00
C113   C     0.17899   0.02983   0.52022   0.00000  Uiso   1.00
C114   C     0.45770   0.31576   0.48005   0.00000  Uiso   1.00
C115   C     0.02428   0.17659   0.52035   0.00000  Uiso   1.00
C116   C     0.17853   0.02902   0.47960   0.00000  Uiso   1.00
C117   C     0.31712   0.46074   0.52027   0.00000  Uiso   1.00
C118   C     0.20921   0.43365   0.97966   0.00000  Uiso   1.00
C119   C     0.28023   0.07078   0.02019   0.00000  Uiso   1.00
C120   C     0.07079   0.28021   0.97979   0.00000  Uiso   1.00
H121   H     0.48262   0.34860   0.40370   0.00000  Uiso   1.00
H122   H     0.12265   0.02242   0.38536   0.00000  Uiso   1.00
H123   H     0.16076   0.48142   0.37627   0.00000  Uiso   1.00
H124   H     0.15592   0.02518   0.34322   0.00000  Uiso   1.00
H125   H     0.34127   0.46731   0.60792   0.00000  Uiso   1.00
H126   H     0.33046   0.39217   0.59666   0.00000  Uiso   1.00
H127   H     0.27409   0.39989   0.59865   0.00000  Uiso   1.00
H128   H     0.30540   0.40343   0.64208   0.00000  Uiso   1.00
H129   H     0.02614   0.17559   0.37090   0.00000  Uiso   1.00
H130   H     0.09849   0.16096   0.38249   0.00000  Uiso   1.00
H131   H     0.09651   0.19067   0.42681   0.00000  Uiso   1.00
H132   H     0.40960   0.34836   0.39002   0.00000  Uiso   1.00
H133   H     0.09295   0.21751   0.38081   0.00000  Uiso   1.00
H134   H     0.45259   0.31657   0.62754   0.00000  Uiso   1.00
H135   H     0.49234   0.37989   0.62250   0.00000  Uiso   1.00
H136   H     0.01898   0.35942   0.58052   0.00000  Uiso   1.00
H137   H     0.02909   0.33690   0.62786   0.00000  Uiso   1.00
H138   H     0.31476   0.44908   0.37333   0.00000  Uiso   1.00
H139   H     0.37904   0.48789   0.37500   0.00000  Uiso   1.00
H140   H     0.35988   0.01775   0.41565   0.00000  Uiso   1.00
H141   H     0.33660   0.02497   0.36821   0.00000  Uiso   1.00
H142   H     0.17817   0.03414   0.62864   0.00000  Uiso   1.00
H143   H     0.41010   0.29189   0.38383   0.00000  Uiso   1.00
H144   H     0.17017   0.10736   0.61658   0.00000  Uiso   1.00
H145   H     0.19930   0.10235   0.57213   0.00000  Uiso   1.00
H146   H     0.22607   0.09701   0.61807   0.00000  Uiso   1.00
H147   H     0.32050   0.07204   0.90411   0.00000  Uiso   1.00
H148   H     0.27326   0.12718   0.88535   0.00000  Uiso   1.00
H149   H     0.23201   0.08934   0.87623   0.00000  Uiso   1.00
H150   H     0.27584   0.09389   0.84322   0.00000  Uiso   1.00
H151   H     0.21678   0.40877   0.10770   0.00000  Uiso   1.00
H152   H     0.14166   0.42014   0.09707   0.00000  Uiso   1.00
H153   H     0.14978   0.47646   0.09923   0.00000  Uiso   1.00
H154   H     0.43117   0.32615   0.34676   0.00000  Uiso   1.00
H155   H     0.15344   0.44489   0.14251   0.00000  Uiso   1.00
H156   H     0.40876   0.21679   0.89233   0.00000  Uiso   1.00
H157   H     0.42014   0.14166   0.90294   0.00000  Uiso   1.00
H158   H     0.47645   0.14979   0.90074   0.00000  Uiso   1.00
H159   H     0.44485   0.15346   0.85749   0.00000  Uiso   1.00
H160   H     0.07205   0.32049   0.09587   0.00000  Uiso   1.00
H161   H     0.12718   0.27325   0.11464   0.00000  Uiso   1.00
H162   H     0.08934   0.23201   0.12377   0.00000  Uiso   1.00
H163   H     0.09389   0.27584   0.15677   0.00000  Uiso   1.00
H164   H     0.19864   0.43546   0.87335   0.00000  Uiso   1.00
H165   H     0.06730   0.17485   0.59475   0.00000  Uiso   1.00
H166   H     0.23714   0.37102   0.87507   0.00000  Uiso   1.00
H167   H     0.26704   0.39004   0.91574   0.00000  Uiso   1.00
H168   H     0.27444   0.41327   0.86829   0.00000  Uiso   1.00
H169   H     0.28466   0.07158   0.12857   0.00000  Uiso   1.00
H170   H     0.35793   0.07906   0.11641   0.00000  Uiso   1.00
H171   H     0.35265   0.04997   0.07198   0.00000  Uiso   1.00
H172   H     0.34720   0.02323   0.11792   0.00000  Uiso   1.00
H173   H     0.07159   0.28465   0.87141   0.00000  Uiso   1.00
H174   H     0.07907   0.35791   0.88356   0.00000  Uiso   1.00
H175   H     0.05000   0.35263   0.92801   0.00000  Uiso   1.00
H176   H     0.01880   0.12196   0.61543   0.00000  Uiso   1.00
H177   H     0.02324   0.34719   0.88207   0.00000  Uiso   1.00
H178   H     0.43545   0.19866   0.12667   0.00000  Uiso   1.00
H179   H     0.37101   0.23717   0.12495   0.00000  Uiso   1.00
H180   H     0.39004   0.26706   0.08427   0.00000  Uiso   1.00
H181   H     0.41327   0.27447   0.13172   0.00000  Uiso   1.00
H182   H     0.01133   0.11528   0.46689   0.00000  Uiso   1.00
H183   H     0.06358   0.12799   0.46669   0.00000  Uiso   1.00
H184   H     0.40233   0.34518   0.53348   0.00000  Uiso   1.00
H185   H     0.44579   0.37696   0.53401   0.00000  Uiso   1.00
H186   H     0.34879   0.40587   0.46789   0.00000  Uiso   1.00
H187   H     0.47912   0.16134   0.62486   0.00000  Uiso   1.00
H188   H     0.37873   0.45058   0.46649   0.00000  Uiso   1.00
H189   H     0.11702   0.02100   0.53368   0.00000  Uiso   1.00
H190   H     0.13287   0.07239   0.53285   0.00000  Uiso   1.00
H191   H     0.44745   0.37782   0.46820   0.00000  Uiso   1.00
H192   H     0.40327   0.34705   0.46784   0.00000  Uiso   1.00
H193   H     0.06416   0.12813   0.53276   0.00000  Uiso   1.00
H194   H     0.01199   0.11501   0.53274   0.00000  Uiso   1.00
H195   H     0.13173   0.07070   0.46678   0.00000  Uiso   1.00
H196   H     0.11635   0.01916   0.46791   0.00000  Uiso   1.00
H197   H     0.37996   0.46168   0.53192   0.00000  Uiso   1.00
H198   H     0.02348   0.15569   0.65710   0.00000  Uiso   1.00
H199   H     0.35763   0.41283   0.53291   0.00000  Uiso   1.00
H200   H     0.15495   0.40176   0.96783   0.00000  Uiso   1.00
H201   H     0.19954   0.37167   0.96645   0.00000  Uiso   1.00
H202   H     0.27190   0.13281   0.03368   0.00000  Uiso   1.00
H203   H     0.32316   0.11660   0.03277   0.00000  Uiso   1.00
H204   H     0.13282   0.27186   0.96630   0.00000  Uiso   1.00
H205   H     0.11661   0.32313   0.96720   0.00000  Uiso   1.00
H206   H     0.40176   0.15496   0.03220   0.00000  Uiso   1.00
H207   H     0.37166   0.19955   0.03357   0.00000  Uiso   1.00
H208   H     0.32137   0.11780   0.96673   0.00000  Uiso   1.00
H209   H     0.17748   0.07005   0.40408   0.00000  Uiso   1.00
H210   H     0.26993   0.13351   0.96792   0.00000  Uiso   1.00
H211   H     0.20995   0.37039   0.03196   0.00000  Uiso   1.00
H212   H     0.16141   0.39340   0.03290   0.00000  Uiso   1.00
H213   H     0.37039   0.20995   0.96806   0.00000  Uiso   1.00
H214   H     0.39340   0.16140   0.96713   0.00000  Uiso   1.00
H215   H     0.11782   0.32135   0.03324   0.00000  Uiso   1.00
H216   H     0.13351   0.26991   0.03207   0.00000  Uiso   1.00
N217   N     0.46950   0.32018   0.39575   0.00000  Uiso   1.00
N218   N     0.20477   0.43876   0.10485   0.00000  Uiso   1.00
N219   N     0.43875   0.20478   0.89516   0.00000  Uiso   1.00
N220   N     0.06412   0.29041   0.10437   0.00000  Uiso   1.00
N221   N     0.21796   0.42965   0.89666   0.00000  Uiso   1.00
N222   N     0.29605   0.06197   0.10208   0.00000  Uiso   1.00
N223   N     0.06198   0.29603   0.89790   0.00000  Uiso   1.00
N224   N     0.42964   0.21797   0.10335   0.00000  Uiso   1.00
N225   N     0.03337   0.13829   0.45934   0.00000  Uiso   1.00
N226   N     0.43411   0.34717   0.54107   0.00000  Uiso   1.00
N227   N     0.34945   0.43752   0.45966   0.00000  Uiso   1.00
N228   N     0.03794   0.18424   0.60410   0.00000  Uiso   1.00
N229   N     0.14139   0.04177   0.54066   0.00000  Uiso   1.00
N230   N     0.43513   0.34851   0.46040   0.00000  Uiso   1.00
N231   N     0.03390   0.13812   0.54031   0.00000  Uiso   1.00
N232   N     0.14032   0.03987   0.45975   0.00000  Uiso   1.00
N233   N     0.35335   0.44449   0.54011   0.00000  Uiso   1.00
N234   N     0.18662   0.40100   0.95964   0.00000  Uiso   1.00
N235   N     0.29248   0.10829   0.04062   0.00000  Uiso   1.00
N236   N     0.10830   0.29245   0.95936   0.00000  Uiso   1.00
N237   N     0.40099   0.18663   0.04038   0.00000  Uiso   1.00
N238   N     0.29048   0.10941   0.95973   0.00000  Uiso   1.00
N239   N     0.18560   0.04001   0.39560   0.00000  Uiso   1.00
N240   N     0.19312   0.39724   0.04011   0.00000  Uiso   1.00
N241   N     0.39724   0.19312   0.95991   0.00000  Uiso   1.00
N242   N     0.10942   0.29046   0.04025   0.00000  Uiso   1.00
N243   N     0.31139   0.45509   0.60479   0.00000  Uiso   1.00
N244   N     0.03862   0.18371   0.39739   0.00000  Uiso   1.00
N245   N     0.47047   0.32130   0.60307   0.00000  Uiso   1.00
N246   N     0.32051   0.46843   0.39664   0.00000  Uiso   1.00
N247   N     0.18767   0.04562   0.60215   0.00000  Uiso   1.00
N248   N     0.29041   0.06412   0.89561   0.00000  Uiso   1.00
O249   O     0.25000  -0.00000   0.25000   0.00000  Uiso   1.00
O250   O     0.25000   0.46538   0.66251   0.00000  Uiso   1.00
O251   O     0.46538   0.25000   0.33749   0.00000  Uiso   1.00
O252   O     0.03461   0.25000   0.66251   0.00000  Uiso   1.00
O253   O     0.00000   0.21538   0.83749   0.00000  Uiso   1.00
O254   O    -0.00000   0.28461   0.16251   0.00000  Uiso   1.00
O255   O     0.28461  -0.00000   0.83749   0.00000  Uiso   1.00
O256   O     0.21538  -0.00000   0.16251   0.00000  Uiso   1.00
O257   O    -0.00000   0.28461   0.83749   0.00000  Uiso   1.00
O258   O    -0.00000   0.21538   0.16251   0.00000  Uiso   1.00
O259   O     0.21538  -0.00000   0.83749   0.00000  Uiso   1.00
O260   O     0.25000  -0.00000   0.75000   0.00000  Uiso   1.00
O261   O     0.28461  -0.00000   0.16251   0.00000  Uiso   1.00
O262   O     0.20126   0.08332   0.27298   0.00000  Uiso   1.00
O263   O     0.29873   0.41668   0.72702   0.00000  Uiso   1.00
O264   O     0.41668   0.20126   0.27298   0.00000  Uiso   1.00
O265   O     0.08332   0.29873   0.72702   0.00000  Uiso   1.00
O266   O     0.29873   0.41668   0.27298   0.00000  Uiso   1.00
O267   O     0.20126   0.08332   0.72702   0.00000  Uiso   1.00
O268   O     0.08332   0.29873   0.27298   0.00000  Uiso   1.00
O269   O     0.41668   0.20126   0.72702   0.00000  Uiso   1.00
O270   O     0.20126   0.41668   0.72702   0.00000  Uiso   1.00
O271   O    -0.00000   0.25000   0.25000   0.00000  Uiso   1.00
O272   O     0.29873   0.08332   0.27298   0.00000  Uiso   1.00
O273   O     0.41668   0.29873   0.72702   0.00000  Uiso   1.00
O274   O     0.08332   0.20126   0.27298   0.00000  Uiso   1.00
O275   O     0.29873   0.08332   0.72702   0.00000  Uiso   1.00
O276   O     0.20126   0.41668   0.27298   0.00000  Uiso   1.00
O277   O     0.08332   0.20126   0.72702   0.00000  Uiso   1.00
O278   O     0.41668   0.29873   0.27298   0.00000  Uiso   1.00
O279   O     0.45126   0.33332   0.77298   0.00000  Uiso   1.00
O280   O     0.04873   0.16668   0.22702   0.00000  Uiso   1.00
O281   O     0.16668   0.45126   0.77298   0.00000  Uiso   1.00
O282   O     0.00000   0.25000   0.75000   0.00000  Uiso   1.00
O283   O     0.33332   0.04873   0.22702   0.00000  Uiso   1.00
O284   O     0.04873   0.16668   0.77298   0.00000  Uiso   1.00
O285   O     0.45126   0.33332   0.22702   0.00000  Uiso   1.00
O286   O     0.33332   0.04873   0.77298   0.00000  Uiso   1.00
O287   O     0.16668   0.45126   0.22702   0.00000  Uiso   1.00
O288   O     0.45126   0.16668   0.22702   0.00000  Uiso   1.00
O289   O     0.04873   0.33332   0.77298   0.00000  Uiso   1.00
O290   O     0.16668   0.04873   0.22702   0.00000  Uiso   1.00
O291   O     0.33332   0.45126   0.77298   0.00000  Uiso   1.00
O292   O     0.04873   0.33332   0.22702   0.00000  Uiso   1.00
O293   O     0.25000   0.46538   0.33749   0.00000  Uiso   1.00
O294   O     0.45126   0.16668   0.77298   0.00000  Uiso   1.00
O295   O     0.33332   0.45126   0.22702   0.00000  Uiso   1.00
O296   O     0.16668   0.04873   0.77298   0.00000  Uiso   1.00
O297   O     0.25000   0.03461   0.66251   0.00000  Uiso   1.00
O298   O     0.03461   0.25000   0.33749   0.00000  Uiso   1.00
O299   O     0.46538   0.25000   0.66251   0.00000  Uiso   1.00
O300   O     0.25000   0.03461   0.33749   0.00000  Uiso   1.00
Zn301  Zn    0.20052  -0.00000   0.21730   0.00000  Uiso   1.00
Zn302  Zn    0.04947   0.25000   0.28270   0.00000  Uiso   1.00
Zn303  Zn    0.25000   0.45052   0.71730   0.00000  Uiso   1.00
Zn304  Zn    0.25000   0.04947   0.28270   0.00000  Uiso   1.00
Zn305  Zn    0.04947   0.25000   0.71730   0.00000  Uiso   1.00
Zn306  Zn    0.45052   0.25000   0.28270   0.00000  Uiso   1.00
Zn307  Zn    0.25000   0.04947   0.71730   0.00000  Uiso   1.00
Zn308  Zn    0.25000   0.45052   0.28270   0.00000  Uiso   1.00
Zn309  Zn    0.29947  -0.00000   0.78270   0.00000  Uiso   1.00
Zn310  Zn   -0.00000   0.20052   0.21730   0.00000  Uiso   1.00
Zn311  Zn   -0.00000   0.29947   0.78270   0.00000  Uiso   1.00
Zn312  Zn    0.29947  -0.00000   0.21730   0.00000  Uiso   1.00
Zn313  Zn    0.20052  -0.00000   0.78270   0.00000  Uiso   1.00
Zn314  Zn   -0.00000   0.29947   0.21730   0.00000  Uiso   1.00
Zn315  Zn   -0.00000   0.20052   0.78270   0.00000  Uiso   1.00
Zn316  Zn    0.45052   0.25000   0.71730   0.00000  Uiso   1.00
C317   C     0.75046   0.49996   0.35580   0.00000  Uiso   1.00
C318   C     0.83002   0.41999   0.74999   0.00000  Uiso   1.00
C319   C     0.93365   0.20922   0.02035   0.00000  Uiso   1.00
C320   C     0.77939   0.07127   0.97958   0.00000  Uiso   1.00
C321   C     0.70993   0.43324   0.02027   0.00000  Uiso   1.00
C322   C     0.93324   0.20993   0.97974   0.00000  Uiso   1.00
C323   C     0.57127   0.27937   0.02040   0.00000  Uiso   1.00
C324   C     0.92793   0.32144   0.37839   0.00000  Uiso   1.00
C325   C     0.51340   0.15436   0.62640   0.00000  Uiso   1.00
C326   C     0.65473   0.01584   0.37413   0.00000  Uiso   1.00
C327   C     0.80484   0.41038   0.61064   0.00000  Uiso   1.00
C328   C     0.58395   0.18863   0.39688   0.00000  Uiso   1.00
C329   C     0.91998   0.17000   0.24999   0.00000  Uiso   1.00
C330   C     0.50463   0.35079   0.60875   0.00000  Uiso   1.00
C331   C     0.85043   0.00163   0.38848   0.00000  Uiso   1.00
C332   C     0.69641   0.09036   0.60220   0.00000  Uiso   1.00
C333   C     0.76647   0.09515   0.87412   0.00000  Uiso   1.00
C334   C     0.66015   0.44557   0.11103   0.00000  Uiso   1.00
C335   C     0.94556   0.16016   0.88897   0.00000  Uiso   1.00
C336   C     0.59515   0.26647   0.12587   0.00000  Uiso   1.00
C337   C     0.75100   0.39956   0.88854   0.00000  Uiso   1.00
C338   C     0.84073   0.05293   0.10206   0.00000  Uiso   1.00
C339   C     0.55295   0.34071   0.89792   0.00000  Uiso   1.00
C340   C     0.58002   0.33001   0.75001   0.00000  Uiso   1.00
C341   C     0.89956   0.25103   0.11147   0.00000  Uiso   1.00
C342   C     0.83003   0.42000   0.25002   0.00000  Uiso   1.00
C343   C     0.66998   0.08000   0.74999   0.00000  Uiso   1.00
C344   C     0.58003   0.32999   0.24998   0.00000  Uiso   1.00
C345   C     0.91998   0.17000   0.75001   0.00000  Uiso   1.00
C346   C     0.67000   0.41998   0.75002   0.00000  Uiso   1.00
C347   C     0.83001   0.08001   0.24999   0.00000  Uiso   1.00
C348   C     0.92000   0.33002   0.74999   0.00000  Uiso   1.00
C349   C     0.74997   0.49997   0.64412   0.00000  Uiso   1.00
C350   C     0.58000   0.16998   0.25001   0.00000  Uiso   1.00
C351   C     0.82999   0.08003   0.75002   0.00000  Uiso   1.00
C352   C     0.67000   0.41998   0.24999   0.00000  Uiso   1.00
C353   C     0.58000   0.16997   0.74998   0.00000  Uiso   1.00
C354   C     0.92000   0.33002   0.25002   0.00000  Uiso   1.00
C355   C     0.63835   0.38832   0.24996   0.00000  Uiso   1.00
C356   C     0.86164   0.11169   0.75004   0.00000  Uiso   1.00
C357   C     0.61165   0.13832   0.25003   0.00000  Uiso   1.00
C358   C     0.88835   0.36168   0.74997   0.00000  Uiso   1.00
C359   C     0.86165   0.11167   0.24998   0.00000  Uiso   1.00
C360   C     0.99994   0.25040   0.35588   0.00000  Uiso   1.00
C361   C     0.63835   0.38832   0.75003   0.00000  Uiso   1.00
C362   C     0.88835   0.36168   0.25004   0.00000  Uiso   1.00
C363   C     0.61165   0.13832   0.74996   0.00000  Uiso   1.00
C364   C     0.63832   0.11165   0.74997   0.00000  Uiso   1.00
C365   C     0.86169   0.38835   0.25004   0.00000  Uiso   1.00
C366   C     0.61167   0.36165   0.75002   0.00000  Uiso   1.00
C367   C     0.88832   0.13835   0.24998   0.00000  Uiso   1.00
C368   C     0.86167   0.38835   0.74997   0.00000  Uiso   1.00
C369   C     0.63832   0.11164   0.25004   0.00000  Uiso   1.00
C370   C     0.88832   0.13835   0.75004   0.00000  Uiso   1.00
C371   C     0.99996   0.25043   0.64418   0.00000  Uiso   1.00
C372   C     0.61168   0.36164   0.24996   0.00000  Uiso   1.00
C373   C     0.98065   0.28386   0.41790   0.00000  Uiso   1.00
C374   C     0.51576   0.21522   0.58216   0.00000  Uiso   1.00
C375   C     0.71617   0.01749   0.41774   0.00000  Uiso   1.00
C376   C     0.78128   0.47751   0.58215   0.00000  Uiso   1.00
C377   C     0.51655   0.21566   0.41830   0.00000  Uiso   1.00
C378   C     0.98175   0.28425   0.58207   0.00000  Uiso   1.00
C379   C     0.78425   0.48157   0.41790   0.00000  Uiso   1.00
C380   C     0.71763   0.02068   0.58151   0.00000  Uiso   1.00
C381   C     0.76765   0.03370   0.91774   0.00000  Uiso   1.00
C382   C     0.50001   0.24997   0.85588   0.00000  Uiso   1.00
C383   C     0.72722   0.46883   0.08217   0.00000  Uiso   1.00
C384   C     0.96883   0.22722   0.91783   0.00000  Uiso   1.00
C385   C     0.53370   0.26765   0.08226   0.00000  Uiso   1.00
C386   C     0.73126   0.46586   0.91790   0.00000  Uiso   1.00
C387   C     0.77086   0.03219   0.08148   0.00000  Uiso   1.00
C388   C     0.53219   0.27085   0.91851   0.00000  Uiso   1.00
C389   C     0.96585   0.23127   0.08211   0.00000  Uiso   1.00
C390   C     0.99927   0.24997   0.39823   0.00000  Uiso   1.00
C391   C     0.99933   0.25003   0.60194   0.00000  Uiso   1.00
C392   C     0.75022   0.49953   0.39802   0.00000  Uiso   1.00
C393   C     0.99951   0.24995   0.14420   0.00000  Uiso   1.00
C394   C     0.74962   0.49962   0.60177   0.00000  Uiso   1.00
C395   C     0.74949   0.49975   0.89802   0.00000  Uiso   1.00
C396   C     0.74960   0.00034   0.10176   0.00000  Uiso   1.00
C397   C     0.50034   0.24960   0.89824   0.00000  Uiso   1.00
C398   C     0.99975   0.24950   0.10198   0.00000  Uiso   1.00
C399   C     0.51269   0.21352   0.45908   0.00000  Uiso   1.00
C400   C     0.97854   0.28309   0.54125   0.00000  Uiso   1.00
C401   C     0.78367   0.47963   0.45883   0.00000  Uiso   1.00
C402   C     0.71520   0.01661   0.54079   0.00000  Uiso   1.00
C403   C     0.97823   0.28333   0.45900   0.00000  Uiso   1.00
C404   C     0.74995   0.49951   0.85580   0.00000  Uiso   1.00
C405   C     0.51275   0.21324   0.54120   0.00000  Uiso   1.00
C406   C     0.71451   0.01549   0.45873   0.00000  Uiso   1.00
C407   C     0.78305   0.47860   0.54110   0.00000  Uiso   1.00
C408   C     0.72923   0.46649   0.95882   0.00000  Uiso   1.00
C409   C     0.76676   0.03466   0.04077   0.00000  Uiso   1.00
C410   C     0.53467   0.26674   0.95922   0.00000  Uiso   1.00
C411   C     0.96648   0.22923   0.04118   0.00000  Uiso   1.00
C412   C     0.76562   0.03538   0.95873   0.00000  Uiso   1.00
C413   C     0.72818   0.46711   0.04111   0.00000  Uiso   1.00
C414   C     0.96711   0.22818   0.95890   0.00000  Uiso   1.00
C415   C     0.74998   0.00001   0.14412   0.00000  Uiso   1.00
C416   C     0.53538   0.26561   0.04127   0.00000  Uiso   1.00
C417   C     0.99544   0.24836   0.47956   0.00000  Uiso   1.00
C418   C     0.99556   0.24822   0.52067   0.00000  Uiso   1.00
C419   C     0.74914   0.49759   0.47930   0.00000  Uiso   1.00
C420   C     0.74915   0.49755   0.52039   0.00000  Uiso   1.00
C421   C     0.74744   0.00089   0.97930   0.00000  Uiso   1.00
C422   C     0.74741   0.00087   0.02039   0.00000  Uiso   1.00
C423   C     0.50087   0.24740   0.97961   0.00000  Uiso   1.00
C424   C     0.50089   0.24744   0.02070   0.00000  Uiso   1.00
C425   C     0.52412   0.17669   0.47970   0.00000  Uiso   1.00
C426   C     0.66997   0.08000   0.25002   0.00000  Uiso   1.00
C427   C     0.95757   0.31542   0.52068   0.00000  Uiso   1.00
C428   C     0.81668   0.45994   0.47966   0.00000  Uiso   1.00
C429   C     0.67899   0.02983   0.52022   0.00000  Uiso   1.00
C430   C     0.95770   0.31576   0.48005   0.00000  Uiso   1.00
C431   C     0.52428   0.17659   0.52035   0.00000  Uiso   1.00
C432   C     0.67853   0.02902   0.47960   0.00000  Uiso   1.00
C433   C     0.81712   0.46074   0.52027   0.00000  Uiso   1.00
C434   C     0.70921   0.43365   0.97966   0.00000  Uiso   1.00
C435   C     0.78023   0.07078   0.02019   0.00000  Uiso   1.00
C436   C     0.57079   0.28021   0.97979   0.00000  Uiso   1.00
H437   H     0.98262   0.34860   0.40370   0.00000  Uiso   1.00
H438   H     0.62265   0.02242   0.38536   0.00000  Uiso   1.00
H439   H     0.66076   0.48142   0.37627   0.00000  Uiso   1.00
H440   H     0.65592   0.02518   0.34322   0.00000  Uiso   1.00
H441   H     0.84127   0.46731   0.60792   0.00000  Uiso   1.00
H442   H     0.83046   0.39217   0.59666   0.00000  Uiso   1.00
H443   H     0.77409   0.39989   0.59865   0.00000  Uiso   1.00
H444   H     0.80540   0.40343   0.64208   0.00000  Uiso   1.00
H445   H     0.52614   0.17559   0.37090   0.00000  Uiso   1.00
H446   H     0.59849   0.16096   0.38249   0.00000  Uiso   1.00
H447   H     0.59651   0.19067   0.42681   0.00000  Uiso   1.00
H448   H     0.90960   0.34836   0.39002   0.00000  Uiso   1.00
H449   H     0.59295   0.21751   0.38081   0.00000  Uiso   1.00
H450   H     0.95259   0.31657   0.62754   0.00000  Uiso   1.00
H451   H     0.99234   0.37989   0.62250   0.00000  Uiso   1.00
H452   H     0.51898   0.35942   0.58052   0.00000  Uiso   1.00
H453   H     0.52909   0.33690   0.62786   0.00000  Uiso   1.00
H454   H     0.81476   0.44908   0.37333   0.00000  Uiso   1.00
H455   H     0.87904   0.48789   0.37500   0.00000  Uiso   1.00
H456   H     0.85988   0.01775   0.41565   0.00000  Uiso   1.00
H457   H     0.83660   0.02497   0.36821   0.00000  Uiso   1.00
H458   H     0.67817   0.03414   0.62864   0.00000  Uiso   1.00
H459   H     0.91010   0.29189   0.38383   0.00000  Uiso   1.00
H460   H     0.67017   0.10736   0.61658   0.00000  Uiso   1.00
H461   H     0.69930   0.10235   0.57213   0.00000  Uiso   1.00
H462   H     0.72607   0.09701   0.61807   0.00000  Uiso   1.00
H463   H     0.82050   0.07204   0.90411   0.00000  Uiso   1.00
H464   H     0.77326   0.12718   0.88535   0.00000  Uiso   1.00
H465   H     0.73201   0.08934   0.87623   0.00000  Uiso   1.00
H466   H     0.77584   0.09389   0.84322   0.00000  Uiso   1.00
H467   H     0.71678   0.40877   0.10770   0.00000  Uiso   1.00
H468   H     0.64166   0.42014   0.09707   0.00000  Uiso   1.00
H469   H     0.64978   0.47646   0.09923   0.00000  Uiso   1.00
H470   H     0.93117   0.32615   0.34676   0.00000  Uiso   1.00
H471   H     0.65344   0.44489   0.14251   0.00000  Uiso   1.00
H472   H     0.90876   0.21679   0.89233   0.00000  Uiso   1.00
H473   H     0.92014   0.14166   0.90294   0.00000  Uiso   1.00
H474   H     0.97645   0.14979   0.90074   0.00000  Uiso   1.00
H475   H     0.94485   0.15346   0.85749   0.00000  Uiso   1.00
H476   H     0.57205   0.32049   0.09587   0.00000  Uiso   1.00
H477   H     0.62718   0.27325   0.11464   0.00000  Uiso   1.00
H478   H     0.58934   0.23201   0.12377   0.00000  Uiso   1.00
H479   H     0.59389   0.27584   0.15677   0.00000  Uiso   1.00
H480   H     0.69864   0.43546   0.87335   0.00000  Uiso   1.00
H481   H     0.56730   0.17485   0.59475   0.00000  Uiso   1.00
H482   H     0.73714   0.37102   0.87507   0.00000  Uiso   1.00
H483   H     0.76704   0.39004   0.91574   0.00000  Uiso   1.00
H484   H     0.77444   0.41327   0.86829   0.00000  Uiso   1.00
H485   H     0.78466   0.07158   0.12857   0.00000  Uiso   1.00
H486   H     0.85793   0.07906   0.11641   0.00000  Uiso   1.00
H487   H     0.85265   0.04997   0.07198   0.00000  Uiso   1.00
H488   H     0.84720   0.02323   0.11792   0.00000  Uiso   1.00
H489   H     0.57159   0.28465   0.87141   0.00000  Uiso   1.00
H490   H     0.57907   0.35791   0.88356   0.00000  Uiso   1.00
H491   H     0.55000   0.35263   0.92801   0.00000  Uiso   1.00
H492   H     0.51880   0.12196   0.61543   0.00000  Uiso   1.00
H493   H     0.52324   0.34719   0.88207   0.00000  Uiso   1.00
H494   H     0.93545   0.19866   0.12667   0.00000  Uiso   1.00
H495   H     0.87101   0.23717   0.12495   0.00000  Uiso   1.00
H496   H     0.89004   0.26706   0.08427   0.00000  Uiso   1.00
H497   H     0.91327   0.27447   0.13172   0.00000  Uiso   1.00
H498   H     0.51133   0.11528   0.46689   0.00000  Uiso   1.00
H499   H     0.56358   0.12799   0.46669   0.00000  Uiso   1.00
H500   H     0.90233   0.34518   0.53348   0.00000  Uiso   1.00
H501   H     0.94579   0.37696   0.53401   0.00000  Uiso   1.00
H502   H     0.84879   0.40587   0.46789   0.00000  Uiso   1.00
H503   H     0.97912   0.16134   0.62486   0.00000  Uiso   1.00
H504   H     0.87873   0.45058   0.46649   0.00000  Uiso   1.00
H505   H     0.61702   0.02100   0.53368   0.00000  Uiso   1.00
H506   H     0.63287   0.07239   0.53285   0.00000  Uiso   1.00
H507   H     0.94745   0.37782   0.46820   0.00000  Uiso   1.00
H508   H     0.90327   0.34705   0.46784   0.00000  Uiso   1.00
H509   H     0.56416   0.12813   0.53276   0.00000  Uiso   1.00
H510   H     0.51199   0.11501   0.53274   0.00000  Uiso   1.00
H511   H     0.63173   0.07070   0.46678   0.00000  Uiso   1.00
H512   H     0.61635   0.01916   0.46791   0.00000  Uiso   1.00
H513   H     0.87996   0.46168   0.53192   0.00000  Uiso   1.00
H514   H     0.52348   0.15569   0.65710   0.00000  Uiso   1.00
H515   H     0.85763   0.41283   0.53291   0.00000  Uiso   1.00
H516   H     0.65495   0.40176   0.96783   0.00000  Uiso   1.00
H517   H     0.69954   0.37167   0.96645   0.00000  Uiso   1.00
H518   H     0.77190   0.13281   0.03368   0.00000  Uiso   1.00
H519   H     0.82316   0.11660   0.03277   0.00000  Uiso   1.00
H520   H     0.63282   0.27186   0.96630   0.00000  Uiso   1.00
H521   H     0.61661   0.32313   0.96720   0.00000  Uiso   1.00
H522   H     0.90176   0.15496   0.03220   0.00000  Uiso   1.00
H523   H     0.87166   0.19955   0.03357   0.00000  Uiso   1.00
H524   H     0.82137   0.11780   0.96673   0.00000  Uiso   1.00
H525   H     0.67748   0.07005   0.40408   0.00000  Uiso   1.00
H526   H     0.76993   0.13351   0.96792   0.00000  Uiso   1.00
H527   H     0.70995   0.37039   0.03196   0.00000  Uiso   1.00
H528   H     0.66141   0.39340   0.03290   0.00000  Uiso   1.00
H529   H     0.87039   0.20995   0.96806   0.00000  Uiso   1.00
H530   H     0.89340   0.16140   0.96713   0.00000  Uiso   1.00
H531   H     0.61782   0.32135   0.03324   0.00000  Uiso   1.00
H532   H     0.63351   0.26991   0.03207   0.00000  Uiso   1.00
N533   N     0.96950   0.32018   0.39575   0.00000  Uiso   1.00
N534   N     0.70477   0.43876   0.10485   0.00000  Uiso   1.00
N535   N     0.93875   0.20478   0.89516   0.00000  Uiso   1.00
N536   N     0.56412   0.29041   0.10437   0.00000  Uiso   1.00
N537   N     0.71796   0.42965   0.89666   0.00000  Uiso   1.00
N538   N     0.79605   0.06197   0.10208   0.00000  Uiso   1.00
N539   N     0.56198   0.29603   0.89790   0.00000  Uiso   1.00
N540   N     0.92964   0.21797   0.10335   0.00000  Uiso   1.00
N541   N     0.53337   0.13829   0.45934   0.00000  Uiso   1.00
N542   N     0.93411   0.34717   0.54107   0.00000  Uiso   1.00
N543   N     0.84945   0.43752   0.45966   0.00000  Uiso   1.00
N544   N     0.53794   0.18424   0.60410   0.00000  Uiso   1.00
N545   N     0.64139   0.04177   0.54066   0.00000  Uiso   1.00
N546   N     0.93513   0.34851   0.46040   0.00000  Uiso   1.00
N547   N     0.53390   0.13812   0.54031   0.00000  Uiso   1.00
N548   N     0.64032   0.03987   0.45975   0.00000  Uiso   1.00
N549   N     0.85335   0.44449   0.54011   0.00000  Uiso   1.00
N550   N     0.68662   0.40100   0.95964   0.00000  Uiso   1.00
N551   N     0.79248   0.10829   0.04062   0.00000  Uiso   1.00
N552   N     0.60830   0.29245   0.95936   0.00000  Uiso   1.00
N553   N     0.90099   0.18663   0.04038   0.00000  Uiso   1.00
N554   N     0.79048   0.10941   0.95973   0.00000  Uiso   1.00
N555   N     0.68560   0.04001   0.39560   0.00000  Uiso   1.00
N556   N     0.69312   0.39724   0.04011   0.00000  Uiso   1.00
N557   N     0.89724   0.19312   0.95991   0.00000  Uiso   1.00
N558   N     0.60942   0.29046   0.04025   0.00000  Uiso   1.00
N559   N     0.81139   0.45509   0.60479   0.00000  Uiso   1.00
N560   N     0.53862   0.18371   0.39739   0.00000  Uiso   1.00
N561   N     0.97047   0.32130   0.60307   0.00000  Uiso   1.00
N562   N     0.82051   0.46843   0.39664   0.00000  Uiso   1.00
N563   N     0.68767   0.04562   0.60215   0.00000  Uiso   1.00
N564   N     0.79041   0.06412   0.89561   0.00000  Uiso   1.00
O565   O     0.75000  -0.00000   0.25000   0.00000  Uiso   1.00
O566   O     0.75000   0.46538   0.66251   0.00000  Uiso   1.00
O567   O     0.96538   0.25000   0.33749   0.00000  Uiso   1.00
O568   O     0.53461   0.25000   0.66251   0.00000  Uiso   1.00
O569   O     0.50000   0.21538   0.83749   0.00000  Uiso   1.00
O570   O     0.50000   0.28461   0.16251   0.00000  Uiso   1.00
O571   O     0.78461  -0.00000   0.83749   0.00000  Uiso   1.00
O572   O     0.71538  -0.00000   0.16251   0.00000  Uiso   1.00
O573   O     0.50000   0.28461   0.83749   0.00000  Uiso   1.00
O574   O     0.50000   0.21538   0.16251   0.00000  Uiso   1.00
O575   O     0.71538  -0.00000   0.83749   0.00000  Uiso   1.00
O576   O     0.75000  -0.00000   0.75000   0.00000  Uiso   1.00
O577   O     0.78461  -0.00000   0.16251   0.00000  Uiso   1.00
O578   O     0.70126   0.08332   0.27298   0.00000  Uiso   1.00
O579   O     0.79873   0.41668   0.72702   0.00000  Uiso   1.00
O580   O     0.91668   0.20126   0.27298   0.00000  Uiso   1.00
O581   O     0.58332   0.29873   0.72702   0.00000  Uiso   1.00
O582   O     0.79873   0.41668   0.27298   0.00000  Uiso   1.00
O583   O     0.70126   0.08332   0.72702   0.00000  Uiso   1.00
O584   O     0.58332   0.29873   0.27298   0.00000  Uiso   1.00
O585   O     0.91668   0.20126   0.72702   0.00000  Uiso   1.00
O586   O     0.70126   0.41668   0.72702   0.00000  Uiso   1.00
O587   O     0.50000   0.25000   0.25000   0.00000  Uiso   1.00
O588   O     0.79873   0.08332   0.27298   0.00000  Uiso   1.00
O589   O     0.91668   0.29873   0.72702   0.00000  Uiso   1.00
O590   O     0.58332   0.20126   0.27298   0.00000  Uiso   1.00
O591   O     0.79873   0.08332   0.72702   0.00000  Uiso   1.00
O592   O     0.70126   0.41668   0.27298   0.00000  Uiso   1.00
O593   O     0.58332   0.20126   0.72702   0.00000  Uiso   1.00
O594   O     0.91668   0.29873   0.27298   0.00000  Uiso   1.00
O595   O     0.95126   0.33332   0.77298   0.00000  Uiso   1.00
O596   O     0.54873   0.16668   0.22702   0.00000  Uiso   1.00
O597   O     0.66668   0.45126   0.77298   0.00000  Uiso   1.00
O598   O     0.50000   0.25000   0.75000   0.00000  Uiso   1.00
O599   O     0.83332   0.04873   0.22702   0.00000  Uiso   1.00
O600   O     0.54873   0.16668   0.77298   0.00000  Uiso   1.00
O601   O     0.95126   0.33332   0.22702   0.00000  Uiso   1.00
O602   O     0.83332   0.04873   0.77298   0.00000  Uiso   1.00
O603   O     0.66668   0.45126   0.22702   0.00000  Uiso   1.00
O604   O     0.95126   0.16668   0.22702   0.00000  Uiso   1.00
O605   O     0.54873   0.33332   0.77298   0.00000  Uiso   1.00
O606   O     0.66668   0.04873   0.22702   0.00000  Uiso   1.00
O607   O     0.83332   0.45126   0.77298   0.00000  Uiso   1.00
O608   O     0.54873   0.33332   0.22702   0.00000  Uiso   1.00
O609   O     0.75000   0.46538   0.33749   0.00000  Uiso   1.00
O610   O     0.95126   0.16668   0.77298   0.00000  Uiso   1.00
O611   O     0.83332   0.45126   0.22702   0.00000  Uiso   1.00
O612   O     0.66668   0.04873   0.77298   0.00000  Uiso   1.00
O613   O     0.75000   0.03461   0.66251   0.00000  Uiso   1.00
O614   O     0.53461   0.25000   0.33749   0.00000  Uiso   1.00
O615   O     0.96538   0.25000   0.66251   0.00000  Uiso   1.00
O616   O     0.75000   0.03461   0.33749   0.00000  Uiso   1.00
Zn617  Zn    0.70052  -0.00000   0.21730   0.00000  Uiso   1.00
Zn618  Zn    0.54947   0.25000   0.28270   0.00000  Uiso   1.00
Zn619  Zn    0.75000   0.45052   0.71730   0.00000  Uiso   1.00
Zn620  Zn    0.75000   0.04947   0.28270   0.00000  Uiso   1.00
Zn621  Zn    0.54947   0.25000   0.71730   0.00000  Uiso   1.00
Zn622  Zn    0.95052   0.25000   0.28270   0.00000  Uiso   1.00
Zn623  Zn    0.75000   0.04947   0.71730   0.00000  Uiso   1.00
Zn624  Zn    0.75000   0.45052   0.28270   0.00000  Uiso   1.00
Zn625  Zn    0.79947  -0.00000   0.78270   0.00000  Uiso   1.00
Zn626  Zn    0.50000   0.20052   0.21730   0.00000  Uiso   1.00
Zn627  Zn    0.50000   0.29947   0.78270   0.00000  Uiso   1.00
Zn628  Zn    0.79947  -0.00000   0.21730   0.00000  Uiso   1.00
Zn629  Zn    0.70052  -0.00000   0.78270   0.00000  Uiso   1.00
Zn630  Zn    0.50000   0.29947   0.21730   0.00000  Uiso   1.00
Zn631  Zn    0.50000   0.20052   0.78270   0.00000  Uiso   1.00
Zn632  Zn    0.95052   0.25000   0.71730   0.00000  Uiso   1.00
C633   C     0.25046   0.99996   0.35580   0.00000  Uiso   1.00
C634   C     0.33002   0.91999   0.74999   0.00000  Uiso   1.00
C635   C     0.43365   0.70922   0.02035   0.00000  Uiso   1.00
C636   C     0.27939   0.57127   0.97958   0.00000  Uiso   1.00
C637   C     0.20993   0.93324   0.02027   0.00000  Uiso   1.00
C638   C     0.43324   0.70993   0.97974   0.00000  Uiso   1.00
C639   C     0.07127   0.77937   0.02040   0.00000  Uiso   1.00
C640   C     0.42793   0.82144   0.37839   0.00000  Uiso   1.00
C641   C     0.01340   0.65436   0.62640   0.00000  Uiso   1.00
C642   C     0.15473   0.51584   0.37413   0.00000  Uiso   1.00
C643   C     0.30484   0.91038   0.61064   0.00000  Uiso   1.00
C644   C     0.08395   0.68863   0.39688   0.00000  Uiso   1.00
C645   C     0.41998   0.67000   0.24999   0.00000  Uiso   1.00
C646   C     0.00463   0.85079   0.60875   0.00000  Uiso   1.00
C647   C     0.35043   0.50163   0.38848   0.00000  Uiso   1.00
C648   C     0.19641   0.59036   0.60220   0.00000  Uiso   1.00
C649   C     0.26647   0.59515   0.87412   0.00000  Uiso   1.00
C650   C     0.16015   0.94557   0.11103   0.00000  Uiso   1.00
C651   C     0.44556   0.66016   0.88897   0.00000  Uiso   1.00
C652   C     0.09515   0.76647   0.12587   0.00000  Uiso   1.00
C653   C     0.25100   0.89956   0.88854   0.00000  Uiso   1.00
C654   C     0.34073   0.55293   0.10206   0.00000  Uiso   1.00
C655   C     0.05295   0.84071   0.89792   0.00000  Uiso   1.00
C656   C     0.08002   0.83001   0.75001   0.00000  Uiso   1.00
C657   C     0.39956   0.75103   0.11147   0.00000  Uiso   1.00
C658   C     0.33003   0.92000   0.25002   0.00000  Uiso   1.00
C659   C     0.16998   0.58000   0.74999   0.00000  Uiso   1.00
C660   C     0.08003   0.82999   0.24998   0.00000  Uiso   1.00
C661   C     0.41998   0.67000   0.75001   0.00000  Uiso   1.00
C662   C     0.17000   0.91998   0.75002   0.00000  Uiso   1.00
C663   C     0.33001   0.58001   0.24999   0.00000  Uiso   1.00
C664   C     0.42000   0.83002   0.74999   0.00000  Uiso   1.00
C665   C     0.24997   0.99997   0.64412   0.00000  Uiso   1.00
C666   C     0.08000   0.66998   0.25001   0.00000  Uiso   1.00
C667   C     0.32999   0.58003   0.75002   0.00000  Uiso   1.00
C668   C     0.17000   0.91998   0.24999   0.00000  Uiso   1.00
C669   C     0.08000   0.66997   0.74998   0.00000  Uiso   1.00
C670   C     0.42000   0.83002   0.25002   0.00000  Uiso   1.00
C671   C     0.13835   0.88832   0.24996   0.00000  Uiso   1.00
C672   C     0.36164   0.61169   0.75004   0.00000  Uiso   1.00
C673   C     0.11165   0.63832   0.25003   0.00000  Uiso   1.00
C674   C     0.38835   0.86168   0.74997   0.00000  Uiso   1.00
C675   C     0.36165   0.61167   0.24998   0.00000  Uiso   1.00
C676   C     0.49994   0.75040   0.35588   0.00000  Uiso   1.00
C677   C     0.13835   0.88832   0.75003   0.00000  Uiso   1.00
C678   C     0.38835   0.86168   0.25004   0.00000  Uiso   1.00
C679   C     0.11165   0.63832   0.74996   0.00000  Uiso   1.00
C680   C     0.13832   0.61165   0.74997   0.00000  Uiso   1.00
C681   C     0.36169   0.88835   0.25004   0.00000  Uiso   1.00
C682   C     0.11167   0.86165   0.75002   0.00000  Uiso   1.00
C683   C     0.38832   0.63835   0.24998   0.00000  Uiso   1.00
C684   C     0.36167   0.88835   0.74997   0.00000  Uiso   1.00
C685   C     0.13832   0.61164   0.25004   0.00000  Uiso   1.00
C686   C     0.38832   0.63835   0.75004   0.00000  Uiso   1.00
C687   C     0.49996   0.75043   0.64418   0.00000  Uiso   1.00
C688   C     0.11168   0.86164   0.24996   0.00000  Uiso   1.00
C689   C     0.48065   0.78386   0.41790   0.00000  Uiso   1.00
C690   C     0.01576   0.71522   0.58216   0.00000  Uiso   1.00
C691   C     0.21617   0.51749   0.41774   0.00000  Uiso   1.00
C692   C     0.28128   0.97751   0.58215   0.00000  Uiso   1.00
C693   C     0.01655   0.71566   0.41830   0.00000  Uiso   1.00
C694   C     0.48175   0.78425   0.58207   0.00000  Uiso   1.00
C695   C     0.28425   0.98157   0.41790   0.00000  Uiso   1.00
C696   C     0.21763   0.52068   0.58151   0.00000  Uiso   1.00
C697   C     0.26765   0.53370   0.91774   0.00000  Uiso   1.00
C698   C     0.00001   0.74997   0.85588   0.00000  Uiso   1.00
C699   C     0.22722   0.96883   0.08217   0.00000  Uiso   1.00
C700   C     0.46883   0.72722   0.91783   0.00000  Uiso   1.00
C701   C     0.03370   0.76765   0.08226   0.00000  Uiso   1.00
C702   C     0.23126   0.96586   0.91790   0.00000  Uiso   1.00
C703   C     0.27086   0.53219   0.08148   0.00000  Uiso   1.00
C704   C     0.03219   0.77085   0.91851   0.00000  Uiso   1.00
C705   C     0.46585   0.73127   0.08211   0.00000  Uiso   1.00
C706   C     0.49927   0.74997   0.39823   0.00000  Uiso   1.00
C707   C     0.49933   0.75003   0.60194   0.00000  Uiso   1.00
C708   C     0.25022   0.99953   0.39802   0.00000  Uiso   1.00
C709   C     0.49951   0.74995   0.14420   0.00000  Uiso   1.00
C710   C     0.24962   0.99962   0.60177   0.00000  Uiso   1.00
C711   C     0.24949   0.99975   0.89802   0.00000  Uiso   1.00
C712   C     0.24960   0.50034   0.10176   0.00000  Uiso   1.00
C713   C     0.00034   0.74960   0.89824   0.00000  Uiso   1.00
C714   C     0.49975   0.74950   0.10198   0.00000  Uiso   1.00
C715   C     0.01269   0.71352   0.45908   0.00000  Uiso   1.00
C716   C     0.47854   0.78309   0.54125   0.00000  Uiso   1.00
C717   C     0.28367   0.97963   0.45883   0.00000  Uiso   1.00
C718   C     0.21520   0.51661   0.54079   0.00000  Uiso   1.00
C719   C     0.47823   0.78333   0.45900   0.00000  Uiso   1.00
C720   C     0.24995   0.99951   0.85580   0.00000  Uiso   1.00
C721   C     0.01275   0.71324   0.54120   0.00000  Uiso   1.00
C722   C     0.21451   0.51549   0.45873   0.00000  Uiso   1.00
C723   C     0.28305   0.97860   0.54110   0.00000  Uiso   1.00
C724   C     0.22923   0.96649   0.95882   0.00000  Uiso   1.00
C725   C     0.26676   0.53466   0.04077   0.00000  Uiso   1.00
C726   C     0.03467   0.76674   0.95922   0.00000  Uiso   1.00
C727   C     0.46648   0.72923   0.04118   0.00000  Uiso   1.00
C728   C     0.26562   0.53538   0.95873   0.00000  Uiso   1.00
C729   C     0.22818   0.96711   0.04111   0.00000  Uiso   1.00
C730   C     0.46711   0.72818   0.95890   0.00000  Uiso   1.00
C731   C     0.24998   0.50001   0.14412   0.00000  Uiso   1.00
C732   C     0.03538   0.76561   0.04127   0.00000  Uiso   1.00
C733   C     0.49544   0.74836   0.47956   0.00000  Uiso   1.00
C734   C     0.49556   0.74822   0.52067   0.00000  Uiso   1.00
C735   C     0.24914   0.99759   0.47930   0.00000  Uiso   1.00
C736   C     0.24915   0.99755   0.52039   0.00000  Uiso   1.00
C737   C     0.24744   0.50089   0.97930   0.00000  Uiso   1.00
C738   C     0.24741   0.50087   0.02039   0.00000  Uiso   1.00
C739   C     0.00087   0.74740   0.97961   0.00000  Uiso   1.00
C740   C     0.00089   0.74744   0.02070   0.00000  Uiso   1.00
C741   C     0.02412   0.67669   0.47970   0.00000  Uiso   1.00
C742   C     0.16997   0.58000   0.25002   0.00000  Uiso   1.00
C743   C     0.45757   0.81542   0.52068   0.00000  Uiso   1.00
C744   C     0.31668   0.95994   0.47966   0.00000  Uiso   1.00
C745   C     0.17899   0.52983   0.52022   0.00000  Uiso   1.00
C746   C     0.45770   0.81576   0.48005   0.00000  Uiso   1.00
C747   C     0.02428   0.67659   0.52035   0.00000  Uiso   1.00
C748   C     0.17853   0.52902   0.47960   0.00000  Uiso   1.00
C749   C     0.31712   0.96074   0.52027   0.00000  Uiso   1.00
C750   C     0.20921   0.93365   0.97966   0.00000  Uiso   1.00
C751   C     0.28023   0.57078   0.02019   0.00000  Uiso   1.00
C752   C     0.07079   0.78021   0.97979   0.00000  Uiso   1.00
H753   H     0.48262   0.84860   0.40370   0.00000  Uiso   1.00
H754   H     0.12265   0.52242   0.38536   0.00000  Uiso   1.00
H755   H     0.16076   0.98142   0.37627   0.00000  Uiso   1.00
H756   H     0.15592   0.52518   0.34322   0.00000  Uiso   1.00
H757   H     0.34127   0.96731   0.60792   0.00000  Uiso   1.00
H758   H     0.33046   0.89217   0.59666   0.00000  Uiso   1.00
H759   H     0.27409   0.89989   0.59865   0.00000  Uiso   1.00
H760   H     0.30540   0.90343   0.64208   0.00000  Uiso   1.00
H761   H     0.02614   0.67559   0.37090   0.00000  Uiso   1.00
H762   H     0.09849   0.66096   0.38249   0.00000  Uiso   1.00
H763   H     0.09651   0.69067   0.42681   0.00000  Uiso   1.00
H764   H     0.40960   0.84836   0.39002   0.00000  Uiso   1.00
H765   H     0.09295   0.71751   0.38081   0.00000  Uiso   1.00
H766   H     0.45259   0.81657   0.62754   0.00000  Uiso   1.00
H767   H     0.49234   0.87989   0.62250   0.00000  Uiso   1.00
H768   H     0.01898   0.85942   0.58052   0.00000  Uiso   1.00
H769   H     0.02909   0.83690   0.62786   0.00000  Uiso   1.00
H770   H     0.31476   0.94908   0.37333   0.00000  Uiso   1.00
H771   H     0.37904   0.98789   0.37500   0.00000  Uiso   1.00
H772   H     0.35988   0.51775   0.41565   0.00000  Uiso   1.00
H773   H     0.33660   0.52497   0.36821   0.00000  Uiso   1.00
H774   H     0.17817   0.53414   0.62864   0.00000  Uiso   1.00
H775   H     0.41010   0.79189   0.38383   0.00000  Uiso   1.00
H776   H     0.17017   0.60736   0.61658   0.00000  Uiso   1.00
H777   H     0.19930   0.60235   0.57213   0.00000  Uiso   1.00
H778   H     0.22607   0.59701   0.61807   0.00000  Uiso   1.00
H779   H     0.32050   0.57204   0.90411   0.00000  Uiso   1.00
H780   H     0.27326   0.62718   0.88535   0.00000  Uiso   1.00
H781   H     0.23201   0.58934   0.87623   0.00000  Uiso   1.00
H782   H     0.27584   0.59389   0.84322   0.00000  Uiso   1.00
H783   H     0.21678   0.90877   0.10770   0.00000  Uiso   1.00
H784   H     0.14166   0.92014   0.09707   0.00000  Uiso   1.00
H785   H     0.14978   0.97646   0.09923   0.00000  Uiso   1.00
H786   H     0.43117   0.82615   0.34676   0.00000  Uiso   1.00
H787   H     0.15344   0.94489   0.14251   0.00000  Uiso   1.00
H788   H     0.40876   0.71679   0.89233   0.00000  Uiso   1.00
H789   H     0.42014   0.64166   0.90294   0.00000  Uiso   1.00
H790   H     0.47645   0.64979   0.90074   0.00000  Uiso   1.00
H791   H     0.44485   0.65346   0.85749   0.00000  Uiso   1.00
H792   H     0.07205   0.82049   0.09587   0.00000  Uiso   1.00
H793   H     0.12718   0.77325   0.11464   0.00000  Uiso   1.00
H794   H     0.08934   0.73201   0.12377   0.00000  Uiso   1.00
H795   H     0.09389   0.77584   0.15677   0.00000  Uiso   1.00
H796   H     0.19864   0.93546   0.87335   0.00000  Uiso   1.00
H797   H     0.06730   0.67485   0.59475   0.00000  Uiso   1.00
H798   H     0.23714   0.87102   0.87507   0.00000  Uiso   1.00
H799   H     0.26704   0.89004   0.91574   0.00000  Uiso   1.00
H800   H     0.27444   0.91327   0.86829   0.00000  Uiso   1.00
H801   H     0.28466   0.57158   0.12857   0.00000  Uiso   1.00
H802   H     0.35793   0.57906   0.11641   0.00000  Uiso   1.00
H803   H     0.35265   0.54997   0.07198   0.00000  Uiso   1.00
H804   H     0.34720   0.52323   0.11792   0.00000  Uiso   1.00
H805   H     0.07159   0.78465   0.87141   0.00000  Uiso   1.00
H806   H     0.07907   0.85791   0.88356   0.00000  Uiso   1.00
H807   H     0.05000   0.85263   0.92801   0.00000  Uiso   1.00
H808   H     0.01880   0.62196   0.61543   0.00000  Uiso   1.00
H809   H     0.02324   0.84719   0.88207   0.00000  Uiso   1.00
H810   H     0.43545   0.69866   0.12667   0.00000  Uiso   1.00
H811   H     0.37101   0.73717   0.12495   0.00000  Uiso   1.00
H812   H     0.39004   0.76706   0.08427   0.00000  Uiso   1.00
H813   H     0.41327   0.77447   0.13172   0.00000  Uiso   1.00
H814   H     0.01133   0.61528   0.46689   0.00000  Uiso   1.00
H815   H     0.06358   0.62799   0.46669   0.00000  Uiso   1.00
H816   H     0.40233   0.84518   0.53348   0.00000  Uiso   1.00
H817   H     0.44579   0.87696   0.53401   0.00000  Uiso   1.00
H818   H     0.34879   0.90587   0.46789   0.00000  Uiso   1.00
H819   H     0.47912   0.66134   0.62486   0.00000  Uiso   1.00
H820   H     0.37873   0.95058   0.46649   0.00000  Uiso   1.00
H821   H     0.11702   0.52100   0.53368   0.00000  Uiso   1.00
H822   H     0.13287   0.57239   0.53285   0.00000  Uiso   1.00
H823   H     0.44745   0.87782   0.46820   0.00000  Uiso   1.00
H824   H     0.40327   0.84705   0.46784   0.00000  Uiso   1.00
H825   H     0.06416   0.62813   0.53276   0.00000  Uiso   1.00
H826   H     0.01199   0.61501   0.53274   0.00000  Uiso   1.00
H827   H     0.13173   0.57070   0.46678   0.00000  Uiso   1.00
H828   H     0.11635   0.51916   0.46791   0.00000  Uiso   1.00
H829   H     0.37996   0.96168   0.53192   0.00000  Uiso   1.00
H830   H     0.02348   0.65569   0.65710   0.00000  Uiso   1.00
H831   H     0.35763   0.91283   0.53291   0.00000  Uiso   1.00
H832   H     0.15495   0.90176   0.96783   0.00000  Uiso   1.00
H833   H     0.19954   0.87167   0.96645   0.00000  Uiso   1.00
H834   H     0.27190   0.63281   0.03368   0.00000  Uiso   1.00
H835   H     0.32316   0.61660   0.03277   0.00000  Uiso   1.00
H836   H     0.13282   0.77186   0.96630   0.00000  Uiso   1.00
H837   H     0.11661   0.82313   0.96720   0.00000  Uiso   1.00
H838   H     0.40176   0.65496   0.03220   0.00000  Uiso   1.00
H839   H     0.37166   0.69955   0.03357   0.00000  Uiso   1.00
H840   H     0.32137   0.61780   0.96673   0.00000  Uiso   1.00
H841   H     0.17748   0.57005   0.40408   0.00000  Uiso   1.00
H842   H     0.26993   0.63351   0.96792   0.00000  Uiso   1.00
H843   H     0.20995   0.87039   0.03196   0.00000  Uiso   1.00
H844   H     0.16141   0.89340   0.03290   0.00000  Uiso   1.00
H845   H     0.37039   0.70995   0.96806   0.00000  Uiso   1.00
H846   H     0.39340   0.66140   0.96713   0.00000  Uiso   1.00
H847   H     0.11782   0.82135   0.03324   0.00000  Uiso   1.00
H848   H     0.13351   0.76991   0.03207   0.00000  Uiso   1.00
N849   N     0.46950   0.82018   0.39575   0.00000  Uiso   1.00
N850   N     0.20477   0.93876   0.10485   0.00000  Uiso   1.00
N851   N     0.43875   0.70478   0.89516   0.00000  Uiso   1.00
N852   N     0.06412   0.79041   0.10437   0.00000  Uiso   1.00
N853   N     0.21796   0.92965   0.89666   0.00000  Uiso   1.00
N854   N     0.29605   0.56197   0.10208   0.00000  Uiso   1.00
N855   N     0.06198   0.79603   0.89790   0.00000  Uiso   1.00
N856   N     0.42964   0.71797   0.10335   0.00000  Uiso   1.00
N857   N     0.03337   0.63829   0.45934   0.00000  Uiso   1.00
N858   N     0.43411   0.84717   0.54107   0.00000  Uiso   1.00
N859   N     0.34945   0.93752   0.45966   0.00000  Uiso   1.00
N860   N     0.03794   0.68424   0.60410   0.00000  Uiso   1.00
N861   N     0.14139   0.54177   0.54066   0.00000  Uiso   1.00
N862   N     0.43513   0.84851   0.46040   0.00000  Uiso   1.00
N863   N     0.03390   0.63812   0.54031   0.00000  Uiso   1.00
N864   N     0.14032   0.53987   0.45975   0.00000  Uiso   1.00
N865   N     0.35335   0.94449   0.54011   0.00000  Uiso   1.00
N866   N     0.18662   0.90100   0.95964   0.00000  Uiso   1.00
N867   N     0.29248   0.60829   0.04062   0.00000  Uiso   1.00
N868   N     0.10830   0.79245   0.95936   0.00000  Uiso   1.00
N869   N     0.40099   0.68663   0.04038   0.00000  Uiso   1.00
N870   N     0.29048   0.60941   0.95973   0.00000  Uiso   1.00
N871   N     0.18560   0.54001   0.39560   0.00000  Uiso   1.00
N872   N     0.19312   0.89724   0.04011   0.00000  Uiso   1.00
N873   N     0.39724   0.69312   0.95991   0.00000  Uiso   1.00
N874   N     0.10942   0.79046   0.04025   0.00000  Uiso   1.00
N875   N     0.31139   0.95509   0.60479   0.00000  Uiso   1.00
N876   N     0.03862   0.68371   0.39739   0.00000  Uiso   1.00
N877   N     0.47047   0.82130   0.60307   0.00000  Uiso   1.00
N878   N     0.32051   0.96843   0.39664   0.00000  Uiso   1.00
N879   N     0.18767   0.54562   0.60215   0.00000  Uiso   1.00
N880   N     0.29041   0.56412   0.89561   0.00000  Uiso   1.00
O881   O     0.25000   0.50000   0.25000   0.00000  Uiso   1.00
O882   O     0.25000   0.96538   0.66251   0.00000  Uiso   1.00
O883   O     0.46538   0.75000   0.33749   0.00000  Uiso   1.00
O884   O     0.03461   0.75000   0.66251   0.00000  Uiso   1.00
O885   O     0.00000   0.71538   0.83749   0.00000  Uiso   1.00
O886   O    -0.00000   0.78461   0.16251   0.00000  Uiso   1.00
O887   O     0.28461   0.50000   0.83749   0.00000  Uiso   1.00
O888   O     0.21538   0.50000   0.16251   0.00000  Uiso   1.00
O889   O    -0.00000   0.78461   0.83749   0.00000  Uiso   1.00
O890   O    -0.00000   0.71538   0.16251   0.00000  Uiso   1.00
O891   O     0.21538   0.50000   0.83749   0.00000  Uiso   1.00
O892   O     0.25000   0.50000   0.75000   0.00000  Uiso   1.00
O893   O     0.28461   0.50000   0.16251   0.00000  Uiso   1.00
O894   O     0.20126   0.58332   0.27298   0.00000  Uiso   1.00
O895   O     0.29873   0.91668   0.72702   0.00000  Uiso   1.00
O896   O     0.41668   0.70126   0.27298   0.00000  Uiso   1.00
O897   O     0.08332   0.79873   0.72702   0.00000  Uiso   1.00
O898   O     0.29873   0.91668   0.27298   0.00000  Uiso   1.00
O899   O     0.20126   0.58332   0.72702   0.00000  Uiso   1.00
O900   O     0.08332   0.79873   0.27298   0.00000  Uiso   1.00
O901   O     0.41668   0.70126   0.72702   0.00000  Uiso   1.00
O902   O     0.20126   0.91668   0.72702   0.00000  Uiso   1.00
O903   O    -0.00000   0.75000   0.25000   0.00000  Uiso   1.00
O904   O     0.29873   0.58332   0.27298   0.00000  Uiso   1.00
O905   O     0.41668   0.79873   0.72702   0.00000  Uiso   1.00
O906   O     0.08332   0.70126   0.27298   0.00000  Uiso   1.00
O907   O     0.29873   0.58332   0.72702   0.00000  Uiso   1.00
O908   O     0.20126   0.91668   0.27298   0.00000  Uiso   1.00
O909   O     0.08332   0.70126   0.72702   0.00000  Uiso   1.00
O910   O     0.41668   0.79873   0.27298   0.00000  Uiso   1.00
O911   O     0.45126   0.83332   0.77298   0.00000  Uiso   1.00
O912   O     0.04873   0.66668   0.22702   0.00000  Uiso   1.00
O913   O     0.16668   0.95126   0.77298   0.00000  Uiso   1.00
O914   O     0.00000   0.75000   0.75000   0.00000  Uiso   1.00
O915   O     0.33332   0.54873   0.22702   0.00000  Uiso   1.00
O916   O     0.04873   0.66668   0.77298   0.00000  Uiso   1.00
O917   O     0.45126   0.83332   0.22702   0.00000  Uiso   1.00
O918   O     0.33332   0.54873   0.77298   0.00000  Uiso   1.00
O919   O     0.16668   0.95126   0.22702   0.00000  Uiso   1.00
O920   O     0.45126   0.66668   0.22702   0.00000  Uiso   1.00
O921   O     0.04873   0.83332   0.77298   0.00000  Uiso   1.00
O922   O     0.16668   0.54873   0.22702   0.00000  Uiso   1.00
O923   O     0.33332   0.95126   0.77298   0.00000  Uiso   1.00
O924   O     0.04873   0.83332   0.22702   0.00000  Uiso   1.00
O925   O     0.25000   0.96538   0.33749   0.00000  Uiso   1.00
O926   O     0.45126   0.66668   0.77298   0.00000  Uiso   1.00
O927   O     0.33332   0.95126   0.22702   0.00000  Uiso   1.00
O928   O     0.16668   0.54873   0.77298   0.00000  Uiso   1.00
O929   O     0.25000   0.53461   0.66251   0.00000  Uiso   1.00
O930   O     0.03461   0.75000   0.33749   0.00000  Uiso   1.00
O931   O     0.46538   0.75000   0.66251   0.00000  Uiso   1.00
O932   O     0.25000   0.53461   0.33749   0.00000  Uiso   1.00
Zn933  Zn    0.20052   0.50000   0.21730   0.00000  Uiso   1.00
Zn934  Zn    0.04947   0.75000   0.28270   0.00000  Uiso   1.00
Zn935  Zn    0.25000   0.95052   0.71730   0.00000  Uiso   1.00
Zn936  Zn    0.25000   0.54947   0.28270   0.00000  Uiso   1.00
Zn937  Zn    0.04947   0.75000   0.71730   0.00000  Uiso   1.00
Zn938  Zn    0.45052   0.75000   0.28270   0.00000  Uiso   1.00
Zn939  Zn    0.25000   0.54947   0.71730   0.00000  Uiso   1.00
Zn940  Zn    0.25000   0.95052   0.28270   0.00000  Uiso   1.00
Zn941  Zn    0.29947   0.50000   0.78270   0.00000  Uiso   1.00
Zn942  Zn   -0.00000   0.70052   0.21730   0.00000  Uiso   1.00
Zn943  Zn   -0.00000   0.79947   0.78270   0.00000  Uiso   1.00
Zn944  Zn    0.29947   0.50000   0.21730   0.00000  Uiso   1.00
Zn945  Zn    0.20052   0.50000   0.78270   0.00000  Uiso   1.00
Zn946  Zn   -0.00000   0.79947   0.21730   0.00000  Uiso   1.00
Zn947  Zn   -0.00000   0.70052   0.78270   0.00000  Uiso   1.00
Zn948  Zn    0.45052   0.75000   0.71730   0.00000  Uiso   1.00
C949   C     0.75046   0.99996   0.35580   0.00000  Uiso   1.00
C950   C     0.83002   0.91999   0.74999   0.00000  Uiso   1.00
C951   C     0.93365   0.70922   0.02035   0.00000  Uiso   1.00
C952   C     0.77939   0.57127   0.97958   0.00000  Uiso   1.00
C953   C     0.70993   0.93324   0.02027   0.00000  Uiso   1.00
C954   C     0.93324   0.70993   0.97974   0.00000  Uiso   1.00
C955   C     0.57127   0.77937   0.02040   0.00000  Uiso   1.00
C956   C     0.92793   0.82144   0.37839   0.00000  Uiso   1.00
C957   C     0.51340   0.65436   0.62640   0.00000  Uiso   1.00
C958   C     0.65473   0.51584   0.37413   0.00000  Uiso   1.00
C959   C     0.80484   0.91038   0.61064   0.00000  Uiso   1.00
C960   C     0.58395   0.68863   0.39688   0.00000  Uiso   1.00
C961   C     0.91998   0.67000   0.24999   0.00000  Uiso   1.00
C962   C     0.50463   0.85079   0.60875   0.00000  Uiso   1.00
C963   C     0.85043   0.50163   0.38848   0.00000  Uiso   1.00
C964   C     0.69641   0.59036   0.60220   0.00000  Uiso   1.00
C965   C     0.76647   0.59515   0.87412   0.00000  Uiso   1.00
C966   C     0.66015   0.94557   0.11103   0.00000  Uiso   1.00
C967   C     0.94556   0.66016   0.88897   0.00000  Uiso   1.00
C968   C     0.59515   0.76647   0.12587   0.00000  Uiso   1.00
C969   C     0.75100   0.89956   0.88854   0.00000  Uiso   1.00
C970   C     0.84073   0.55293   0.10206   0.00000  Uiso   1.00
C971   C     0.55295   0.84071   0.89792   0.00000  Uiso   1.00
C972   C     0.58002   0.83001   0.75001   0.00000  Uiso   1.00
C973   C     0.89956   0.75103   0.11147   0.00000  Uiso   1.00
C974   C     0.83003   0.92000   0.25002   0.00000  Uiso   1.00
C975   C     0.66998   0.58000   0.74999   0.00000  Uiso   1.00
C976   C     0.58003   0.82999   0.24998   0.00000  Uiso   1.00
C977   C     0.91998   0.67000   0.75001   0.00000  Uiso   1.00
C978   C     0.67000   0.91998   0.75002   0.00000  Uiso   1.00
C979   C     0.83001   0.58001   0.24999   0.00000  Uiso   1.00
C980   C     0.92000   0.83002   0.74999   0.00000  Uiso   1.00
C981   C     0.74997   0.99997   0.64412   0.00000  Uiso   1.00
C982   C     0.58000   0.66998   0.25001   0.00000  Uiso   1.00
C983   C     0.82999   0.58003   0.75002   0.00000  Uiso   1.00
C984   C     0.67000   0.91998   0.24999   0.00000  Uiso   1.00
C985   C     0.58000   0.66997   0.74998   0.00000  Uiso   1.00
C986   C     0.92000   0.83002   0.25002   0.00000  Uiso   1.00
C987   C     0.63835   0.88832   0.24996   0.00000  Uiso   1.00
C988   C     0.86164   0.61169   0.75004   0.00000  Uiso   1.00
C989   C     0.61165   0.63832   0.25003   0.00000  Uiso   1.00
C990   C     0.88835   0.86168   0.74997   0.00000  Uiso   1.00
C991   C     0.86165   0.61167   0.24998   0.00000  Uiso   1.00
C992   C     0.99994   0.75040   0.35588   0.00000  Uiso   1.00
C993   C     0.63835   0.88832   0.75003   0.00000  Uiso   1.00
C994   C     0.88835   0.86168   0.25004   0.00000  Uiso   1.00
C995   C     0.61165   0.63832   0.74996   0.00000  Uiso   1.00
C996   C     0.63832   0.61165   0.74997   0.00000  Uiso   1.00
C997   C     0.86169   0.88835   0.25004   0.00000  Uiso   1.00
C998   C     0.61167   0.86165   0.75002   0.00000  Uiso   1.00
C999   C     0.88832   0.63835   0.24998   0.00000  Uiso   1.00
C1000  C     0.86167   0.88835   0.74997   0.00000  Uiso   1.00
C1001  C     0.63832   0.61164   0.25004   0.00000  Uiso   1.00
C1002  C     0.88832   0.63835   0.75004   0.00000  Uiso   1.00
C1003  C     0.99996   0.75043   0.64418   0.00000  Uiso   1.00
C1004  C     0.61168   0.86164   0.24996   0.00000  Uiso   1.00
C1005  C     0.98065   0.78386   0.41790   0.00000  Uiso   1.00
C1006  C     0.51576   0.71522   0.58216   0.00000  Uiso   1.00
C1007  C     0.71617   0.51749   0.41774   0.00000  Uiso   1.00
C1008  C     0.78128   0.97751   0.58215   0.00000  Uiso   1.00
C1009  C     0.51655   0.71566   0.41830   0.00000  Uiso   1.00
C1010  C     0.98175   0.78425   0.58207   0.00000  Uiso   1.00
C1011  C     0.78425   0.98157   0.41790   0.00000  Uiso   1.00
C1012  C     0.71763   0.52068   0.58151   0.00000  Uiso   1.00
C1013  C     0.76765   0.53370   0.91774   0.00000  Uiso   1.00
C1014  C     0.50001   0.74997   0.85588   0.00000  Uiso   1.00
C1015  C     0.72722   0.96883   0.08217   0.00000  Uiso   1.00
C1016  C     0.96883   0.72722   0.91783   0.00000  Uiso   1.00
C1017  C     0.53370   0.76765   0.08226   0.00000  Uiso   1.00
C1018  C     0.73126   0.96586   0.91790   0.00000  Uiso   1.00
C1019  C     0.77086   0.53219   0.08148   0.00000  Uiso   1.00
C1020  C     0.53219   0.77085   0.91851   0.00000  Uiso   1.00
C1021  C     0.96585   0.73127   0.08211   0.00000  Uiso   1.00
C1022  C     0.99927   0.74997   0.39823   0.00000  Uiso   1.00
C1023  C     0.99933   0.75003   0.60194   0.00000  Uiso   1.00
C1024  C     0.75022   0.99953   0.39802   0.00000  Uiso   1.00
C1025  C     0.99951   0.74995   0.14420   0.00000  Uiso   1.00
C1026  C     0.74962   0.99962   0.60177   0.00000  Uiso   1.00
C1027  C     0.74949   0.99975   0.89802   0.00000  Uiso   1.00
C1028  C     0.74960   0.50034   0.10176   0.00000  Uiso   1.00
C1029  C     0.50034   0.74960   0.89824   0.00000  Uiso   1.00
C1030  C     0.99975   0.74950   0.10198   0.00000  Uiso   1.00
C1031  C     0.51269   0.71352   0.45908   0.00000  Uiso   1.00
C1032  C     0.97854   0.78309   0.54125   0.00000  Uiso   1.00
C1033  C     0.78367   0.97963   0.45883   0.00000  Uiso   1.00
C1034  C     0.71520   0.51661   0.54079   0.00000  Uiso   1.00
C1035  C     0.97823   0.78333   0.45900   0.00000  Uiso   1.00
C1036  C     0.74995   0.99951   0.85580   0.00000  Uiso   1.00
C1037  C     0.51275   0.71324   0.54120   0.00000  Uiso   1.00
C1038  C     0.71451   0.51549   0.45873   0.00000  Uiso   1.00
C1039  C     0.78305   0.97860   0.54110   0.00000  Uiso   1.00
C1040  C     0.72923   0.96649   0.95882   0.00000  Uiso   1.00
C1041  C     0.76676   0.53466   0.04077   0.00000  Uiso   1.00
C1042  C     0.53467   0.76674   0.95922   0.00000  Uiso   1.00
C1043  C     0.96648   0.72923   0.04118   0.00000  Uiso   1.00
C1044  C     0.76562   0.53538   0.95873   0.00000  Uiso   1.00
C1045  C     0.72818   0.96711   0.04111   0.00000  Uiso   1.00
C1046  C     0.96711   0.72818   0.95890   0.00000  Uiso   1.00
C1047  C     0.74998   0.50001   0.14412   0.00000  Uiso   1.00
C1048  C     0.53538   0.76561   0.04127   0.00000  Uiso   1.00
C1049  C     0.99544   0.74836   0.47956   0.00000  Uiso   1.00
C1050  C     0.99556   0.74822   0.52067   0.00000  Uiso   1.00
C1051  C     0.74914   0.99759   0.47930   0.00000  Uiso   1.00
C1052  C     0.74915   0.99755   0.52039   0.00000  Uiso   1.00
C1053  C     0.74744   0.50089   0.97930   0.00000  Uiso   1.00
C1054  C     0.74741   0.50087   0.02039   0.00000  Uiso   1.00
C1055  C     0.50087   0.74740   0.97961   0.00000  Uiso   1.00
C1056  C     0.50089   0.74744   0.02070   0.00000  Uiso   1.00
C1057  C     0.52412   0.67669   0.47970   0.00000  Uiso   1.00
C1058  C     0.66997   0.58000   0.25002   0.00000  Uiso   1.00
C1059  C     0.95757   0.81542   0.52068   0.00000  Uiso   1.00
C1060  C     0.81668   0.95994   0.47966   0.00000  Uiso   1.00
C1061  C     0.67899   0.52983   0.52022   0.00000  Uiso   1.00
C1062  C     0.95770   0.81576   0.48005   0.00000  Uiso   1.00
C1063  C     0.52428   0.67659   0.52035   0.00000  Uiso   1.00
C1064  C     0.67853   0.52902   0.47960   0.00000  Uiso   1.00
C1065  C     0.81712   0.96074   0.52027   0.00000  Uiso   1.00
C1066  C     0.70921   0.93365   0.97966   0.00000  Uiso   1.00
C1067  C     0.78023   0.57078   0.02019   0.00000  Uiso   1.00
C1068  C     0.57079   0.78021   0.97979   0.00000  Uiso   1.00
H1069  H     0.98262   0.84860   0.40370   0.00000  Uiso   1.00
H1070  H     0.62265   0.52242   0.38536   0.00000  Uiso   1.00
H1071  H     0.66076   0.98142   0.37627   0.00000  Uiso   1.00
H1072  H     0.65592   0.52518   0.34322   0.00000  Uiso   1.00
H1073  H     0.84127   0.96731   0.60792   0.00000  Uiso   1.00
H1074  H     0.83046   0.89217   0.59666   0.00000  Uiso   1.00
H1075  H     0.77409   0.89989   0.59865   0.00000  Uiso   1.00
H1076  H     0.80540   0.90343   0.64208   0.00000  Uiso   1.00
H1077  H     0.52614   0.67559   0.37090   0.00000  Uiso   1.00
H1078  H     0.59849   0.66096   0.38249   0.00000  Uiso   1.00
H1079  H     0.59651   0.69067   0.42681   0.00000  Uiso   1.00
H1080  H     0.90960   0.84836   0.39002   0.00000  Uiso   1.00
H1081  H     0.59295   0.71751   0.38081   0.00000  Uiso   1.00
H1082  H     0.95259   0.81657   0.62754   0.00000  Uiso   1.00
H1083  H     0.99234   0.87989   0.62250   0.00000  Uiso   1.00
H1084  H     0.51898   0.85942   0.58052   0.00000  Uiso   1.00
H1085  H     0.52909   0.83690   0.62786   0.00000  Uiso   1.00
H1086  H     0.81476   0.94908   0.37333   0.00000  Uiso   1.00
H1087  H     0.87904   0.98789   0.37500   0.00000  Uiso   1.00
H1088  H     0.85988   0.51775   0.41565   0.00000  Uiso   1.00
H1089  H     0.83660   0.52497   0.36821   0.00000  Uiso   1.00
H1090  H     0.67817   0.53414   0.62864   0.00000  Uiso   1.00
H1091  H     0.91010   0.79189   0.38383   0.00000  Uiso   1.00
H1092  H     0.67017   0.60736   0.61658   0.00000  Uiso   1.00
H1093  H     0.69930   0.60235   0.57213   0.00000  Uiso   1.00
H1094  H     0.72607   0.59701   0.61807   0.00000  Uiso   1.00
H1095  H     0.82050   0.57204   0.90411   0.00000  Uiso   1.00
H1096  H     0.77326   0.62718   0.88535   0.00000  Uiso   1.00
H1097  H     0.73201   0.58934   0.87623   0.00000  Uiso   1.00
H1098  H     0.77584   0.59389   0.84322   0.00000  Uiso   1.00
H1099  H     0.71678   0.90877   0.10770   0.00000  Uiso   1.00
H1100  H     0.64166   0.92014   0.09707   0.00000  Uiso   1.00
H1101  H     0.64978   0.97646   0.09923   0.00000  Uiso   1.00
H1102  H     0.93117   0.82615   0.34676   0.00000  Uiso   1.00
H1103  H     0.65344   0.94489   0.14251   0.00000  Uiso   1.00
H1104  H     0.90876   0.71679   0.89233   0.00000  Uiso   1.00
H1105  H     0.92014   0.64166   0.90294   0.00000  Uiso   1.00
H1106  H     0.97645   0.64979   0.90074   0.00000  Uiso   1.00
H1107  H     0.94485   0.65346   0.85749   0.00000  Uiso   1.00
H1108  H     0.57205   0.82049   0.09587   0.00000  Uiso   1.00
H1109  H     0.62718   0.77325   0.11464   0.00000  Uiso   1.00
H1110  H     0.58934   0.73201   0.12377   0.00000  Uiso   1.00
H1111  H     0.59389   0.77584   0.15677   0.00000  Uiso   1.00
H1112  H     0.69864   0.93546   0.87335   0.00000  Uiso   1.00
H1113  H     0.56730   0.67485   0.59475   0.00000  Uiso   1.00
H1114  H     0.73714   0.87102   0.87507   0.00000  Uiso   1.00
H1115  H     0.76704   0.89004   0.91574   0.00000  Uiso   1.00
H1116  H     0.77444   0.91327   0.86829   0.00000  Uiso   1.00
H1117  H     0.78466   0.57158   0.12857   0.00000  Uiso   1.00
H1118  H     0.85793   0.57906   0.11641   0.00000  Uiso   1.00
H1119  H     0.85265   0.54997   0.07198   0.00000  Uiso   1.00
H1120  H     0.84720   0.52323   0.11792   0.00000  Uiso   1.00
H1121  H     0.57159   0.78465   0.87141   0.00000  Uiso   1.00
H1122  H     0.57907   0.85791   0.88356   0.00000  Uiso   1.00
H1123  H     0.55000   0.85263   0.92801   0.00000  Uiso   1.00
H1124  H     0.51880   0.62196   0.61543   0.00000  Uiso   1.00
H1125  H     0.52324   0.84719   0.88207   0.00000  Uiso   1.00
H1126  H     0.93545   0.69866   0.12667   0.00000  Uiso   1.00
H1127  H     0.87101   0.73717   0.12495   0.00000  Uiso   1.00
H1128  H     0.89004   0.76706   0.08427   0.00000  Uiso   1.00
H1129  H     0.91327   0.77447   0.13172   0.00000  Uiso   1.00
H1130  H     0.51133   0.61528   0.46689   0.00000  Uiso   1.00
H1131  H     0.56358   0.62799   0.46669   0.00000  Uiso   1.00
H1132  H     0.90233   0.84518   0.53348   0.00000  Uiso   1.00
H1133  H     0.94579   0.87696   0.53401   0.00000  Uiso   1.00
H1134  H     0.84879   0.90587   0.46789   0.00000  Uiso   1.00
H1135  H     0.97912   0.66134   0.62486   0.00000  Uiso   1.00
H1136  H     0.87873   0.95058   0.46649   0.00000  Uiso   1.00
H1137  H     0.61702   0.52100   0.53368   0.00000  Uiso   1.00
H1138  H     0.63287   0.57239   0.53285   0.00000  Uiso   1.00
H1139  H     0.94745   0.87782   0.46820   0.00000  Uiso   1.00
H1140  H     0.90327   0.84705   0.46784   0.00000  Uiso   1.00
H1141  H     0.56416   0.62813   0.53276   0.00000  Uiso   1.00
H1142  H     0.51199   0.61501   0.53274   0.00000  Uiso   1.00
H1143  H     0.63173   0.57070   0.46678   0.00000  Uiso   1.00
H1144  H     0.61635   0.51916   0.46791   0.00000  Uiso   1.00
H1145  H     0.87996   0.96168   0.53192   0.00000  Uiso   1.00
H1146  H     0.52348   0.65569   0.65710   0.00000  Uiso   1.00
H1147  H     0.85763   0.91283   0.53291   0.00000  Uiso   1.00
H1148  H     0.65495   0.90176   0.96783   0.00000  Uiso   1.00
H1149  H     0.69954   0.87167   0.96645   0.00000  Uiso   1.00
H1150  H     0.77190   0.63281   0.03368   0.00000  Uiso   1.00
H1151  H     0.82316   0.61660   0.03277   0.00000  Uiso   1.00
H1152  H     0.63282   0.77186   0.96630   0.00000  Uiso   1.00
H1153  H     0.61661   0.82313   0.96720   0.00000  Uiso   1.00
H1154  H     0.90176   0.65496   0.03220   0.00000  Uiso   1.00
H1155  H     0.87166   0.69955   0.03357   0.00000  Uiso   1.00
H1156  H     0.82137   0.61780   0.96673   0.00000  Uiso   1.00
H1157  H     0.67748   0.57005   0.40408   0.00000  Uiso   1.00
H1158  H     0.76993   0.63351   0.96792   0.00000  Uiso   1.00
H1159  H     0.70995   0.87039   0.03196   0.00000  Uiso   1.00
H1160  H     0.66141   0.89340   0.03290   0.00000  Uiso   1.00
H1161  H     0.87039   0.70995   0.96806   0.00000  Uiso   1.00
H1162  H     0.89340   0.66140   0.96713   0.00000  Uiso   1.00
H1163  H     0.61782   0.82135   0.03324   0.00000  Uiso   1.00
H1164  H     0.63351   0.76991   0.03207   0.00000  Uiso   1.00
N1165  N     0.96950   0.82018   0.39575   0.00000  Uiso   1.00
N1166  N     0.70477   0.93876   0.10485   0.00000  Uiso   1.00
N1167  N     0.93875   0.70478   0.89516   0.00000  Uiso   1.00
N1168  N     0.56412   0.79041   0.10437   0.00000  Uiso   1.00
N1169  N     0.71796   0.92965   0.89666   0.00000  Uiso   1.00
N1170  N     0.79605   0.56197   0.10208   0.00000  Uiso   1.00
N1171  N     0.56198   0.79603   0.89790   0.00000  Uiso   1.00
N1172  N     0.92964   0.71797   0.10335   0.00000  Uiso   1.00
N1173  N     0.53337   0.63829   0.45934   0.00000  Uiso   1.00
N1174  N     0.93411   0.84717   0.54107   0.00000  Uiso   1.00
N1175  N     0.84945   0.93752   0.45966   0.00000  Uiso   1.00
N1176  N     0.53794   0.68424   0.60410   0.00000  Uiso   1.00
N1177  N     0.64139   0.54177   0.54066   0.00000  Uiso   1.00
N1178  N     0.93513   0.84851   0.46040   0.00000  Uiso   1.00
N1179  N     0.53390   0.63812   0.54031   0.00000  Uiso   1.00
N1180  N     0.64032   0.53987   0.45975   0.00000  Uiso   1.00
N1181  N     0.85335   0.94449   0.54011   0.00000  Uiso   1.00
N1182  N     0.68662   0.90100   0.95964   0.00000  Uiso   1.00
N1183  N     0.79248   0.60829   0.04062   0.00000  Uiso   1.00
N1184  N     0.60830   0.79245   0.95936   0.00000  Uiso   1.00
N1185  N     0.90099   0.68663   0.04038   0.00000  Uiso   1.00
N1186  N     0.79048   0.60941   0.95973   0.00000  Uiso   1.00
N1187  N     0.68560   0.54001   0.39560   0.00000  Uiso   1.00
N1188  N     0.69312   0.89724   0.04011   0.00000  Uiso   1.00
N1189  N     0.89724   0.69312   0.95991   0.00000  Uiso   1.00
N1190  N     0.60942   0.79046   0.04025   0.00000  Uiso   1.00
N1191  N     0.81139   0.95509   0.60479   0.00000  Uiso   1.00
N1192  N     0.53862   0.68371   0.39739   0.00000  Uiso   1.00
N1193  N     0.97047   0.82130   0.60307   0.00000  Uiso   1.00
N1194  N     0.82051   0.96843   0.39664   0.00000  Uiso   1.00
N1195  N     0.68767   0.54562   0.60215   0.00000  Uiso   1.00
N1196  N     0.79041   0.56412   0.89561   0.00000  Uiso   1.00
O1197  O     0.75000   0.50000   0.25000   0.00000  Uiso   1.00
O1198  O     0.75000   0.96538   0.66251   0.00000  Uiso   1.00
O1199  O     0.96538   0.75000   0.33749   0.00000  Uiso   1.00
O1200  O     0.53461   0.75000   0.66251   0.00000  Uiso   1.00
O1201  O     0.50000   0.71538   0.83749   0.00000  Uiso   1.00
O1202  O     0.50000   0.78461   0.16251   0.00000  Uiso   1.00
O1203  O     0.78461   0.50000   0.83749   0.00000  Uiso   1.00
O1204  O     0.71538   0.50000   0.16251   0.00000  Uiso   1.00
O1205  O     0.50000   0.78461   0.83749   0.00000  Uiso   1.00
O1206  O     0.50000   0.71538   0.16251   0.00000  Uiso   1.00
O1207  O     0.71538   0.50000   0.83749   0.00000  Uiso   1.00
O1208  O     0.75000   0.50000   0.75000   0.00000  Uiso   1.00
O1209  O     0.78461   0.50000   0.16251   0.00000  Uiso   1.00
O1210  O     0.70126   0.58332   0.27298   0.00000  Uiso   1.00
O1211  O     0.79873   0.91668   0.72702   0.00000  Uiso   1.00
O1212  O     0.91668   0.70126   0.27298   0.00000  Uiso   1.00
O1213  O     0.58332   0.79873   0.72702   0.00000  Uiso   1.00
O1214  O     0.79873   0.91668   0.27298   0.00000  Uiso   1.00
O1215  O     0.70126   0.58332   0.72702   0.00000  Uiso   1.00
O1216  O     0.58332   0.79873   0.27298   0.00000  Uiso   1.00
O1217  O     0.91668   0.70126   0.72702   0.00000  Uiso   1.00
O1218  O     0.70126   0.91668   0.72702   0.00000  Uiso   1.00
O1219  O     0.50000   0.75000   0.25000   0.00000  Uiso   1.00
O1220  O     0.79873   0.58332   0.27298   0.00000  Uiso   1.00
O1221  O     0.91668   0.79873   0.72702   0.00000  Uiso   1.00
O1222  O     0.58332   0.70126   0.27298   0.00000  Uiso   1.00
O1223  O     0.79873   0.58332   0.72702   0.00000  Uiso   1.00
O1224  O     0.70126   0.91668   0.27298   0.00000  Uiso   1.00
O1225  O     0.58332   0.70126   0.72702   0.00000  Uiso   1.00
O1226  O     0.91668   0.79873   0.27298   0.00000  Uiso   1.00
O1227  O     0.95126   0.83332   0.77298   0.00000  Uiso   1.00
O1228  O     0.54873   0.66668   0.22702   0.00000  Uiso   1.00
O1229  O     0.66668   0.95126   0.77298   0.00000  Uiso   1.00
O1230  O     0.50000   0.75000   0.75000   0.00000  Uiso   1.00
O1231  O     0.83332   0.54873   0.22702   0.00000  Uiso   1.00
O1232  O     0.54873   0.66668   0.77298   0.00000  Uiso   1.00
O1233  O     0.95126   0.83332   0.22702   0.00000  Uiso   1.00
O1234  O     0.83332   0.54873   0.77298   0.00000  Uiso   1.00
O1235  O     0.66668   0.95126   0.22702   0.00000  Uiso   1.00
O1236  O     0.95126   0.66668   0.22702   0.00000  Uiso   1.00
O1237  O     0.54873   0.83332   0.77298   0.00000  Uiso   1.00
O1238  O     0.66668   0.54873   0.22702   0.00000  Uiso   1.00
O1239  O     0.83332   0.95126   0.77298   0.00000  Uiso   1.00
O1240  O     0.54873   0.83332   0.22702   0.00000  Uiso   1.00
O1241  O     0.75000   0.96538   0.33749   0.00000  Uiso   1.00
O1242  O     0.95126   0.66668   0.77298   0.00000  Uiso   1.00
O1243  O     0.83332   0.95126   0.22702   0.00000  Uiso   1.00
O1244  O     0.66668   0.54873   0.77298   0.00000  Uiso   1.00
O1245  O     0.75000   0.53461   0.66251   0.00000  Uiso   1.00
O1246  O     0.53461   0.75000   0.33749   0.00000  Uiso   1.00
O1247  O     0.96538   0.75000   0.66251   0.00000  Uiso   1.00
O1248  O     0.75000   0.53461   0.33749   0.00000  Uiso   1.00
Zn1249 Zn    0.70052   0.50000   0.21730   0.00000  Uiso   1.00
Zn1250 Zn    0.54947   0.75000   0.28270   0.00000  Uiso   1.00
Zn1251 Zn    0.75000   0.95052   0.71730   0.00000  Uiso   1.00
Zn1252 Zn    0.75000   0.54947   0.28270   0.00000  Uiso   1.00
Zn1253 Zn    0.54947   0.75000   0.71730   0.00000  Uiso   1.00
Zn1254 Zn    0.95052   0.75000   0.28270   0.00000  Uiso   1.00
Zn1255 Zn    0.75000   0.54947   0.71730   0.00000  Uiso   1.00
Zn1256 Zn    0.75000   0.95052   0.28270   0.00000  Uiso   1.00
Zn1257 Zn    0.79947   0.50000   0.78270   0.00000  Uiso   1.00
Zn1258 Zn    0.50000   0.70052   0.21730   0.00000  Uiso   1.00
Zn1259 Zn    0.50000   0.79947   0.78270   0.00000  Uiso   1.00
Zn1260 Zn    0.79947   0.50000   0.21730   0.00000  Uiso   1.00
Zn1261 Zn    0.70052   0.50000   0.78270   0.00000  Uiso   1.00
Zn1262 Zn    0.50000   0.79947   0.21730   0.00000  Uiso   1.00
Zn1263 Zn    0.50000   0.70052   0.78270   0.00000  Uiso   1.00
Zn1264 Zn    0.95052   0.75000   0.71730   0.00000  Uiso   1.00
loop_
_geom_bond_atom_site_label_1
_geom_bond_atom_site_label_2
_geom_bond_distance
_geom_bond_site_symmetry_2
_ccdc_geom_bond_type
C1     C76     1.460   .     S
C1     O293    1.267   .     A
C1     O932    1.270   .     S
C2     O263    1.276   .     A
C2     O291    1.276   .     A
C2     C52     1.422   .     S
C3     C95     1.418   .     A
C3     N237    1.438   .     S
C3     C6      1.405   1_554 S
C4     C96     1.418   .     A
C4     N238    1.436   .     S
C4     C119    1.405   1_556 S
C5     N240    1.436   .     S
C5     C97     1.418   .     A
C5     C118    1.405   1_554 S
C6     N241    1.436   .     S
C6     C98     1.418   .     A
C6     C3      1.405   1_556 S
C7     C100    1.418   .     A
C7     N242    1.436   .     S
C7     C120    1.405   1_554 S
C8     H143    1.112   .     S
C8     H132    1.110   .     S
C8     N217    1.451   .     S
C8     H154    1.109   .     S
C9     H176    1.110   .     S
C9     N228    1.450   .     S
C9     H198    1.110   .     S
C9     H503    1.112   1_455 S
C10    H124    1.110   .     S
C10    H122    1.110   .     S
C10    N239    1.450   .     S
C10    H755    1.112   1_545 S
C11    H126    1.109   .     S
C11    H127    1.112   .     S
C11    N243    1.449   .     S
C11    H128    1.109   .     S
C12    H130    1.110   .     S
C12    N244    1.448   .     S
C12    H133    1.110   .     S
C12    H131    1.111   .     S
C13    C51     1.421   .     S
C13    O264    1.276   .     A
C13    O288    1.276   .     A
C14    H137    1.111   .     S
C14    H136    1.111   .     S
C14    H451    1.110   1_455 S
C14    N561    1.447   1_455 S
C15    H141    1.111   .     S
C15    H140    1.111   .     S
C15    H771    1.110   1_545 S
C15    N878    1.447   1_545 S
C16    H144    1.110   .     S
C16    H145    1.111   .     S
C16    N247    1.448   .     S
C16    H146    1.110   .     S
C17    N248    1.450   .     S
C17    H148    1.110   .     S
C17    H150    1.110   .     S
C17    H149    1.112   .     S
C18    H152    1.109   .     S
C18    N218    1.449   .     S
C18    H155    1.109   .     S
C18    H153    1.112   .     S
C19    H158    1.112   .     S
C19    H159    1.109   .     S
C19    H157    1.109   .     S
C19    N219    1.449   .     S
C20    H163    1.110   .     S
C20    H162    1.112   .     S
C20    N220    1.450   .     S
C20    H161    1.110   .     S
C21    H166    1.110   .     S
C21    H168    1.111   .     S
C21    N221    1.447   .     S
C21    H167    1.111   .     S
C22    H170    1.110   .     S
C22    N222    1.448   .     S
C22    H171    1.111   .     S
C22    H172    1.110   .     S
C23    H177    1.110   .     S
C23    N223    1.448   .     S
C23    H175    1.111   .     S
C23    H174    1.110   .     S
C24    O265    1.276   .     A
C24    O289    1.276   .     A
C24    C50     1.421   .     S
C25    H180    1.111   .     S
C25    N224    1.447   .     S
C25    H179    1.110   .     S
C25    H181    1.111   .     S
C26    O266    1.276   .     A
C26    C49     1.422   .     S
C26    O295    1.276   .     A
C27    C48     1.422   .     S
C27    O267    1.276   .     A
C27    O296    1.276   .     A
C28    O292    1.276   .     A
C28    C56     1.422   .     S
C28    O268    1.276   .     A
C29    O269    1.276   .     A
C29    C54     1.422   .     S
C29    O294    1.276   .     A
C30    C45     1.421   .     S
C30    O270    1.276   .     A
C30    O281    1.276   .     A
C31    O283    1.276   .     A
C31    O272    1.276   .     A
C31    C43     1.421   .     S
C32    O279    1.276   .     A
C32    O273    1.276   .     A
C32    C42     1.422   .     S
C33    C78     1.464   .     S
C33    O250    1.269   .     A
C33    O929    1.271   .     S
C34    C41     1.422   .     S
C34    O274    1.276   .     A
C34    O280    1.276   .     A
C35    O275    1.276   .     A
C35    C40     1.422   .     S
C35    O286    1.276   .     A
C36    O276    1.277   .     A
C36    C39     1.422   .     S
C36    O287    1.276   .     A
C37    O284    1.276   .     A
C37    C47     1.422   .     S
C37    O277    1.276   .     A
C38    C46     1.422   .     S
C38    O278    1.276   .     A
C38    O285    1.276   .     A
C39    C56     1.198   .     T
C40    C54     1.198   .     T
C41    C53     1.198   .     T
C42    C52     1.198   .     T
C43    C51     1.198   .     T
C44    C74     1.465   .     S
C44    O251    1.268   .     A
C44    O614    1.271   .     S
C45    C50     1.198   .     T
C46    C49     1.198   .     T
C47    C48     1.198   .     T
C53    C110    1.422   .     S
C55    C75     1.461   .     S
C55    O299    1.268   .     A
C55    O568    1.270   .     S
C57    C74     1.404   .     A
C57    N217    1.429   .     S
C57    C87     1.423   .     A
C58    C89     1.421   .     A
C58    N228    1.428   .     S
C58    C391    1.401   1_455 S
C59    C90     1.420   .     A
C59    N239    1.428   .     S
C59    C708    1.400   1_545 S
C60    N243    1.426   .     S
C60    C78     1.401   .     A
C60    C91     1.421   .     A
C61    C83     1.417   .     A
C61    N244    1.429   .     S
C61    C390    1.404   1_455 S
C62    N245    1.428   .     S
C62    C75     1.402   .     A
C62    C84     1.416   .     A
C63    C76     1.402   .     A
C63    C85     1.417   .     A
C63    N246    1.428   .     S
C64    C86     1.416   .     A
C64    N247    1.429   .     S
C64    C710    1.404   1_545 S
C65    C96     1.420   .     A
C65    N248    1.429   .     S
C65    C711    1.400   1_545 S
C66    C81     1.465   .     S
C66    O253    1.269   .     A
C66    O257    1.271   .     S
C67    N218    1.426   .     S
C67    C97     1.421   .     A
C67    C712    1.402   .     S
C68    C98     1.421   .     A
C68    N219    1.426   .     S
C68    C397    1.402   .     S
C69    C100    1.420   .     A
C69    N220    1.428   .     S
C69    C398    1.400   1_455 S
C70    C79     1.402   .     A
C70    N221    1.428   .     S
C70    C92     1.417   .     A
C71    C93     1.416   .     A
C71    N222    1.429   .     S
C71    C80     1.404   .     A
C72    C94     1.416   .     A
C72    C81     1.404   .     A
C72    N223    1.429   .     S
C73    C95     1.417   .     A
C73    C82     1.402   .     A
C73    N224    1.428   .     S
C74    C377    1.404   .     S
C75    C374    1.401   .     S
C76    C691    1.400   .     S
C77    C82     1.460   .     S
C77    O574    1.267   .     A
C77    O570    1.270   .     A
C78    C696    1.404   .     S
C79    C88     1.460   .     S
C79    C697    1.400   .     S
C80    C99     1.465   .     S
C80    C699    1.402   1_545 S
C81    C384    1.402   1_455 S
C82    C385    1.400   .     S
C83    C109    1.417   .     A
C83    C417    1.423   1_455 S
C84    C102    1.423   .     A
C84    C111    1.415   .     A
C85    C103    1.425   .     A
C85    C112    1.418   .     A
C86    C113    1.416   .     A
C86    C736    1.423   1_545 S
C87    C101    1.427   .     A
C87    C114    1.420   .     A
C88    O887    1.270   .     S
C88    O891    1.267   .     S
C89    C115    1.417   .     A
C89    C418    1.427   1_455 S
C90    C116    1.418   .     A
C90    C735    1.428   1_545 S
C91    C117    1.418   .     A
C91    C104    1.426   .     A
C92    C118    1.418   .     A
C92    C737    1.425   .     S
C93    C106    1.423   .     A
C93    C119    1.416   .     A
C94    C120    1.416   .     A
C94    C107    1.423   .     A
C95    C424    1.425   .     S
C96    C105    1.428   .     A
C97    C738    1.427   .     S
C98    C423    1.427   .     S
C99    O261    1.271   .     A
C99    O256    1.269   .     A
C100   C108    1.428   .     A
C101   C102    1.422   .     A
C101   C399    1.423   .     S
C102   C405    1.427   .     S
C103   C104    1.421   .     A
C103   C722    1.428   .     S
C104   C718    1.423   .     S
C105   C724    1.425   1_545 S
C105   C106    1.421   1_556 S
C106   C729    1.427   1_545 S
C106   C105    1.421   1_554 S
C107   C414    1.427   1_455 S
C107   C108    1.421   1_556 S
C108   C411    1.425   1_455 S
C108   C107    1.421   1_554 S
C109   N225    1.438   .     S
C109   C115    1.406   .     A
C110   O290    1.276   .     A
C110   O262    1.276   .     A
C111   C114    1.405   .     A
C111   N226    1.439   .     S
C112   N227    1.438   .     S
C112   C117    1.405   .     A
C113   N229    1.438   .     S
C113   C116    1.405   .     A
C114   N230    1.435   .     S
C115   N231    1.436   .     S
C116   N232    1.436   .     S
C117   N233    1.436   .     S
C118   N234    1.438   .     S
C118   C5      1.405   1_556 S
C119   N235    1.438   .     S
C119   C4      1.405   1_554 S
C120   N236    1.438   .     S
C120   C7      1.405   1_556 S
H121   N217    1.031   .     S
H123   C642    1.112   .     S
H125   N243    1.031   .     S
H129   N244    1.031   .     S
H134   N245    1.030   .     S
H135   C330    1.110   .     S
H138   N246    1.030   .     S
H139   C647    1.110   .     S
H142   N247    1.031   .     S
H147   N248    1.031   .     S
H151   N218    1.031   .     S
H156   N219    1.031   .     S
H160   N220    1.031   .     S
H164   N221    1.030   .     S
H165   N228    1.031   .     S
H169   N222    1.031   .     S
H173   N223    1.031   .     S
H178   N224    1.030   .     S
H182   N225    1.045   .     S
H183   N225    1.045   .     S
H184   N226    1.045   .     S
H185   N226    1.045   .     S
H186   N227    1.045   .     S
H187   C325    1.112   .     S
H188   N227    1.045   .     S
H189   N229    1.045   .     S
H190   N229    1.045   .     S
H191   N230    1.045   .     S
H192   N230    1.045   .     S
H193   N231    1.045   .     S
H194   N231    1.045   .     S
H195   N232    1.045   .     S
H196   N232    1.045   .     S
H197   N233    1.045   .     S
H199   N233    1.045   .     S
H200   N234    1.045   .     S
H201   N234    1.045   .     S
H202   N235    1.045   .     S
H203   N235    1.045   .     S
H204   N236    1.045   .     S
H205   N236    1.045   .     S
H206   N237    1.045   .     S
H207   N237    1.045   .     S
H208   N238    1.045   .     S
H209   N239    1.031   .     S
H210   N238    1.045   .     S
H211   N240    1.045   .     S
H212   N240    1.045   .     S
H213   N241    1.045   .     S
H214   N241    1.045   .     S
H215   N242    1.045   .     S
H216   N242    1.045   .     S
N245   C330    1.447   .     S
N246   C647    1.447   .     S
O249   Zn301   1.936   .     S
O249   Zn312   1.936   .     S
O249   Zn304   1.936   .     S
O249   Zn940   1.936   1_545 S
O250   Zn303   1.952   .     S
O251   Zn306   1.953   .     S
O252   Zn305   1.953   .     S
O252   C371    1.270   1_455 S
O253   Zn315   1.952   .     S
O254   Zn314   1.952   .     S
O254   C393    1.270   1_455 A
O255   Zn309   1.952   .     S
O255   C720    1.270   1_545 S
O256   Zn301   1.952   .     S
O257   Zn311   1.952   .     S
O258   Zn310   1.952   .     S
O258   C393    1.267   1_455 A
O259   Zn313   1.953   .     S
O259   C720    1.267   1_545 S
O260   Zn313   1.936   .     S
O260   Zn307   1.936   .     S
O260   Zn309   1.936   .     S
O260   Zn935   1.936   1_545 S
O261   Zn312   1.953   .     S
O262   Zn304   1.914   .     S
O263   Zn303   1.914   .     S
O264   Zn306   1.914   .     S
O265   Zn305   1.914   .     S
O266   Zn308   1.914   .     S
O267   Zn307   1.914   .     S
O268   Zn302   1.914   .     S
O269   Zn316   1.914   .     S
O270   Zn303   1.914   .     S
O271   Zn622   1.936   1_455 S
O271   Zn310   1.936   .     S
O271   Zn314   1.936   .     S
O271   Zn302   1.936   .     S
O272   Zn304   1.914   .     S
O273   Zn316   1.914   .     S
O274   Zn302   1.914   .     S
O275   Zn307   1.914   .     S
O276   Zn308   1.914   .     S
O277   Zn305   1.914   .     S
O278   Zn306   1.914   .     S
O279   Zn627   1.914   .     S
O280   Zn310   1.914   .     S
O281   Zn945   1.914   .     S
O282   Zn305   1.936   .     S
O282   Zn311   1.936   .     S
O282   Zn315   1.936   .     S
O282   Zn632   1.936   1_455 S
O283   Zn312   1.914   .     S
O284   Zn315   1.914   .     S
O285   Zn630   1.914   .     S
O286   Zn309   1.914   .     S
O287   Zn933   1.914   .     S
O288   Zn626   1.914   .     S
O289   Zn311   1.914   .     S
O290   Zn301   1.914   .     S
O291   Zn941   1.914   .     S
O292   Zn314   1.914   .     S
O293   Zn308   1.952   .     S
O294   Zn631   1.914   .     S
O295   Zn944   1.914   .     S
O296   Zn313   1.914   .     S
O297   Zn307   1.952   .     S
O297   C665    1.271   1_545 S
O298   Zn302   1.952   .     S
O298   C360    1.271   1_455 S
O299   Zn316   1.952   .     S
O300   Zn304   1.952   .     S
O300   C633    1.270   1_545 S
Zn301  O919    1.914   1_545 S
Zn303  O892    1.936   .     S
Zn306  O587    1.936   .     S
Zn308  O881    1.936   .     S
Zn309  O923    1.914   1_545 S
Zn310  O604    1.914   1_455 S
Zn311  O595    1.914   1_455 S
Zn312  O927    1.914   1_545 S
Zn313  O913    1.914   1_545 S
Zn314  O601    1.914   1_455 S
Zn315  O610    1.914   1_455 S
Zn316  O598    1.936   .     S
C317   C392    1.460   .     S
C317   O609    1.267   .     A
C317   O1248   1.270   .     S
C318   O579    1.276   .     A
C318   O607    1.276   .     A
C318   C368    1.422   .     S
C319   C411    1.418   .     A
C319   N553    1.438   .     S
C319   C322    1.405   1_554 S
C320   C412    1.418   .     A
C320   N554    1.436   .     S
C320   C435    1.405   1_556 S
C321   N556    1.436   .     S
C321   C413    1.418   .     A
C321   C434    1.405   1_554 S
C322   N557    1.436   .     S
C322   C414    1.418   .     A
C322   C319    1.405   1_556 S
C323   C416    1.418   .     A
C323   N558    1.436   .     S
C323   C436    1.405   1_554 S
C324   H459    1.112   .     S
C324   H448    1.110   .     S
C324   N533    1.451   .     S
C324   H470    1.109   .     S
C325   H492    1.110   .     S
C325   N544    1.450   .     S
C325   H514    1.110   .     S
C326   H440    1.110   .     S
C326   H438    1.110   .     S
C326   N555    1.450   .     S
C326   H1071   1.112   1_545 S
C327   H442    1.109   .     S
C327   H443    1.112   .     S
C327   N559    1.449   .     S
C327   H444    1.109   .     S
C328   H446    1.110   .     S
C328   N560    1.448   .     S
C328   H449    1.110   .     S
C328   H447    1.111   .     S
C329   C367    1.421   .     S
C329   O580    1.276   .     A
C329   O604    1.276   .     A
C330   H453    1.111   .     S
C330   H452    1.111   .     S
C331   H457    1.111   .     S
C331   H456    1.111   .     S
C331   H1087   1.110   1_545 S
C331   N1194   1.447   1_545 S
C332   H460    1.110   .     S
C332   H461    1.111   .     S
C332   N563    1.448   .     S
C332   H462    1.110   .     S
C333   N564    1.450   .     S
C333   H464    1.110   .     S
C333   H466    1.110   .     S
C333   H465    1.112   .     S
C334   H468    1.109   .     S
C334   N534    1.449   .     S
C334   H471    1.109   .     S
C334   H469    1.112   .     S
C335   H474    1.112   .     S
C335   H475    1.109   .     S
C335   H473    1.109   .     S
C335   N535    1.449   .     S
C336   H479    1.110   .     S
C336   H478    1.112   .     S
C336   N536    1.450   .     S
C336   H477    1.110   .     S
C337   H482    1.110   .     S
C337   H484    1.111   .     S
C337   N537    1.447   .     S
C337   H483    1.111   .     S
C338   H486    1.110   .     S
C338   N538    1.448   .     S
C338   H487    1.111   .     S
C338   H488    1.110   .     S
C339   H493    1.110   .     S
C339   N539    1.448   .     S
C339   H491    1.111   .     S
C339   H490    1.110   .     S
C340   O581    1.276   .     A
C340   O605    1.276   .     A
C340   C366    1.421   .     S
C341   H496    1.111   .     S
C341   N540    1.447   .     S
C341   H495    1.110   .     S
C341   H497    1.111   .     S
C342   O582    1.276   .     A
C342   C365    1.422   .     S
C342   O611    1.276   .     A
C343   C364    1.422   .     S
C343   O583    1.276   .     A
C343   O612    1.276   .     A
C344   O608    1.276   .     A
C344   C372    1.422   .     S
C344   O584    1.276   .     A
C345   O585    1.276   .     A
C345   C370    1.422   .     S
C345   O610    1.276   .     A
C346   C361    1.421   .     S
C346   O586    1.276   .     A
C346   O597    1.276   .     A
C347   O599    1.276   .     A
C347   O588    1.276   .     A
C347   C359    1.421   .     S
C348   O595    1.276   .     A
C348   O589    1.276   .     A
C348   C358    1.422   .     S
C349   C394    1.464   .     S
C349   O566    1.269   .     A
C349   O1245   1.271   .     S
C350   C357    1.422   .     S
C350   O590    1.276   .     A
C350   O596    1.276   .     A
C351   O591    1.276   .     A
C351   C356    1.422   .     S
C351   O602    1.276   .     A
C352   O592    1.277   .     A
C352   C355    1.422   .     S
C352   O603    1.276   .     A
C353   O600    1.276   .     A
C353   C363    1.422   .     S
C353   O593    1.276   .     A
C354   C362    1.422   .     S
C354   O594    1.276   .     A
C354   O601    1.276   .     A
C355   C372    1.198   .     T
C356   C370    1.198   .     T
C357   C369    1.198   .     T
C358   C368    1.198   .     T
C359   C367    1.198   .     T
C360   C390    1.465   .     S
C360   O567    1.268   .     A
C360   O298    1.271   1_655 S
C361   C366    1.198   .     T
C362   C365    1.198   .     T
C363   C364    1.198   .     T
C369   C426    1.422   .     S
C371   C391    1.461   .     S
C371   O615    1.268   .     A
C371   O252    1.270   1_655 S
C373   C390    1.404   .     A
C373   N533    1.429   .     S
C373   C403    1.423   .     A
C374   C405    1.421   .     A
C374   N544    1.428   .     S
C375   C406    1.420   .     A
C375   N555    1.428   .     S
C375   C1024   1.400   1_545 S
C376   N559    1.426   .     S
C376   C394    1.401   .     A
C376   C407    1.421   .     A
C377   C399    1.417   .     A
C377   N560    1.429   .     S
C378   N561    1.428   .     S
C378   C391    1.402   .     A
C378   C400    1.416   .     A
C379   C392    1.402   .     A
C379   C401    1.417   .     A
C379   N562    1.428   .     S
C380   C402    1.416   .     A
C380   N563    1.429   .     S
C380   C1026   1.404   1_545 S
C381   C412    1.420   .     A
C381   N564    1.429   .     S
C381   C1027   1.400   1_545 S
C382   C397    1.465   .     S
C382   O569    1.269   .     A
C382   O573    1.271   .     S
C383   N534    1.426   .     S
C383   C413    1.421   .     A
C383   C1028   1.402   .     S
C384   C414    1.421   .     A
C384   N535    1.426   .     S
C384   C81     1.402   1_655 S
C385   C416    1.420   .     A
C385   N536    1.428   .     S
C386   C395    1.402   .     A
C386   N537    1.428   .     S
C386   C408    1.417   .     A
C387   C409    1.416   .     A
C387   N538    1.429   .     S
C387   C396    1.404   .     A
C388   C410    1.416   .     A
C388   C397    1.404   .     A
C388   N539    1.429   .     S
C389   C411    1.417   .     A
C389   C398    1.402   .     A
C389   N540    1.428   .     S
C390   C61     1.404   1_655 S
C391   C58     1.401   1_655 S
C392   C1007   1.400   .     S
C393   C398    1.460   .     S
C393   O258    1.267   1_655 A
C393   O254    1.270   1_655 A
C394   C1012   1.404   .     S
C395   C404    1.460   .     S
C395   C1013   1.400   .     S
C396   C415    1.465   .     S
C396   C1015   1.402   1_545 S
C398   C69     1.400   1_655 S
C399   C425    1.417   .     A
C400   C418    1.423   .     A
C400   C427    1.415   .     A
C401   C419    1.425   .     A
C401   C428    1.418   .     A
C402   C429    1.416   .     A
C402   C1052   1.423   1_545 S
C403   C417    1.427   .     A
C403   C430    1.420   .     A
C404   O1203   1.270   .     S
C404   O1207   1.267   .     S
C405   C431    1.417   .     A
C406   C432    1.418   .     A
C406   C1051   1.428   1_545 S
C407   C433    1.418   .     A
C407   C420    1.426   .     A
C408   C434    1.418   .     A
C408   C1053   1.425   .     S
C409   C422    1.423   .     A
C409   C435    1.416   .     A
C410   C436    1.416   .     A
C410   C423    1.423   .     A
C411   C108    1.425   1_655 S
C412   C421    1.428   .     A
C413   C1054   1.427   .     S
C414   C107    1.427   1_655 S
C415   O577    1.271   .     A
C415   O572    1.269   .     A
C416   C424    1.428   .     A
C417   C418    1.422   .     A
C417   C83     1.423   1_655 S
C418   C89     1.427   1_655 S
C419   C420    1.421   .     A
C419   C1038   1.428   .     S
C420   C1034   1.423   .     S
C421   C1040   1.425   1_545 S
C421   C422    1.421   1_556 S
C422   C1045   1.427   1_545 S
C422   C421    1.421   1_554 S
C423   C424    1.421   1_556 S
C424   C423    1.421   1_554 S
C425   N541    1.438   .     S
C425   C431    1.406   .     A
C426   O606    1.276   .     A
C426   O578    1.276   .     A
C427   C430    1.405   .     A
C427   N542    1.439   .     S
C428   N543    1.438   .     S
C428   C433    1.405   .     A
C429   N545    1.438   .     S
C429   C432    1.405   .     A
C430   N546    1.435   .     S
C431   N547    1.436   .     S
C432   N548    1.436   .     S
C433   N549    1.436   .     S
C434   N550    1.438   .     S
C434   C321    1.405   1_556 S
C435   N551    1.438   .     S
C435   C320    1.405   1_554 S
C436   N552    1.438   .     S
C436   C323    1.405   1_556 S
H437   N533    1.031   .     S
H439   C958    1.112   .     S
H441   N559    1.031   .     S
H445   N560    1.031   .     S
H450   N561    1.030   .     S
H451   C14     1.110   1_655 S
H454   N562    1.030   .     S
H455   C963    1.110   .     S
H458   N563    1.031   .     S
H463   N564    1.031   .     S
H467   N534    1.031   .     S
H472   N535    1.031   .     S
H476   N536    1.031   .     S
H480   N537    1.030   .     S
H481   N544    1.031   .     S
H485   N538    1.031   .     S
H489   N539    1.031   .     S
H494   N540    1.030   .     S
H498   N541    1.045   .     S
H499   N541    1.045   .     S
H500   N542    1.045   .     S
H501   N542    1.045   .     S
H502   N543    1.045   .     S
H503   C9      1.112   1_655 S
H504   N543    1.045   .     S
H505   N545    1.045   .     S
H506   N545    1.045   .     S
H507   N546    1.045   .     S
H508   N546    1.045   .     S
H509   N547    1.045   .     S
H510   N547    1.045   .     S
H511   N548    1.045   .     S
H512   N548    1.045   .     S
H513   N549    1.045   .     S
H515   N549    1.045   .     S
H516   N550    1.045   .     S
H517   N550    1.045   .     S
H518   N551    1.045   .     S
H519   N551    1.045   .     S
H520   N552    1.045   .     S
H521   N552    1.045   .     S
H522   N553    1.045   .     S
H523   N553    1.045   .     S
H524   N554    1.045   .     S
H525   N555    1.031   .     S
H526   N554    1.045   .     S
H527   N556    1.045   .     S
H528   N556    1.045   .     S
H529   N557    1.045   .     S
H530   N557    1.045   .     S
H531   N558    1.045   .     S
H532   N558    1.045   .     S
N561   C14     1.447   1_655 S
N562   C963    1.447   .     S
O565   Zn617   1.936   .     S
O565   Zn628   1.936   .     S
O565   Zn620   1.936   .     S
O565   Zn1256  1.936   1_545 S
O566   Zn619   1.952   .     S
O567   Zn622   1.953   .     S
O568   Zn621   1.953   .     S
O569   Zn631   1.952   .     S
O570   Zn630   1.952   .     S
O571   Zn625   1.952   .     S
O571   C1036   1.270   1_545 S
O572   Zn617   1.952   .     S
O573   Zn627   1.952   .     S
O574   Zn626   1.952   .     S
O575   Zn629   1.953   .     S
O575   C1036   1.267   1_545 S
O576   Zn629   1.936   .     S
O576   Zn623   1.936   .     S
O576   Zn625   1.936   .     S
O576   Zn1251  1.936   1_545 S
O577   Zn628   1.953   .     S
O578   Zn620   1.914   .     S
O579   Zn619   1.914   .     S
O580   Zn622   1.914   .     S
O581   Zn621   1.914   .     S
O582   Zn624   1.914   .     S
O583   Zn623   1.914   .     S
O584   Zn618   1.914   .     S
O585   Zn632   1.914   .     S
O586   Zn619   1.914   .     S
O587   Zn626   1.936   .     S
O587   Zn630   1.936   .     S
O587   Zn618   1.936   .     S
O588   Zn620   1.914   .     S
O589   Zn632   1.914   .     S
O590   Zn618   1.914   .     S
O591   Zn623   1.914   .     S
O592   Zn624   1.914   .     S
O593   Zn621   1.914   .     S
O594   Zn622   1.914   .     S
O595   Zn311   1.914   1_655 S
O596   Zn626   1.914   .     S
O597   Zn1261  1.914   .     S
O598   Zn621   1.936   .     S
O598   Zn627   1.936   .     S
O598   Zn631   1.936   .     S
O599   Zn628   1.914   .     S
O600   Zn631   1.914   .     S
O601   Zn314   1.914   1_655 S
O602   Zn625   1.914   .     S
O603   Zn1249  1.914   .     S
O604   Zn310   1.914   1_655 S
O605   Zn627   1.914   .     S
O606   Zn617   1.914   .     S
O607   Zn1257  1.914   .     S
O608   Zn630   1.914   .     S
O609   Zn624   1.952   .     S
O610   Zn315   1.914   1_655 S
O611   Zn1260  1.914   .     S
O612   Zn629   1.914   .     S
O613   Zn623   1.952   .     S
O613   C981    1.271   1_545 S
O614   Zn618   1.952   .     S
O615   Zn632   1.952   .     S
O616   Zn620   1.952   .     S
O616   C949    1.270   1_545 S
Zn617  O1235   1.914   1_545 S
Zn619  O1208   1.936   .     S
Zn622  O271    1.936   1_655 S
Zn624  O1197   1.936   .     S
Zn625  O1239   1.914   1_545 S
Zn628  O1243   1.914   1_545 S
Zn629  O1229   1.914   1_545 S
Zn632  O282    1.936   1_655 S
C633   C708    1.460   .     S
C633   O925    1.267   .     A
C633   O300    1.270   1_565 S
C634   O895    1.276   .     A
C634   O923    1.276   .     A
C634   C684    1.422   .     S
C635   C727    1.418   .     A
C635   N869    1.438   .     S
C635   C638    1.405   1_554 S
C636   C728    1.418   .     A
C636   N870    1.436   .     S
C636   C751    1.405   1_556 S
C637   N872    1.436   .     S
C637   C729    1.418   .     A
C637   C750    1.405   1_554 S
C638   N873    1.436   .     S
C638   C730    1.418   .     A
C638   C635    1.405   1_556 S
C639   C732    1.418   .     A
C639   N874    1.436   .     S
C639   C752    1.405   1_554 S
C640   H775    1.112   .     S
C640   H764    1.110   .     S
C640   N849    1.451   .     S
C640   H786    1.109   .     S
C641   H808    1.110   .     S
C641   N860    1.450   .     S
C641   H830    1.110   .     S
C641   H1135   1.112   1_455 S
C642   H756    1.110   .     S
C642   H754    1.110   .     S
C642   N871    1.450   .     S
C643   H758    1.109   .     S
C643   H759    1.112   .     S
C643   N875    1.449   .     S
C643   H760    1.109   .     S
C644   H762    1.110   .     S
C644   N876    1.448   .     S
C644   H765    1.110   .     S
C644   H763    1.111   .     S
C645   C683    1.421   .     S
C645   O896    1.276   .     A
C645   O920    1.276   .     A
C646   H769    1.111   .     S
C646   H768    1.111   .     S
C646   H1083   1.110   1_455 S
C646   N1193   1.447   1_455 S
C647   H773    1.111   .     S
C647   H772    1.111   .     S
C648   H776    1.110   .     S
C648   H777    1.111   .     S
C648   N879    1.448   .     S
C648   H778    1.110   .     S
C649   N880    1.450   .     S
C649   H780    1.110   .     S
C649   H782    1.110   .     S
C649   H781    1.112   .     S
C650   H784    1.109   .     S
C650   N850    1.449   .     S
C650   H787    1.109   .     S
C650   H785    1.112   .     S
C651   H790    1.112   .     S
C651   H791    1.109   .     S
C651   H789    1.109   .     S
C651   N851    1.449   .     S
C652   H795    1.110   .     S
C652   H794    1.112   .     S
C652   N852    1.450   .     S
C652   H793    1.110   .     S
C653   H798    1.110   .     S
C653   H800    1.111   .     S
C653   N853    1.447   .     S
C653   H799    1.111   .     S
C654   H802    1.110   .     S
C654   N854    1.448   .     S
C654   H803    1.111   .     S
C654   H804    1.110   .     S
C655   H809    1.110   .     S
C655   N855    1.448   .     S
C655   H807    1.111   .     S
C655   H806    1.110   .     S
C656   O897    1.276   .     A
C656   O921    1.276   .     A
C656   C682    1.421   .     S
C657   H812    1.111   .     S
C657   N856    1.447   .     S
C657   H811    1.110   .     S
C657   H813    1.111   .     S
C658   O898    1.276   .     A
C658   C681    1.422   .     S
C658   O927    1.276   .     A
C659   C680    1.422   .     S
C659   O899    1.276   .     A
C659   O928    1.276   .     A
C660   O924    1.276   .     A
C660   C688    1.422   .     S
C660   O900    1.276   .     A
C661   O901    1.276   .     A
C661   C686    1.422   .     S
C661   O926    1.276   .     A
C662   C677    1.421   .     S
C662   O902    1.276   .     A
C662   O913    1.276   .     A
C663   O915    1.276   .     A
C663   O904    1.276   .     A
C663   C675    1.421   .     S
C664   O911    1.276   .     A
C664   O905    1.276   .     A
C664   C674    1.422   .     S
C665   C710    1.464   .     S
C665   O882    1.269   .     A
C665   O297    1.271   1_565 S
C666   C673    1.422   .     S
C666   O906    1.276   .     A
C666   O912    1.276   .     A
C667   O907    1.276   .     A
C667   C672    1.422   .     S
C667   O918    1.276   .     A
C668   O908    1.277   .     A
C668   C671    1.422   .     S
C668   O919    1.276   .     A
C669   O916    1.276   .     A
C669   C679    1.422   .     S
C669   O909    1.276   .     A
C670   C678    1.422   .     S
C670   O910    1.276   .     A
C670   O917    1.276   .     A
C671   C688    1.198   .     T
C672   C686    1.198   .     T
C673   C685    1.198   .     T
C674   C684    1.198   .     T
C675   C683    1.198   .     T
C676   C706    1.465   .     S
C676   O883    1.268   .     A
C676   O1246   1.271   .     S
C677   C682    1.198   .     T
C678   C681    1.198   .     T
C679   C680    1.198   .     T
C685   C742    1.422   .     S
C687   C707    1.461   .     S
C687   O931    1.268   .     A
C687   O1200   1.270   .     S
C689   C706    1.404   .     A
C689   N849    1.429   .     S
C689   C719    1.423   .     A
C690   C721    1.421   .     A
C690   N860    1.428   .     S
C690   C1023   1.401   1_455 S
C691   C722    1.420   .     A
C691   N871    1.428   .     S
C692   N875    1.426   .     S
C692   C710    1.401   .     A
C692   C723    1.421   .     A
C693   C715    1.417   .     A
C693   N876    1.429   .     S
C693   C1022   1.404   1_455 S
C694   N877    1.428   .     S
C694   C707    1.402   .     A
C694   C716    1.416   .     A
C695   C708    1.402   .     A
C695   C717    1.417   .     A
C695   N878    1.428   .     S
C696   C718    1.416   .     A
C696   N879    1.429   .     S
C697   C728    1.420   .     A
C697   N880    1.429   .     S
C698   C713    1.465   .     S
C698   O885    1.269   .     A
C698   O889    1.271   .     S
C699   N850    1.426   .     S
C699   C729    1.421   .     A
C699   C80     1.402   1_565 S
C700   C730    1.421   .     A
C700   N851    1.426   .     S
C700   C1029   1.402   .     S
C701   C732    1.420   .     A
C701   N852    1.428   .     S
C701   C1030   1.400   1_455 S
C702   C711    1.402   .     A
C702   N853    1.428   .     S
C702   C724    1.417   .     A
C703   C725    1.416   .     A
C703   N854    1.429   .     S
C703   C712    1.404   .     A
C704   C726    1.416   .     A
C704   C713    1.404   .     A
C704   N855    1.429   .     S
C705   C727    1.417   .     A
C705   C714    1.402   .     A
C705   N856    1.428   .     S
C706   C1009   1.404   .     S
C707   C1006   1.401   .     S
C708   C59     1.400   1_565 S
C709   C714    1.460   .     S
C709   O1206   1.267   .     A
C709   O1202   1.270   .     A
C710   C64     1.404   1_565 S
C711   C720    1.460   .     S
C711   C65     1.400   1_565 S
C712   C731    1.465   .     S
C713   C1016   1.402   1_455 S
C714   C1017   1.400   .     S
C715   C741    1.417   .     A
C715   C1049   1.423   1_455 S
C716   C734    1.423   .     A
C716   C743    1.415   .     A
C717   C735    1.425   .     A
C717   C744    1.418   .     A
C718   C745    1.416   .     A
C719   C733    1.427   .     A
C719   C746    1.420   .     A
C720   O255    1.270   1_565 S
C720   O259    1.267   1_565 S
C721   C747    1.417   .     A
C721   C1050   1.427   1_455 S
C722   C748    1.418   .     A
C723   C749    1.418   .     A
C723   C736    1.426   .     A
C724   C750    1.418   .     A
C724   C105    1.425   1_565 S
C725   C738    1.423   .     A
C725   C751    1.416   .     A
C726   C752    1.416   .     A
C726   C739    1.423   .     A
C727   C1056   1.425   .     S
C728   C737    1.428   .     A
C729   C106    1.427   1_565 S
C730   C1055   1.427   .     S
C731   O893    1.271   .     A
C731   O888    1.269   .     A
C732   C740    1.428   .     A
C733   C734    1.422   .     A
C733   C1031   1.423   .     S
C734   C1037   1.427   .     S
C735   C736    1.421   .     A
C735   C90     1.428   1_565 S
C736   C86     1.423   1_565 S
C737   C738    1.421   1_556 S
C738   C737    1.421   1_554 S
C739   C1046   1.427   1_455 S
C739   C740    1.421   1_556 S
C740   C1043   1.425   1_455 S
C740   C739    1.421   1_554 S
C741   N857    1.438   .     S
C741   C747    1.406   .     A
C742   O922    1.276   .     A
C742   O894    1.276   .     A
C743   C746    1.405   .     A
C743   N858    1.439   .     S
C744   N859    1.438   .     S
C744   C749    1.405   .     A
C745   N861    1.438   .     S
C745   C748    1.405   .     A
C746   N862    1.435   .     S
C747   N863    1.436   .     S
C748   N864    1.436   .     S
C749   N865    1.436   .     S
C750   N866    1.438   .     S
C750   C637    1.405   1_556 S
C751   N867    1.438   .     S
C751   C636    1.405   1_554 S
C752   N868    1.438   .     S
C752   C639    1.405   1_556 S
H753   N849    1.031   .     S
H755   C10     1.112   1_565 S
H757   N875    1.031   .     S
H761   N876    1.031   .     S
H766   N877    1.030   .     S
H767   C962    1.110   .     S
H770   N878    1.030   .     S
H771   C15     1.110   1_565 S
H774   N879    1.031   .     S
H779   N880    1.031   .     S
H783   N850    1.031   .     S
H788   N851    1.031   .     S
H792   N852    1.031   .     S
H796   N853    1.030   .     S
H797   N860    1.031   .     S
H801   N854    1.031   .     S
H805   N855    1.031   .     S
H810   N856    1.030   .     S
H814   N857    1.045   .     S
H815   N857    1.045   .     S
H816   N858    1.045   .     S
H817   N858    1.045   .     S
H818   N859    1.045   .     S
H819   C957    1.112   .     S
H820   N859    1.045   .     S
H821   N861    1.045   .     S
H822   N861    1.045   .     S
H823   N862    1.045   .     S
H824   N862    1.045   .     S
H825   N863    1.045   .     S
H826   N863    1.045   .     S
H827   N864    1.045   .     S
H828   N864    1.045   .     S
H829   N865    1.045   .     S
H831   N865    1.045   .     S
H832   N866    1.045   .     S
H833   N866    1.045   .     S
H834   N867    1.045   .     S
H835   N867    1.045   .     S
H836   N868    1.045   .     S
H837   N868    1.045   .     S
H838   N869    1.045   .     S
H839   N869    1.045   .     S
H840   N870    1.045   .     S
H841   N871    1.031   .     S
H842   N870    1.045   .     S
H843   N872    1.045   .     S
H844   N872    1.045   .     S
H845   N873    1.045   .     S
H846   N873    1.045   .     S
H847   N874    1.045   .     S
H848   N874    1.045   .     S
N877   C962    1.447   .     S
N878   C15     1.447   1_565 S
O881   Zn933   1.936   .     S
O881   Zn944   1.936   .     S
O881   Zn936   1.936   .     S
O882   Zn935   1.952   .     S
O883   Zn938   1.953   .     S
O884   Zn937   1.953   .     S
O884   C1003   1.270   1_455 S
O885   Zn947   1.952   .     S
O886   Zn946   1.952   .     S
O886   C1025   1.270   1_455 A
O887   Zn941   1.952   .     S
O888   Zn933   1.952   .     S
O889   Zn943   1.952   .     S
O890   Zn942   1.952   .     S
O890   C1025   1.267   1_455 A
O891   Zn945   1.953   .     S
O892   Zn945   1.936   .     S
O892   Zn939   1.936   .     S
O892   Zn941   1.936   .     S
O893   Zn944   1.953   .     S
O894   Zn936   1.914   .     S
O895   Zn935   1.914   .     S
O896   Zn938   1.914   .     S
O897   Zn937   1.914   .     S
O898   Zn940   1.914   .     S
O899   Zn939   1.914   .     S
O900   Zn934   1.914   .     S
O901   Zn948   1.914   .     S
O902   Zn935   1.914   .     S
O903   Zn1254  1.936   1_455 S
O903   Zn942   1.936   .     S
O903   Zn946   1.936   .     S
O903   Zn934   1.936   .     S
O904   Zn936   1.914   .     S
O905   Zn948   1.914   .     S
O906   Zn934   1.914   .     S
O907   Zn939   1.914   .     S
O908   Zn940   1.914   .     S
O909   Zn937   1.914   .     S
O910   Zn938   1.914   .     S
O911   Zn1259  1.914   .     S
O912   Zn942   1.914   .     S
O913   Zn313   1.914   1_565 S
O914   Zn937   1.936   .     S
O914   Zn943   1.936   .     S
O914   Zn947   1.936   .     S
O914   Zn1264  1.936   1_455 S
O915   Zn944   1.914   .     S
O916   Zn947   1.914   .     S
O917   Zn1262  1.914   .     S
O918   Zn941   1.914   .     S
O919   Zn301   1.914   1_565 S
O920   Zn1258  1.914   .     S
O921   Zn943   1.914   .     S
O922   Zn933   1.914   .     S
O923   Zn309   1.914   1_565 S
O924   Zn946   1.914   .     S
O925   Zn940   1.952   .     S
O926   Zn1263  1.914   .     S
O927   Zn312   1.914   1_565 S
O928   Zn945   1.914   .     S
O929   Zn939   1.952   .     S
O930   Zn934   1.952   .     S
O930   C992    1.271   1_455 S
O931   Zn948   1.952   .     S
O932   Zn936   1.952   .     S
Zn935  O260    1.936   1_565 S
Zn938  O1219   1.936   .     S
Zn940  O249    1.936   1_565 S
Zn942  O1236   1.914   1_455 S
Zn943  O1227   1.914   1_455 S
Zn946  O1233   1.914   1_455 S
Zn947  O1242   1.914   1_455 S
Zn948  O1230   1.936   .     S
C949   C1024   1.460   .     S
C949   O1241   1.267   .     A
C949   O616    1.270   1_565 S
C950   O1211   1.276   .     A
C950   O1239   1.276   .     A
C950   C1000   1.422   .     S
C951   C1043   1.418   .     A
C951   N1185   1.438   .     S
C951   C954    1.405   1_554 S
C952   C1044   1.418   .     A
C952   N1186   1.436   .     S
C952   C1067   1.405   1_556 S
C953   N1188   1.436   .     S
C953   C1045   1.418   .     A
C953   C1066   1.405   1_554 S
C954   N1189   1.436   .     S
C954   C1046   1.418   .     A
C954   C951    1.405   1_556 S
C955   C1048   1.418   .     A
C955   N1190   1.436   .     S
C955   C1068   1.405   1_554 S
C956   H1091   1.112   .     S
C956   H1080   1.110   .     S
C956   N1165   1.451   .     S
C956   H1102   1.109   .     S
C957   H1124   1.110   .     S
C957   N1176   1.450   .     S
C957   H1146   1.110   .     S
C958   H1072   1.110   .     S
C958   H1070   1.110   .     S
C958   N1187   1.450   .     S
C959   H1074   1.109   .     S
C959   H1075   1.112   .     S
C959   N1191   1.449   .     S
C959   H1076   1.109   .     S
C960   H1078   1.110   .     S
C960   N1192   1.448   .     S
C960   H1081   1.110   .     S
C960   H1079   1.111   .     S
C961   C999    1.421   .     S
C961   O1212   1.276   .     A
C961   O1236   1.276   .     A
C962   H1085   1.111   .     S
C962   H1084   1.111   .     S
C963   H1089   1.111   .     S
C963   H1088   1.111   .     S
C964   H1092   1.110   .     S
C964   H1093   1.111   .     S
C964   N1195   1.448   .     S
C964   H1094   1.110   .     S
C965   N1196   1.450   .     S
C965   H1096   1.110   .     S
C965   H1098   1.110   .     S
C965   H1097   1.112   .     S
C966   H1100   1.109   .     S
C966   N1166   1.449   .     S
C966   H1103   1.109   .     S
C966   H1101   1.112   .     S
C967   H1106   1.112   .     S
C967   H1107   1.109   .     S
C967   H1105   1.109   .     S
C967   N1167   1.449   .     S
C968   H1111   1.110   .     S
C968   H1110   1.112   .     S
C968   N1168   1.450   .     S
C968   H1109   1.110   .     S
C969   H1114   1.110   .     S
C969   H1116   1.111   .     S
C969   N1169   1.447   .     S
C969   H1115   1.111   .     S
C970   H1118   1.110   .     S
C970   N1170   1.448   .     S
C970   H1119   1.111   .     S
C970   H1120   1.110   .     S
C971   H1125   1.110   .     S
C971   N1171   1.448   .     S
C971   H1123   1.111   .     S
C971   H1122   1.110   .     S
C972   O1213   1.276   .     A
C972   O1237   1.276   .     A
C972   C998    1.421   .     S
C973   H1128   1.111   .     S
C973   N1172   1.447   .     S
C973   H1127   1.110   .     S
C973   H1129   1.111   .     S
C974   O1214   1.276   .     A
C974   C997    1.422   .     S
C974   O1243   1.276   .     A
C975   C996    1.422   .     S
C975   O1215   1.276   .     A
C975   O1244   1.276   .     A
C976   O1240   1.276   .     A
C976   C1004   1.422   .     S
C976   O1216   1.276   .     A
C977   O1217   1.276   .     A
C977   C1002   1.422   .     S
C977   O1242   1.276   .     A
C978   C993    1.421   .     S
C978   O1218   1.276   .     A
C978   O1229   1.276   .     A
C979   O1231   1.276   .     A
C979   O1220   1.276   .     A
C979   C991    1.421   .     S
C980   O1227   1.276   .     A
C980   O1221   1.276   .     A
C980   C990    1.422   .     S
C981   C1026   1.464   .     S
C981   O1198   1.269   .     A
C981   O613    1.271   1_565 S
C982   C989    1.422   .     S
C982   O1222   1.276   .     A
C982   O1228   1.276   .     A
C983   O1223   1.276   .     A
C983   C988    1.422   .     S
C983   O1234   1.276   .     A
C984   O1224   1.277   .     A
C984   C987    1.422   .     S
C984   O1235   1.276   .     A
C985   O1232   1.276   .     A
C985   C995    1.422   .     S
C985   O1225   1.276   .     A
C986   C994    1.422   .     S
C986   O1226   1.276   .     A
C986   O1233   1.276   .     A
C987   C1004   1.198   .     T
C988   C1002   1.198   .     T
C989   C1001   1.198   .     T
C990   C1000   1.198   .     T
C991   C999    1.198   .     T
C992   C1022   1.465   .     S
C992   O1199   1.268   .     A
C992   O930    1.271   1_655 S
C993   C998    1.198   .     T
C994   C997    1.198   .     T
C995   C996    1.198   .     T
C1001  C1058   1.422   .     S
C1003  C1023   1.461   .     S
C1003  O1247   1.268   .     A
C1003  O884    1.270   1_655 S
C1005  C1022   1.404   .     A
C1005  N1165   1.429   .     S
C1005  C1035   1.423   .     A
C1006  C1037   1.421   .     A
C1006  N1176   1.428   .     S
C1007  C1038   1.420   .     A
C1007  N1187   1.428   .     S
C1008  N1191   1.426   .     S
C1008  C1026   1.401   .     A
C1008  C1039   1.421   .     A
C1009  C1031   1.417   .     A
C1009  N1192   1.429   .     S
C1010  N1193   1.428   .     S
C1010  C1023   1.402   .     A
C1010  C1032   1.416   .     A
C1011  C1024   1.402   .     A
C1011  C1033   1.417   .     A
C1011  N1194   1.428   .     S
C1012  C1034   1.416   .     A
C1012  N1195   1.429   .     S
C1013  C1044   1.420   .     A
C1013  N1196   1.429   .     S
C1014  C1029   1.465   .     S
C1014  O1201   1.269   .     A
C1014  O1205   1.271   .     S
C1015  N1166   1.426   .     S
C1015  C1045   1.421   .     A
C1015  C396    1.402   1_565 S
C1016  C1046   1.421   .     A
C1016  N1167   1.426   .     S
C1016  C713    1.402   1_655 S
C1017  C1048   1.420   .     A
C1017  N1168   1.428   .     S
C1018  C1027   1.402   .     A
C1018  N1169   1.428   .     S
C1018  C1040   1.417   .     A
C1019  C1041   1.416   .     A
C1019  N1170   1.429   .     S
C1019  C1028   1.404   .     A
C1020  C1042   1.416   .     A
C1020  C1029   1.404   .     A
C1020  N1171   1.429   .     S
C1021  C1043   1.417   .     A
C1021  C1030   1.402   .     A
C1021  N1172   1.428   .     S
C1022  C693    1.404   1_655 S
C1023  C690    1.401   1_655 S
C1024  C375    1.400   1_565 S
C1025  C1030   1.460   .     S
C1025  O890    1.267   1_655 A
C1025  O886    1.270   1_655 A
C1026  C380    1.404   1_565 S
C1027  C1036   1.460   .     S
C1027  C381    1.400   1_565 S
C1028  C1047   1.465   .     S
C1030  C701    1.400   1_655 S
C1031  C1057   1.417   .     A
C1032  C1050   1.423   .     A
C1032  C1059   1.415   .     A
C1033  C1051   1.425   .     A
C1033  C1060   1.418   .     A
C1034  C1061   1.416   .     A
C1035  C1049   1.427   .     A
C1035  C1062   1.420   .     A
C1036  O571    1.270   1_565 S
C1036  O575    1.267   1_565 S
C1037  C1063   1.417   .     A
C1038  C1064   1.418   .     A
C1039  C1065   1.418   .     A
C1039  C1052   1.426   .     A
C1040  C1066   1.418   .     A
C1040  C421    1.425   1_565 S
C1041  C1054   1.423   .     A
C1041  C1067   1.416   .     A
C1042  C1068   1.416   .     A
C1042  C1055   1.423   .     A
C1043  C740    1.425   1_655 S
C1044  C1053   1.428   .     A
C1045  C422    1.427   1_565 S
C1046  C739    1.427   1_655 S
C1047  O1209   1.271   .     A
C1047  O1204   1.269   .     A
C1048  C1056   1.428   .     A
C1049  C1050   1.422   .     A
C1049  C715    1.423   1_655 S
C1050  C721    1.427   1_655 S
C1051  C1052   1.421   .     A
C1051  C406    1.428   1_565 S
C1052  C402    1.423   1_565 S
C1053  C1054   1.421   1_556 S
C1054  C1053   1.421   1_554 S
C1055  C1056   1.421   1_556 S
C1056  C1055   1.421   1_554 S
C1057  N1173   1.438   .     S
C1057  C1063   1.406   .     A
C1058  O1238   1.276   .     A
C1058  O1210   1.276   .     A
C1059  C1062   1.405   .     A
C1059  N1174   1.439   .     S
C1060  N1175   1.438   .     S
C1060  C1065   1.405   .     A
C1061  N1177   1.438   .     S
C1061  C1064   1.405   .     A
C1062  N1178   1.435   .     S
C1063  N1179   1.436   .     S
C1064  N1180   1.436   .     S
C1065  N1181   1.436   .     S
C1066  N1182   1.438   .     S
C1066  C953    1.405   1_556 S
C1067  N1183   1.438   .     S
C1067  C952    1.405   1_554 S
C1068  N1184   1.438   .     S
C1068  C955    1.405   1_556 S
H1069  N1165   1.031   .     S
H1071  C326    1.112   1_565 S
H1073  N1191   1.031   .     S
H1077  N1192   1.031   .     S
H1082  N1193   1.030   .     S
H1083  C646    1.110   1_655 S
H1086  N1194   1.030   .     S
H1087  C331    1.110   1_565 S
H1090  N1195   1.031   .     S
H1095  N1196   1.031   .     S
H1099  N1166   1.031   .     S
H1104  N1167   1.031   .     S
H1108  N1168   1.031   .     S
H1112  N1169   1.030   .     S
H1113  N1176   1.031   .     S
H1117  N1170   1.031   .     S
H1121  N1171   1.031   .     S
H1126  N1172   1.030   .     S
H1130  N1173   1.045   .     S
H1131  N1173   1.045   .     S
H1132  N1174   1.045   .     S
H1133  N1174   1.045   .     S
H1134  N1175   1.045   .     S
H1135  C641    1.112   1_655 S
H1136  N1175   1.045   .     S
H1137  N1177   1.045   .     S
H1138  N1177   1.045   .     S
H1139  N1178   1.045   .     S
H1140  N1178   1.045   .     S
H1141  N1179   1.045   .     S
H1142  N1179   1.045   .     S
H1143  N1180   1.045   .     S
H1144  N1180   1.045   .     S
H1145  N1181   1.045   .     S
H1147  N1181   1.045   .     S
H1148  N1182   1.045   .     S
H1149  N1182   1.045   .     S
H1150  N1183   1.045   .     S
H1151  N1183   1.045   .     S
H1152  N1184   1.045   .     S
H1153  N1184   1.045   .     S
H1154  N1185   1.045   .     S
H1155  N1185   1.045   .     S
H1156  N1186   1.045   .     S
H1157  N1187   1.031   .     S
H1158  N1186   1.045   .     S
H1159  N1188   1.045   .     S
H1160  N1188   1.045   .     S
H1161  N1189   1.045   .     S
H1162  N1189   1.045   .     S
H1163  N1190   1.045   .     S
H1164  N1190   1.045   .     S
N1193  C646    1.447   1_655 S
N1194  C331    1.447   1_565 S
O1197  Zn1249  1.936   .     S
O1197  Zn1260  1.936   .     S
O1197  Zn1252  1.936   .     S
O1198  Zn1251  1.952   .     S
O1199  Zn1254  1.953   .     S
O1200  Zn1253  1.953   .     S
O1201  Zn1263  1.952   .     S
O1202  Zn1262  1.952   .     S
O1203  Zn1257  1.952   .     S
O1204  Zn1249  1.952   .     S
O1205  Zn1259  1.952   .     S
O1206  Zn1258  1.952   .     S
O1207  Zn1261  1.953   .     S
O1208  Zn1261  1.936   .     S
O1208  Zn1255  1.936   .     S
O1208  Zn1257  1.936   .     S
O1209  Zn1260  1.953   .     S
O1210  Zn1252  1.914   .     S
O1211  Zn1251  1.914   .     S
O1212  Zn1254  1.914   .     S
O1213  Zn1253  1.914   .     S
O1214  Zn1256  1.914   .     S
O1215  Zn1255  1.914   .     S
O1216  Zn1250  1.914   .     S
O1217  Zn1264  1.914   .     S
O1218  Zn1251  1.914   .     S
O1219  Zn1258  1.936   .     S
O1219  Zn1262  1.936   .     S
O1219  Zn1250  1.936   .     S
O1220  Zn1252  1.914   .     S
O1221  Zn1264  1.914   .     S
O1222  Zn1250  1.914   .     S
O1223  Zn1255  1.914   .     S
O1224  Zn1256  1.914   .     S
O1225  Zn1253  1.914   .     S
O1226  Zn1254  1.914   .     S
O1227  Zn943   1.914   1_655 S
O1228  Zn1258  1.914   .     S
O1229  Zn629   1.914   1_565 S
O1230  Zn1253  1.936   .     S
O1230  Zn1259  1.936   .     S
O1230  Zn1263  1.936   .     S
O1231  Zn1260  1.914   .     S
O1232  Zn1263  1.914   .     S
O1233  Zn946   1.914   1_655 S
O1234  Zn1257  1.914   .     S
O1235  Zn617   1.914   1_565 S
O1236  Zn942   1.914   1_655 S
O1237  Zn1259  1.914   .     S
O1238  Zn1249  1.914   .     S
O1239  Zn625   1.914   1_565 S
O1240  Zn1262  1.914   .     S
O1241  Zn1256  1.952   .     S
O1242  Zn947   1.914   1_655 S
O1243  Zn628   1.914   1_565 S
O1244  Zn1261  1.914   .     S
O1245  Zn1255  1.952   .     S
O1246  Zn1250  1.952   .     S
O1247  Zn1264  1.952   .     S
O1248  Zn1252  1.952   .     S
Zn1251 O576    1.936   1_565 S
Zn1254 O903    1.936   1_655 S
Zn1256 O565    1.936   1_565 S
Zn1264 O914    1.936   1_655 S
