data_str_m1_o10_o16_pcu_sym.259
_audit_creation_date              2020-01-03
_audit_creation_method            'Materials Studio'
_symmetry_space_group_name_H-M    'P1'
_symmetry_Int_Tables_number       1
_symmetry_cell_setting            triclinic
loop_
_symmetry_equiv_pos_as_xyz
  x,y,z
_cell_length_a                    32.5100
_cell_length_b                    32.5570
_cell_length_c                    30.6653
_cell_angle_alpha                 97.0763
_cell_angle_beta                  74.8542
_cell_angle_gamma                 98.6549
loop_
_atom_site_label
_atom_site_type_symbol
_atom_site_fract_x
_atom_site_fract_y
_atom_site_fract_z
_atom_site_U_iso_or_equiv
_atom_site_adp_type
_atom_site_occupancy
Zn1    Zn    0.19338   0.13994   0.28734   0.00000  Uiso   1.00
Zn2    Zn    0.13379   0.12458   0.21875   0.00000  Uiso   1.00
Zn3    Zn    0.21056   0.19775   0.20657   0.00000  Uiso   1.00
Zn4    Zn    0.12893   0.20439   0.28733   0.00000  Uiso   1.00
O5     O     0.16667   0.16667   0.25000   0.00000  Uiso   1.00
O6     O     0.07071   0.18878   0.28213   0.00000  Uiso   1.00
O7     O     0.25491   0.15226   0.27013   0.00000  Uiso   1.00
O8     O     0.13760   0.06944   0.23413   0.00000  Uiso   1.00
O9     O     0.20345   0.25620   0.21360   0.00000  Uiso   1.00
O10    O     0.15451   0.12637   0.15458   0.00000  Uiso   1.00
O11    O     0.12940   0.20391   0.34968   0.00000  Uiso   1.00
O12    O     0.20824   0.17759   0.14606   0.00000  Uiso   1.00
O13    O     0.17451   0.15880   0.34968   0.00000  Uiso   1.00
O14    O     0.17930   0.08019   0.28213   0.00000  Uiso   1.00
O15    O     0.14632   0.26085   0.27013   0.00000  Uiso   1.00
O16    O     0.07412   0.13291   0.23413   0.00000  Uiso   1.00
O17    O     0.26693   0.19272   0.21360   0.00000  Uiso   1.00
C18    C     0.05261   0.15946   0.26009   0.00000  Uiso   1.00
C19    C     0.28080   0.17384   0.24005   0.00000  Uiso   1.00
C20    C     0.15546   0.05600   0.26054   0.00000  Uiso   1.00
C21    C     0.17664   0.27805   0.24036   0.00000  Uiso   1.00
C22    C     0.18482   0.14827   0.12895   0.00000  Uiso   1.00
C23    C     0.14747   0.18393   0.37174   0.00000  Uiso   1.00
C24    C     0.21316   0.09528   0.01009   0.00000  Uiso   1.00
H25    H     0.19230   0.06948   0.43091   0.00000  Uiso   1.00
C26    C     0.19097   0.13965   0.07987   0.00000  Uiso   1.00
C27    C     0.11436   0.22226   0.44758   0.00000  Uiso   1.00
C28    C     0.09752   0.22254   0.49519   0.00000  Uiso   1.00
C29    C     0.10491   0.19067   0.01845   0.00000  Uiso   1.00
C30    C     0.13542   0.16367   0.49492   0.00000  Uiso   1.00
C31    C     0.14095   0.15567   0.44760   0.00000  Uiso   1.00
C32    C     0.16056   0.14414   0.01618   0.00000  Uiso   1.00
C33    C     0.18469   0.11231   0.49123   0.00000  Uiso   1.00
C34    C     0.17877   0.09717   0.44822   0.00000  Uiso   1.00
C35    C     0.15351   0.11625   0.42801   0.00000  Uiso   1.00
C36    C     0.16482   0.15771   0.06016   0.00000  Uiso   1.00
C37    C     0.21761   0.11013   0.05418   0.00000  Uiso   1.00
C38    C     0.13408   0.18724   0.42268   0.00000  Uiso   1.00
H39    H     0.14806   0.18281   0.07986   0.00000  Uiso   1.00
C40    C     0.32661   0.17689   0.23632   0.00000  Uiso   1.00
H41    H     0.01562   0.19558   0.21115   0.00000  Uiso   1.00
C42    C     0.00738   0.15674   0.26378   0.00000  Uiso   1.00
H43    H     0.31910   0.13762   0.28896   0.00000  Uiso   1.00
C44    C     0.18087   0.32311   0.23768   0.00000  Uiso   1.00
C45    C     0.15008   0.01182   0.26364   0.00000  Uiso   1.00
C46    C     0.25113   0.09590   0.07208   0.00000  Uiso   1.00
O47    O     0.24632   0.09488   0.11284   0.00000  Uiso   1.00
O48    O     0.28902   0.08461   0.04218   0.00000  Uiso   1.00
H49    H     0.30942   0.07589   0.05832   0.00000  Uiso   1.00
O50    O     0.21869   0.01095   0.21306   0.00000  Uiso   1.00
C51    C     0.22749   0.33081   0.16621   0.00000  Uiso   1.00
H52    H     0.22546   0.02396   0.14765   0.00000  Uiso   1.00
H53    H     0.20432   0.30458   0.15656   0.00000  Uiso   1.00
C54    C     0.27330   0.31904   0.15080   0.00000  Uiso   1.00
H55    H     0.29624   0.01300   0.15818   0.00000  Uiso   1.00
H56    H     0.27621   0.29328   0.16999   0.00000  Uiso   1.00
C57    C     0.28560   0.30529   0.10023   0.00000  Uiso   1.00
H58    H     0.26227   0.27892   0.09167   0.00000  Uiso   1.00
H59    H     0.31800   0.29489   0.09096   0.00000  Uiso   1.00
H60    H     0.28652   0.33175   0.08029   0.00000  Uiso   1.00
O61    O     0.11382   0.32686   0.29340   0.00000  Uiso   1.00
C62    C     0.07614   0.32933   0.27931   0.00000  Uiso   1.00
H63    H     0.05597   0.29863   0.28330   0.00000  Uiso   1.00
H64    H     0.08226   0.00144   0.24277   0.00000  Uiso   1.00
C65    C     0.05071   0.02935   0.30968   0.00000  Uiso   1.00
H66    H     0.04202   0.02139   0.34544   0.00000  Uiso   1.00
H67    H     0.07066   0.06021   0.30787   0.00000  Uiso   1.00
C68    C     0.00984   0.03259   0.29535   0.00000  Uiso   1.00
H69    H     0.01792   0.04163   0.26004   0.00000  Uiso   1.00
H70    H     0.32539   0.05677   0.31817   0.00000  Uiso   1.00
H71    H     0.32213   0.00230   0.29752   0.00000  Uiso   1.00
O72    O     0.23926   0.06662   0.48407   0.00000  Uiso   1.00
C73    C     0.21716   0.02556   0.48564   0.00000  Uiso   1.00
H74    H     0.22020   0.01182   0.45010   0.00000  Uiso   1.00
H75    H     0.18209   0.02393   0.00195   0.00000  Uiso   1.00
C76    C     0.23835   0.33243   0.00941   0.00000  Uiso   1.00
H77    H     0.27361   0.00292   0.49445   0.00000  Uiso   1.00
H78    H     0.23220   0.01010   0.04597   0.00000  Uiso   1.00
C79    C     0.22138   0.28614   0.00473   0.00000  Uiso   1.00
H80    H     0.18797   0.28042   0.02549   0.00000  Uiso   1.00
H81    H     0.24143   0.26775   0.01717   0.00000  Uiso   1.00
H82    H     0.22259   0.27504   0.46873   0.00000  Uiso   1.00
C83    C     0.10987   0.25834   0.42466   0.00000  Uiso   1.00
O84    O     0.07467   0.27005   0.43042   0.00000  Uiso   1.00
O85    O     0.14622   0.27936   0.39711   0.00000  Uiso   1.00
H86    H     0.13919   0.30345   0.38344   0.00000  Uiso   1.00
C87    C     0.07491   0.18009   0.06288   0.00000  Uiso   1.00
O88    O     0.07149   0.14509   0.07513   0.00000  Uiso   1.00
O89    O     0.04881   0.20881   0.08961   0.00000  Uiso   1.00
H90    H     0.02962   0.19732   0.11832   0.00000  Uiso   1.00
O91    O     0.07050   0.25164   0.01819   0.00000  Uiso   1.00
C92    C     0.09456   0.29016   0.02825   0.00000  Uiso   1.00
H93    H     0.07840   0.31545   0.02116   0.00000  Uiso   1.00
H94    H     0.12803   0.29429   0.00674   0.00000  Uiso   1.00
C95    C     0.09466   0.29575   0.07861   0.00000  Uiso   1.00
H96    H     0.06099   0.29188   0.09945   0.00000  Uiso   1.00
H97    H     0.11197   0.27156   0.08609   0.00000  Uiso   1.00
C98    C     0.11612   0.00538   0.09218   0.00000  Uiso   1.00
H99    H     0.15104   0.00838   0.07620   0.00000  Uiso   1.00
H100   H     0.11171   0.00939   0.12955   0.00000  Uiso   1.00
H101   H     0.10168   0.03043   0.08208   0.00000  Uiso   1.00
C102   C     0.13427   0.09054   0.39275   0.00000  Uiso   1.00
O103   O     0.15195   0.06140   0.37070   0.00000  Uiso   1.00
O104   O     0.09511   0.09734   0.38563   0.00000  Uiso   1.00
H105   H     0.07954   0.11819   0.40897   0.00000  Uiso   1.00
Zn106  Zn    0.52672   0.13994   0.28734   0.00000  Uiso   1.00
Zn107  Zn    0.46713   0.12458   0.21875   0.00000  Uiso   1.00
Zn108  Zn    0.54389   0.19775   0.20657   0.00000  Uiso   1.00
Zn109  Zn    0.46226   0.20439   0.28733   0.00000  Uiso   1.00
O110   O     0.50000   0.16667   0.25000   0.00000  Uiso   1.00
O111   O     0.40405   0.18878   0.28213   0.00000  Uiso   1.00
O112   O     0.58824   0.15226   0.27013   0.00000  Uiso   1.00
O113   O     0.47093   0.06944   0.23413   0.00000  Uiso   1.00
O114   O     0.53678   0.25620   0.21360   0.00000  Uiso   1.00
O115   O     0.48784   0.12637   0.15458   0.00000  Uiso   1.00
O116   O     0.46274   0.20391   0.34968   0.00000  Uiso   1.00
O117   O     0.54157   0.17759   0.14606   0.00000  Uiso   1.00
O118   O     0.50785   0.15880   0.34968   0.00000  Uiso   1.00
O119   O     0.51264   0.08019   0.28213   0.00000  Uiso   1.00
O120   O     0.47965   0.26085   0.27013   0.00000  Uiso   1.00
O121   O     0.40745   0.13291   0.23413   0.00000  Uiso   1.00
O122   O     0.60026   0.19272   0.21360   0.00000  Uiso   1.00
C123   C     0.38594   0.15946   0.26009   0.00000  Uiso   1.00
C124   C     0.61413   0.17384   0.24005   0.00000  Uiso   1.00
C125   C     0.48880   0.05600   0.26054   0.00000  Uiso   1.00
C126   C     0.50997   0.27805   0.24036   0.00000  Uiso   1.00
C127   C     0.51815   0.14827   0.12895   0.00000  Uiso   1.00
C128   C     0.48080   0.18393   0.37174   0.00000  Uiso   1.00
C129   C     0.54649   0.09528   0.01009   0.00000  Uiso   1.00
H130   H     0.52564   0.06948   0.43091   0.00000  Uiso   1.00
C131   C     0.52430   0.13965   0.07987   0.00000  Uiso   1.00
C132   C     0.44769   0.22226   0.44758   0.00000  Uiso   1.00
C133   C     0.43085   0.22254   0.49519   0.00000  Uiso   1.00
C134   C     0.43824   0.19067   0.01845   0.00000  Uiso   1.00
C135   C     0.46875   0.16367   0.49492   0.00000  Uiso   1.00
C136   C     0.47429   0.15567   0.44760   0.00000  Uiso   1.00
C137   C     0.49389   0.14414   0.01618   0.00000  Uiso   1.00
C138   C     0.51802   0.11231   0.49123   0.00000  Uiso   1.00
C139   C     0.51211   0.09717   0.44822   0.00000  Uiso   1.00
C140   C     0.48684   0.11625   0.42801   0.00000  Uiso   1.00
C141   C     0.49816   0.15771   0.06016   0.00000  Uiso   1.00
C142   C     0.55095   0.11013   0.05418   0.00000  Uiso   1.00
C143   C     0.46741   0.18724   0.42268   0.00000  Uiso   1.00
H144   H     0.48139   0.18281   0.07986   0.00000  Uiso   1.00
C145   C     0.65994   0.17689   0.23632   0.00000  Uiso   1.00
H146   H     0.34895   0.19558   0.21115   0.00000  Uiso   1.00
C147   C     0.34072   0.15674   0.26378   0.00000  Uiso   1.00
H148   H     0.65243   0.13762   0.28896   0.00000  Uiso   1.00
C149   C     0.51421   0.32311   0.23768   0.00000  Uiso   1.00
C150   C     0.48341   0.01182   0.26364   0.00000  Uiso   1.00
C151   C     0.58447   0.09590   0.07208   0.00000  Uiso   1.00
O152   O     0.57965   0.09488   0.11284   0.00000  Uiso   1.00
O153   O     0.62235   0.08461   0.04218   0.00000  Uiso   1.00
H154   H     0.64275   0.07589   0.05832   0.00000  Uiso   1.00
O155   O     0.55202   0.01095   0.21306   0.00000  Uiso   1.00
C156   C     0.56082   0.33081   0.16621   0.00000  Uiso   1.00
H157   H     0.55879   0.02396   0.14765   0.00000  Uiso   1.00
H158   H     0.53765   0.30458   0.15656   0.00000  Uiso   1.00
C159   C     0.60664   0.31904   0.15080   0.00000  Uiso   1.00
H160   H     0.62958   0.01300   0.15818   0.00000  Uiso   1.00
H161   H     0.60955   0.29328   0.16999   0.00000  Uiso   1.00
C162   C     0.61893   0.30529   0.10023   0.00000  Uiso   1.00
H163   H     0.59561   0.27892   0.09167   0.00000  Uiso   1.00
H164   H     0.65134   0.29489   0.09096   0.00000  Uiso   1.00
H165   H     0.61985   0.33175   0.08029   0.00000  Uiso   1.00
O166   O     0.44715   0.32686   0.29340   0.00000  Uiso   1.00
C167   C     0.40947   0.32933   0.27931   0.00000  Uiso   1.00
H168   H     0.38931   0.29863   0.28330   0.00000  Uiso   1.00
H169   H     0.41559   0.00144   0.24277   0.00000  Uiso   1.00
C170   C     0.38405   0.02935   0.30968   0.00000  Uiso   1.00
H171   H     0.37535   0.02139   0.34544   0.00000  Uiso   1.00
H172   H     0.40399   0.06021   0.30787   0.00000  Uiso   1.00
C173   C     0.34317   0.03259   0.29535   0.00000  Uiso   1.00
H174   H     0.35126   0.04163   0.26004   0.00000  Uiso   1.00
H175   H     0.65872   0.05677   0.31817   0.00000  Uiso   1.00
H176   H     0.65547   0.00230   0.29752   0.00000  Uiso   1.00
O177   O     0.57259   0.06662   0.48407   0.00000  Uiso   1.00
C178   C     0.55050   0.02556   0.48564   0.00000  Uiso   1.00
H179   H     0.55353   0.01182   0.45010   0.00000  Uiso   1.00
H180   H     0.51542   0.02393   0.00195   0.00000  Uiso   1.00
C181   C     0.57169   0.33243   0.00941   0.00000  Uiso   1.00
H182   H     0.60694   0.00292   0.49445   0.00000  Uiso   1.00
H183   H     0.56553   0.01010   0.04597   0.00000  Uiso   1.00
C184   C     0.55471   0.28614   0.00473   0.00000  Uiso   1.00
H185   H     0.52130   0.28042   0.02549   0.00000  Uiso   1.00
H186   H     0.57476   0.26775   0.01717   0.00000  Uiso   1.00
H187   H     0.55593   0.27504   0.46873   0.00000  Uiso   1.00
C188   C     0.44321   0.25834   0.42466   0.00000  Uiso   1.00
O189   O     0.40800   0.27005   0.43042   0.00000  Uiso   1.00
O190   O     0.47955   0.27936   0.39711   0.00000  Uiso   1.00
H191   H     0.47253   0.30345   0.38344   0.00000  Uiso   1.00
C192   C     0.40824   0.18009   0.06288   0.00000  Uiso   1.00
O193   O     0.40483   0.14509   0.07513   0.00000  Uiso   1.00
O194   O     0.38215   0.20881   0.08961   0.00000  Uiso   1.00
H195   H     0.36295   0.19732   0.11832   0.00000  Uiso   1.00
O196   O     0.40383   0.25164   0.01819   0.00000  Uiso   1.00
C197   C     0.42789   0.29016   0.02825   0.00000  Uiso   1.00
H198   H     0.41173   0.31545   0.02116   0.00000  Uiso   1.00
H199   H     0.46137   0.29429   0.00674   0.00000  Uiso   1.00
C200   C     0.42799   0.29575   0.07861   0.00000  Uiso   1.00
H201   H     0.39433   0.29188   0.09945   0.00000  Uiso   1.00
H202   H     0.44530   0.27156   0.08609   0.00000  Uiso   1.00
C203   C     0.44945   0.00538   0.09218   0.00000  Uiso   1.00
H204   H     0.48438   0.00838   0.07620   0.00000  Uiso   1.00
H205   H     0.44505   0.00939   0.12955   0.00000  Uiso   1.00
H206   H     0.43501   0.03043   0.08208   0.00000  Uiso   1.00
C207   C     0.46760   0.09054   0.39275   0.00000  Uiso   1.00
O208   O     0.48528   0.06140   0.37070   0.00000  Uiso   1.00
O209   O     0.42845   0.09734   0.38563   0.00000  Uiso   1.00
H210   H     0.41288   0.11819   0.40897   0.00000  Uiso   1.00
Zn211  Zn    0.86005   0.13994   0.28734   0.00000  Uiso   1.00
Zn212  Zn    0.80046   0.12458   0.21875   0.00000  Uiso   1.00
Zn213  Zn    0.87723   0.19775   0.20657   0.00000  Uiso   1.00
Zn214  Zn    0.79560   0.20439   0.28733   0.00000  Uiso   1.00
O215   O     0.83333   0.16667   0.25000   0.00000  Uiso   1.00
O216   O     0.73738   0.18878   0.28213   0.00000  Uiso   1.00
O217   O     0.92158   0.15226   0.27013   0.00000  Uiso   1.00
O218   O     0.80426   0.06944   0.23413   0.00000  Uiso   1.00
O219   O     0.87012   0.25620   0.21360   0.00000  Uiso   1.00
O220   O     0.82118   0.12637   0.15458   0.00000  Uiso   1.00
O221   O     0.79607   0.20391   0.34968   0.00000  Uiso   1.00
O222   O     0.87491   0.17759   0.14606   0.00000  Uiso   1.00
O223   O     0.84118   0.15880   0.34968   0.00000  Uiso   1.00
O224   O     0.84597   0.08019   0.28213   0.00000  Uiso   1.00
O225   O     0.81298   0.26085   0.27013   0.00000  Uiso   1.00
O226   O     0.74078   0.13291   0.23413   0.00000  Uiso   1.00
O227   O     0.93360   0.19272   0.21360   0.00000  Uiso   1.00
C228   C     0.71928   0.15946   0.26009   0.00000  Uiso   1.00
C229   C     0.94747   0.17384   0.24005   0.00000  Uiso   1.00
C230   C     0.82213   0.05600   0.26054   0.00000  Uiso   1.00
C231   C     0.84330   0.27805   0.24036   0.00000  Uiso   1.00
C232   C     0.85149   0.14827   0.12895   0.00000  Uiso   1.00
C233   C     0.81413   0.18393   0.37174   0.00000  Uiso   1.00
C234   C     0.87982   0.09528   0.01009   0.00000  Uiso   1.00
H235   H     0.85897   0.06948   0.43091   0.00000  Uiso   1.00
C236   C     0.85764   0.13965   0.07987   0.00000  Uiso   1.00
C237   C     0.78103   0.22226   0.44758   0.00000  Uiso   1.00
C238   C     0.76419   0.22254   0.49519   0.00000  Uiso   1.00
C239   C     0.77157   0.19067   0.01845   0.00000  Uiso   1.00
C240   C     0.80209   0.16367   0.49492   0.00000  Uiso   1.00
C241   C     0.80762   0.15567   0.44760   0.00000  Uiso   1.00
C242   C     0.82723   0.14414   0.01618   0.00000  Uiso   1.00
C243   C     0.85135   0.11231   0.49123   0.00000  Uiso   1.00
C244   C     0.84544   0.09717   0.44822   0.00000  Uiso   1.00
C245   C     0.82018   0.11625   0.42801   0.00000  Uiso   1.00
C246   C     0.83149   0.15771   0.06016   0.00000  Uiso   1.00
C247   C     0.88428   0.11013   0.05418   0.00000  Uiso   1.00
C248   C     0.80075   0.18724   0.42268   0.00000  Uiso   1.00
H249   H     0.81473   0.18281   0.07986   0.00000  Uiso   1.00
C250   C     0.99328   0.17689   0.23632   0.00000  Uiso   1.00
H251   H     0.68229   0.19558   0.21115   0.00000  Uiso   1.00
C252   C     0.67405   0.15674   0.26378   0.00000  Uiso   1.00
H253   H     0.98577   0.13762   0.28896   0.00000  Uiso   1.00
C254   C     0.84754   0.32311   0.23768   0.00000  Uiso   1.00
C255   C     0.81674   0.01182   0.26364   0.00000  Uiso   1.00
C256   C     0.91780   0.09590   0.07208   0.00000  Uiso   1.00
O257   O     0.91298   0.09488   0.11284   0.00000  Uiso   1.00
O258   O     0.95569   0.08461   0.04218   0.00000  Uiso   1.00
H259   H     0.97608   0.07589   0.05832   0.00000  Uiso   1.00
O260   O     0.88536   0.01095   0.21306   0.00000  Uiso   1.00
C261   C     0.89415   0.33081   0.16621   0.00000  Uiso   1.00
H262   H     0.89212   0.02396   0.14765   0.00000  Uiso   1.00
H263   H     0.87099   0.30458   0.15656   0.00000  Uiso   1.00
C264   C     0.93997   0.31904   0.15080   0.00000  Uiso   1.00
H265   H     0.96291   0.01300   0.15818   0.00000  Uiso   1.00
H266   H     0.94288   0.29328   0.16999   0.00000  Uiso   1.00
C267   C     0.95226   0.30529   0.10023   0.00000  Uiso   1.00
H268   H     0.92894   0.27892   0.09167   0.00000  Uiso   1.00
H269   H     0.98467   0.29489   0.09096   0.00000  Uiso   1.00
H270   H     0.95319   0.33175   0.08029   0.00000  Uiso   1.00
O271   O     0.78049   0.32686   0.29340   0.00000  Uiso   1.00
C272   C     0.74280   0.32933   0.27931   0.00000  Uiso   1.00
H273   H     0.72264   0.29863   0.28330   0.00000  Uiso   1.00
H274   H     0.74892   0.00144   0.24277   0.00000  Uiso   1.00
C275   C     0.71738   0.02935   0.30968   0.00000  Uiso   1.00
H276   H     0.70869   0.02139   0.34544   0.00000  Uiso   1.00
H277   H     0.73732   0.06021   0.30787   0.00000  Uiso   1.00
C278   C     0.67650   0.03259   0.29535   0.00000  Uiso   1.00
H279   H     0.68459   0.04163   0.26004   0.00000  Uiso   1.00
H280   H     0.99205   0.05677   0.31817   0.00000  Uiso   1.00
H281   H     0.98880   0.00230   0.29752   0.00000  Uiso   1.00
O282   O     0.90592   0.06662   0.48407   0.00000  Uiso   1.00
C283   C     0.88383   0.02556   0.48564   0.00000  Uiso   1.00
H284   H     0.88686   0.01182   0.45010   0.00000  Uiso   1.00
H285   H     0.84875   0.02393   0.00195   0.00000  Uiso   1.00
C286   C     0.90502   0.33243   0.00941   0.00000  Uiso   1.00
H287   H     0.94028   0.00292   0.49445   0.00000  Uiso   1.00
H288   H     0.89887   0.01010   0.04597   0.00000  Uiso   1.00
C289   C     0.88804   0.28614   0.00473   0.00000  Uiso   1.00
H290   H     0.85464   0.28042   0.02549   0.00000  Uiso   1.00
H291   H     0.90810   0.26775   0.01717   0.00000  Uiso   1.00
H292   H     0.88926   0.27504   0.46873   0.00000  Uiso   1.00
C293   C     0.77654   0.25834   0.42466   0.00000  Uiso   1.00
O294   O     0.74133   0.27005   0.43042   0.00000  Uiso   1.00
O295   O     0.81288   0.27936   0.39711   0.00000  Uiso   1.00
H296   H     0.80586   0.30345   0.38344   0.00000  Uiso   1.00
C297   C     0.74157   0.18009   0.06288   0.00000  Uiso   1.00
O298   O     0.73816   0.14509   0.07513   0.00000  Uiso   1.00
O299   O     0.71548   0.20881   0.08961   0.00000  Uiso   1.00
H300   H     0.69628   0.19732   0.11832   0.00000  Uiso   1.00
O301   O     0.73716   0.25164   0.01819   0.00000  Uiso   1.00
C302   C     0.76122   0.29016   0.02825   0.00000  Uiso   1.00
H303   H     0.74506   0.31545   0.02116   0.00000  Uiso   1.00
H304   H     0.79470   0.29429   0.00674   0.00000  Uiso   1.00
C305   C     0.76132   0.29575   0.07861   0.00000  Uiso   1.00
H306   H     0.72766   0.29188   0.09945   0.00000  Uiso   1.00
H307   H     0.77863   0.27156   0.08609   0.00000  Uiso   1.00
C308   C     0.78278   0.00538   0.09218   0.00000  Uiso   1.00
H309   H     0.81771   0.00838   0.07620   0.00000  Uiso   1.00
H310   H     0.77838   0.00939   0.12955   0.00000  Uiso   1.00
H311   H     0.76835   0.03043   0.08208   0.00000  Uiso   1.00
C312   C     0.80094   0.09054   0.39275   0.00000  Uiso   1.00
O313   O     0.81861   0.06140   0.37070   0.00000  Uiso   1.00
O314   O     0.76178   0.09734   0.38563   0.00000  Uiso   1.00
H315   H     0.74621   0.11819   0.40897   0.00000  Uiso   1.00
Zn316  Zn    0.19338   0.47327   0.28734   0.00000  Uiso   1.00
Zn317  Zn    0.13379   0.45791   0.21875   0.00000  Uiso   1.00
Zn318  Zn    0.21056   0.53109   0.20657   0.00000  Uiso   1.00
Zn319  Zn    0.12893   0.53773   0.28733   0.00000  Uiso   1.00
O320   O     0.16667   0.50000   0.25000   0.00000  Uiso   1.00
O321   O     0.07071   0.52211   0.28213   0.00000  Uiso   1.00
O322   O     0.25491   0.48559   0.27013   0.00000  Uiso   1.00
O323   O     0.13760   0.40277   0.23413   0.00000  Uiso   1.00
O324   O     0.20345   0.58953   0.21360   0.00000  Uiso   1.00
O325   O     0.15451   0.45970   0.15458   0.00000  Uiso   1.00
O326   O     0.12940   0.53724   0.34968   0.00000  Uiso   1.00
O327   O     0.20824   0.51092   0.14606   0.00000  Uiso   1.00
O328   O     0.17451   0.49213   0.34968   0.00000  Uiso   1.00
O329   O     0.17930   0.41352   0.28213   0.00000  Uiso   1.00
O330   O     0.14632   0.59418   0.27013   0.00000  Uiso   1.00
O331   O     0.07412   0.46625   0.23413   0.00000  Uiso   1.00
O332   O     0.26693   0.52605   0.21360   0.00000  Uiso   1.00
C333   C     0.05261   0.49279   0.26009   0.00000  Uiso   1.00
C334   C     0.28080   0.50717   0.24005   0.00000  Uiso   1.00
C335   C     0.15546   0.38934   0.26054   0.00000  Uiso   1.00
C336   C     0.17664   0.61138   0.24036   0.00000  Uiso   1.00
C337   C     0.18482   0.48160   0.12895   0.00000  Uiso   1.00
C338   C     0.14747   0.51726   0.37174   0.00000  Uiso   1.00
C339   C     0.21316   0.42861   0.01009   0.00000  Uiso   1.00
H340   H     0.19230   0.40281   0.43091   0.00000  Uiso   1.00
C341   C     0.19097   0.47299   0.07987   0.00000  Uiso   1.00
C342   C     0.11436   0.55560   0.44758   0.00000  Uiso   1.00
C343   C     0.09752   0.55587   0.49519   0.00000  Uiso   1.00
C344   C     0.10491   0.52400   0.01845   0.00000  Uiso   1.00
C345   C     0.13542   0.49700   0.49492   0.00000  Uiso   1.00
C346   C     0.14095   0.48900   0.44760   0.00000  Uiso   1.00
C347   C     0.16056   0.47748   0.01618   0.00000  Uiso   1.00
C348   C     0.18469   0.44564   0.49123   0.00000  Uiso   1.00
C349   C     0.17877   0.43050   0.44822   0.00000  Uiso   1.00
C350   C     0.15351   0.44959   0.42801   0.00000  Uiso   1.00
C351   C     0.16482   0.49104   0.06016   0.00000  Uiso   1.00
C352   C     0.21761   0.44346   0.05418   0.00000  Uiso   1.00
C353   C     0.13408   0.52057   0.42268   0.00000  Uiso   1.00
H354   H     0.14806   0.51614   0.07986   0.00000  Uiso   1.00
C355   C     0.32661   0.51022   0.23632   0.00000  Uiso   1.00
H356   H     0.01562   0.52891   0.21115   0.00000  Uiso   1.00
C357   C     0.00738   0.49007   0.26378   0.00000  Uiso   1.00
H358   H     0.31910   0.47096   0.28896   0.00000  Uiso   1.00
C359   C     0.18087   0.65644   0.23768   0.00000  Uiso   1.00
C360   C     0.15008   0.34516   0.26364   0.00000  Uiso   1.00
C361   C     0.25113   0.42924   0.07208   0.00000  Uiso   1.00
O362   O     0.24632   0.42822   0.11284   0.00000  Uiso   1.00
O363   O     0.28902   0.41794   0.04218   0.00000  Uiso   1.00
H364   H     0.30942   0.40922   0.05832   0.00000  Uiso   1.00
O365   O     0.21869   0.34428   0.21306   0.00000  Uiso   1.00
C366   C     0.22749   0.66415   0.16621   0.00000  Uiso   1.00
H367   H     0.22546   0.35730   0.14765   0.00000  Uiso   1.00
H368   H     0.20432   0.63791   0.15656   0.00000  Uiso   1.00
C369   C     0.27330   0.65237   0.15080   0.00000  Uiso   1.00
H370   H     0.29624   0.34633   0.15818   0.00000  Uiso   1.00
H371   H     0.27621   0.62661   0.16999   0.00000  Uiso   1.00
C372   C     0.28560   0.63862   0.10023   0.00000  Uiso   1.00
H373   H     0.26227   0.61226   0.09167   0.00000  Uiso   1.00
H374   H     0.31800   0.62822   0.09096   0.00000  Uiso   1.00
H375   H     0.28652   0.66509   0.08029   0.00000  Uiso   1.00
O376   O     0.11382   0.66019   0.29340   0.00000  Uiso   1.00
C377   C     0.07614   0.66266   0.27931   0.00000  Uiso   1.00
H378   H     0.05597   0.63196   0.28330   0.00000  Uiso   1.00
H379   H     0.08226   0.33477   0.24277   0.00000  Uiso   1.00
C380   C     0.05071   0.36269   0.30968   0.00000  Uiso   1.00
H381   H     0.04202   0.35472   0.34544   0.00000  Uiso   1.00
H382   H     0.07066   0.39354   0.30787   0.00000  Uiso   1.00
C383   C     0.00984   0.36593   0.29535   0.00000  Uiso   1.00
H384   H     0.01792   0.37496   0.26004   0.00000  Uiso   1.00
H385   H     0.32539   0.39010   0.31817   0.00000  Uiso   1.00
H386   H     0.32213   0.33564   0.29752   0.00000  Uiso   1.00
O387   O     0.23926   0.39996   0.48407   0.00000  Uiso   1.00
C388   C     0.21716   0.35890   0.48564   0.00000  Uiso   1.00
H389   H     0.22020   0.34515   0.45010   0.00000  Uiso   1.00
H390   H     0.18209   0.35727   0.00195   0.00000  Uiso   1.00
C391   C     0.23835   0.66576   0.00941   0.00000  Uiso   1.00
H392   H     0.27361   0.33625   0.49445   0.00000  Uiso   1.00
H393   H     0.23220   0.34344   0.04597   0.00000  Uiso   1.00
C394   C     0.22138   0.61947   0.00473   0.00000  Uiso   1.00
H395   H     0.18797   0.61375   0.02549   0.00000  Uiso   1.00
H396   H     0.24143   0.60109   0.01717   0.00000  Uiso   1.00
H397   H     0.22259   0.60837   0.46873   0.00000  Uiso   1.00
C398   C     0.10987   0.59167   0.42466   0.00000  Uiso   1.00
O399   O     0.07467   0.60338   0.43042   0.00000  Uiso   1.00
O400   O     0.14622   0.61269   0.39711   0.00000  Uiso   1.00
H401   H     0.13919   0.63678   0.38344   0.00000  Uiso   1.00
C402   C     0.07491   0.51343   0.06288   0.00000  Uiso   1.00
O403   O     0.07149   0.47842   0.07513   0.00000  Uiso   1.00
O404   O     0.04881   0.54214   0.08961   0.00000  Uiso   1.00
H405   H     0.02962   0.53065   0.11832   0.00000  Uiso   1.00
O406   O     0.07050   0.58497   0.01819   0.00000  Uiso   1.00
C407   C     0.09456   0.62350   0.02825   0.00000  Uiso   1.00
H408   H     0.07840   0.64878   0.02116   0.00000  Uiso   1.00
H409   H     0.12803   0.62762   0.00674   0.00000  Uiso   1.00
C410   C     0.09466   0.62908   0.07861   0.00000  Uiso   1.00
H411   H     0.06099   0.62522   0.09945   0.00000  Uiso   1.00
H412   H     0.11197   0.60490   0.08609   0.00000  Uiso   1.00
C413   C     0.11612   0.33872   0.09218   0.00000  Uiso   1.00
H414   H     0.15104   0.34172   0.07620   0.00000  Uiso   1.00
H415   H     0.11171   0.34272   0.12955   0.00000  Uiso   1.00
H416   H     0.10168   0.36377   0.08208   0.00000  Uiso   1.00
C417   C     0.13427   0.42387   0.39275   0.00000  Uiso   1.00
O418   O     0.15195   0.39473   0.37070   0.00000  Uiso   1.00
O419   O     0.09511   0.43068   0.38563   0.00000  Uiso   1.00
H420   H     0.07954   0.45152   0.40897   0.00000  Uiso   1.00
Zn421  Zn    0.52672   0.47327   0.28734   0.00000  Uiso   1.00
Zn422  Zn    0.46713   0.45791   0.21875   0.00000  Uiso   1.00
Zn423  Zn    0.54389   0.53109   0.20657   0.00000  Uiso   1.00
Zn424  Zn    0.46226   0.53773   0.28733   0.00000  Uiso   1.00
O425   O     0.50000   0.50000   0.25000   0.00000  Uiso   1.00
O426   O     0.40405   0.52211   0.28213   0.00000  Uiso   1.00
O427   O     0.58824   0.48559   0.27013   0.00000  Uiso   1.00
O428   O     0.47093   0.40277   0.23413   0.00000  Uiso   1.00
O429   O     0.53678   0.58953   0.21360   0.00000  Uiso   1.00
O430   O     0.48784   0.45970   0.15458   0.00000  Uiso   1.00
O431   O     0.46274   0.53724   0.34968   0.00000  Uiso   1.00
O432   O     0.54157   0.51092   0.14606   0.00000  Uiso   1.00
O433   O     0.50785   0.49213   0.34968   0.00000  Uiso   1.00
O434   O     0.51264   0.41352   0.28213   0.00000  Uiso   1.00
O435   O     0.47965   0.59418   0.27013   0.00000  Uiso   1.00
O436   O     0.40745   0.46625   0.23413   0.00000  Uiso   1.00
O437   O     0.60026   0.52605   0.21360   0.00000  Uiso   1.00
C438   C     0.38594   0.49279   0.26009   0.00000  Uiso   1.00
C439   C     0.61413   0.50717   0.24005   0.00000  Uiso   1.00
C440   C     0.48880   0.38934   0.26054   0.00000  Uiso   1.00
C441   C     0.50997   0.61138   0.24036   0.00000  Uiso   1.00
C442   C     0.51815   0.48160   0.12895   0.00000  Uiso   1.00
C443   C     0.48080   0.51726   0.37174   0.00000  Uiso   1.00
C444   C     0.54649   0.42861   0.01009   0.00000  Uiso   1.00
H445   H     0.52564   0.40281   0.43091   0.00000  Uiso   1.00
C446   C     0.52430   0.47299   0.07987   0.00000  Uiso   1.00
C447   C     0.44769   0.55560   0.44758   0.00000  Uiso   1.00
C448   C     0.43085   0.55587   0.49519   0.00000  Uiso   1.00
C449   C     0.43824   0.52400   0.01845   0.00000  Uiso   1.00
C450   C     0.46875   0.49700   0.49492   0.00000  Uiso   1.00
C451   C     0.47429   0.48900   0.44760   0.00000  Uiso   1.00
C452   C     0.49389   0.47748   0.01618   0.00000  Uiso   1.00
C453   C     0.51802   0.44564   0.49123   0.00000  Uiso   1.00
C454   C     0.51211   0.43050   0.44822   0.00000  Uiso   1.00
C455   C     0.48684   0.44959   0.42801   0.00000  Uiso   1.00
C456   C     0.49816   0.49104   0.06016   0.00000  Uiso   1.00
C457   C     0.55095   0.44346   0.05418   0.00000  Uiso   1.00
C458   C     0.46741   0.52057   0.42268   0.00000  Uiso   1.00
H459   H     0.48139   0.51614   0.07986   0.00000  Uiso   1.00
C460   C     0.65994   0.51022   0.23632   0.00000  Uiso   1.00
H461   H     0.34895   0.52891   0.21115   0.00000  Uiso   1.00
C462   C     0.34072   0.49007   0.26378   0.00000  Uiso   1.00
H463   H     0.65243   0.47096   0.28896   0.00000  Uiso   1.00
C464   C     0.51421   0.65644   0.23768   0.00000  Uiso   1.00
C465   C     0.48341   0.34516   0.26364   0.00000  Uiso   1.00
C466   C     0.58447   0.42924   0.07208   0.00000  Uiso   1.00
O467   O     0.57965   0.42822   0.11284   0.00000  Uiso   1.00
O468   O     0.62235   0.41794   0.04218   0.00000  Uiso   1.00
H469   H     0.64275   0.40922   0.05832   0.00000  Uiso   1.00
O470   O     0.55202   0.34428   0.21306   0.00000  Uiso   1.00
C471   C     0.56082   0.66415   0.16621   0.00000  Uiso   1.00
H472   H     0.55879   0.35730   0.14765   0.00000  Uiso   1.00
H473   H     0.53765   0.63791   0.15656   0.00000  Uiso   1.00
C474   C     0.60664   0.65237   0.15080   0.00000  Uiso   1.00
H475   H     0.62958   0.34633   0.15818   0.00000  Uiso   1.00
H476   H     0.60955   0.62661   0.16999   0.00000  Uiso   1.00
C477   C     0.61893   0.63862   0.10023   0.00000  Uiso   1.00
H478   H     0.59561   0.61226   0.09167   0.00000  Uiso   1.00
H479   H     0.65134   0.62822   0.09096   0.00000  Uiso   1.00
H480   H     0.61985   0.66509   0.08029   0.00000  Uiso   1.00
O481   O     0.44715   0.66019   0.29340   0.00000  Uiso   1.00
C482   C     0.40947   0.66266   0.27931   0.00000  Uiso   1.00
H483   H     0.38931   0.63196   0.28330   0.00000  Uiso   1.00
H484   H     0.41559   0.33477   0.24277   0.00000  Uiso   1.00
C485   C     0.38405   0.36269   0.30968   0.00000  Uiso   1.00
H486   H     0.37535   0.35472   0.34544   0.00000  Uiso   1.00
H487   H     0.40399   0.39354   0.30787   0.00000  Uiso   1.00
C488   C     0.34317   0.36593   0.29535   0.00000  Uiso   1.00
H489   H     0.35126   0.37496   0.26004   0.00000  Uiso   1.00
H490   H     0.65872   0.39010   0.31817   0.00000  Uiso   1.00
H491   H     0.65547   0.33564   0.29752   0.00000  Uiso   1.00
O492   O     0.57259   0.39996   0.48407   0.00000  Uiso   1.00
C493   C     0.55050   0.35890   0.48564   0.00000  Uiso   1.00
H494   H     0.55353   0.34515   0.45010   0.00000  Uiso   1.00
H495   H     0.51542   0.35727   0.00195   0.00000  Uiso   1.00
C496   C     0.57169   0.66576   0.00941   0.00000  Uiso   1.00
H497   H     0.60694   0.33625   0.49445   0.00000  Uiso   1.00
H498   H     0.56553   0.34344   0.04597   0.00000  Uiso   1.00
C499   C     0.55471   0.61947   0.00473   0.00000  Uiso   1.00
H500   H     0.52130   0.61375   0.02549   0.00000  Uiso   1.00
H501   H     0.57476   0.60109   0.01717   0.00000  Uiso   1.00
H502   H     0.55593   0.60837   0.46873   0.00000  Uiso   1.00
C503   C     0.44321   0.59167   0.42466   0.00000  Uiso   1.00
O504   O     0.40800   0.60338   0.43042   0.00000  Uiso   1.00
O505   O     0.47955   0.61269   0.39711   0.00000  Uiso   1.00
H506   H     0.47253   0.63678   0.38344   0.00000  Uiso   1.00
C507   C     0.40824   0.51343   0.06288   0.00000  Uiso   1.00
O508   O     0.40483   0.47842   0.07513   0.00000  Uiso   1.00
O509   O     0.38215   0.54214   0.08961   0.00000  Uiso   1.00
H510   H     0.36295   0.53065   0.11832   0.00000  Uiso   1.00
O511   O     0.40383   0.58497   0.01819   0.00000  Uiso   1.00
C512   C     0.42789   0.62350   0.02825   0.00000  Uiso   1.00
H513   H     0.41173   0.64878   0.02116   0.00000  Uiso   1.00
H514   H     0.46137   0.62762   0.00674   0.00000  Uiso   1.00
C515   C     0.42799   0.62908   0.07861   0.00000  Uiso   1.00
H516   H     0.39433   0.62522   0.09945   0.00000  Uiso   1.00
H517   H     0.44530   0.60490   0.08609   0.00000  Uiso   1.00
C518   C     0.44945   0.33872   0.09218   0.00000  Uiso   1.00
H519   H     0.48438   0.34172   0.07620   0.00000  Uiso   1.00
H520   H     0.44505   0.34272   0.12955   0.00000  Uiso   1.00
H521   H     0.43501   0.36377   0.08208   0.00000  Uiso   1.00
C522   C     0.46760   0.42387   0.39275   0.00000  Uiso   1.00
O523   O     0.48528   0.39473   0.37070   0.00000  Uiso   1.00
O524   O     0.42845   0.43068   0.38563   0.00000  Uiso   1.00
H525   H     0.41288   0.45152   0.40897   0.00000  Uiso   1.00
Zn526  Zn    0.86005   0.47327   0.28734   0.00000  Uiso   1.00
Zn527  Zn    0.80046   0.45791   0.21875   0.00000  Uiso   1.00
Zn528  Zn    0.87723   0.53109   0.20657   0.00000  Uiso   1.00
Zn529  Zn    0.79560   0.53773   0.28733   0.00000  Uiso   1.00
O530   O     0.83333   0.50000   0.25000   0.00000  Uiso   1.00
O531   O     0.73738   0.52211   0.28213   0.00000  Uiso   1.00
O532   O     0.92158   0.48559   0.27013   0.00000  Uiso   1.00
O533   O     0.80426   0.40277   0.23413   0.00000  Uiso   1.00
O534   O     0.87012   0.58953   0.21360   0.00000  Uiso   1.00
O535   O     0.82118   0.45970   0.15458   0.00000  Uiso   1.00
O536   O     0.79607   0.53724   0.34968   0.00000  Uiso   1.00
O537   O     0.87491   0.51092   0.14606   0.00000  Uiso   1.00
O538   O     0.84118   0.49213   0.34968   0.00000  Uiso   1.00
O539   O     0.84597   0.41352   0.28213   0.00000  Uiso   1.00
O540   O     0.81298   0.59418   0.27013   0.00000  Uiso   1.00
O541   O     0.74078   0.46625   0.23413   0.00000  Uiso   1.00
O542   O     0.93360   0.52605   0.21360   0.00000  Uiso   1.00
C543   C     0.71928   0.49279   0.26009   0.00000  Uiso   1.00
C544   C     0.94747   0.50717   0.24005   0.00000  Uiso   1.00
C545   C     0.82213   0.38934   0.26054   0.00000  Uiso   1.00
C546   C     0.84330   0.61138   0.24036   0.00000  Uiso   1.00
C547   C     0.85149   0.48160   0.12895   0.00000  Uiso   1.00
C548   C     0.81413   0.51726   0.37174   0.00000  Uiso   1.00
C549   C     0.87982   0.42861   0.01009   0.00000  Uiso   1.00
H550   H     0.85897   0.40281   0.43091   0.00000  Uiso   1.00
C551   C     0.85764   0.47299   0.07987   0.00000  Uiso   1.00
C552   C     0.78103   0.55560   0.44758   0.00000  Uiso   1.00
C553   C     0.76419   0.55587   0.49519   0.00000  Uiso   1.00
C554   C     0.77157   0.52400   0.01845   0.00000  Uiso   1.00
C555   C     0.80209   0.49700   0.49492   0.00000  Uiso   1.00
C556   C     0.80762   0.48900   0.44760   0.00000  Uiso   1.00
C557   C     0.82723   0.47748   0.01618   0.00000  Uiso   1.00
C558   C     0.85135   0.44564   0.49123   0.00000  Uiso   1.00
C559   C     0.84544   0.43050   0.44822   0.00000  Uiso   1.00
C560   C     0.82018   0.44959   0.42801   0.00000  Uiso   1.00
C561   C     0.83149   0.49104   0.06016   0.00000  Uiso   1.00
C562   C     0.88428   0.44346   0.05418   0.00000  Uiso   1.00
C563   C     0.80075   0.52057   0.42268   0.00000  Uiso   1.00
H564   H     0.81473   0.51614   0.07986   0.00000  Uiso   1.00
C565   C     0.99328   0.51022   0.23632   0.00000  Uiso   1.00
H566   H     0.68229   0.52891   0.21115   0.00000  Uiso   1.00
C567   C     0.67405   0.49007   0.26378   0.00000  Uiso   1.00
H568   H     0.98577   0.47096   0.28896   0.00000  Uiso   1.00
C569   C     0.84754   0.65644   0.23768   0.00000  Uiso   1.00
C570   C     0.81674   0.34516   0.26364   0.00000  Uiso   1.00
C571   C     0.91780   0.42924   0.07208   0.00000  Uiso   1.00
O572   O     0.91298   0.42822   0.11284   0.00000  Uiso   1.00
O573   O     0.95569   0.41794   0.04218   0.00000  Uiso   1.00
H574   H     0.97608   0.40922   0.05832   0.00000  Uiso   1.00
O575   O     0.88536   0.34428   0.21306   0.00000  Uiso   1.00
C576   C     0.89415   0.66415   0.16621   0.00000  Uiso   1.00
H577   H     0.89212   0.35730   0.14765   0.00000  Uiso   1.00
H578   H     0.87099   0.63791   0.15656   0.00000  Uiso   1.00
C579   C     0.93997   0.65237   0.15080   0.00000  Uiso   1.00
H580   H     0.96291   0.34633   0.15818   0.00000  Uiso   1.00
H581   H     0.94288   0.62661   0.16999   0.00000  Uiso   1.00
C582   C     0.95226   0.63862   0.10023   0.00000  Uiso   1.00
H583   H     0.92894   0.61226   0.09167   0.00000  Uiso   1.00
H584   H     0.98467   0.62822   0.09096   0.00000  Uiso   1.00
H585   H     0.95319   0.66509   0.08029   0.00000  Uiso   1.00
O586   O     0.78049   0.66019   0.29340   0.00000  Uiso   1.00
C587   C     0.74280   0.66266   0.27931   0.00000  Uiso   1.00
H588   H     0.72264   0.63196   0.28330   0.00000  Uiso   1.00
H589   H     0.74892   0.33477   0.24277   0.00000  Uiso   1.00
C590   C     0.71738   0.36269   0.30968   0.00000  Uiso   1.00
H591   H     0.70869   0.35472   0.34544   0.00000  Uiso   1.00
H592   H     0.73732   0.39354   0.30787   0.00000  Uiso   1.00
C593   C     0.67650   0.36593   0.29535   0.00000  Uiso   1.00
H594   H     0.68459   0.37496   0.26004   0.00000  Uiso   1.00
H595   H     0.99205   0.39010   0.31817   0.00000  Uiso   1.00
H596   H     0.98880   0.33564   0.29752   0.00000  Uiso   1.00
O597   O     0.90592   0.39996   0.48407   0.00000  Uiso   1.00
C598   C     0.88383   0.35890   0.48564   0.00000  Uiso   1.00
H599   H     0.88686   0.34515   0.45010   0.00000  Uiso   1.00
H600   H     0.84875   0.35727   0.00195   0.00000  Uiso   1.00
C601   C     0.90502   0.66576   0.00941   0.00000  Uiso   1.00
H602   H     0.94028   0.33625   0.49445   0.00000  Uiso   1.00
H603   H     0.89887   0.34344   0.04597   0.00000  Uiso   1.00
C604   C     0.88804   0.61947   0.00473   0.00000  Uiso   1.00
H605   H     0.85464   0.61375   0.02549   0.00000  Uiso   1.00
H606   H     0.90810   0.60109   0.01717   0.00000  Uiso   1.00
H607   H     0.88926   0.60837   0.46873   0.00000  Uiso   1.00
C608   C     0.77654   0.59167   0.42466   0.00000  Uiso   1.00
O609   O     0.74133   0.60338   0.43042   0.00000  Uiso   1.00
O610   O     0.81288   0.61269   0.39711   0.00000  Uiso   1.00
H611   H     0.80586   0.63678   0.38344   0.00000  Uiso   1.00
C612   C     0.74157   0.51343   0.06288   0.00000  Uiso   1.00
O613   O     0.73816   0.47842   0.07513   0.00000  Uiso   1.00
O614   O     0.71548   0.54214   0.08961   0.00000  Uiso   1.00
H615   H     0.69628   0.53065   0.11832   0.00000  Uiso   1.00
O616   O     0.73716   0.58497   0.01819   0.00000  Uiso   1.00
C617   C     0.76122   0.62350   0.02825   0.00000  Uiso   1.00
H618   H     0.74506   0.64878   0.02116   0.00000  Uiso   1.00
H619   H     0.79470   0.62762   0.00674   0.00000  Uiso   1.00
C620   C     0.76132   0.62908   0.07861   0.00000  Uiso   1.00
H621   H     0.72766   0.62522   0.09945   0.00000  Uiso   1.00
H622   H     0.77863   0.60490   0.08609   0.00000  Uiso   1.00
C623   C     0.78278   0.33872   0.09218   0.00000  Uiso   1.00
H624   H     0.81771   0.34172   0.07620   0.00000  Uiso   1.00
H625   H     0.77838   0.34272   0.12955   0.00000  Uiso   1.00
H626   H     0.76835   0.36377   0.08208   0.00000  Uiso   1.00
C627   C     0.80094   0.42387   0.39275   0.00000  Uiso   1.00
O628   O     0.81861   0.39473   0.37070   0.00000  Uiso   1.00
O629   O     0.76178   0.43068   0.38563   0.00000  Uiso   1.00
H630   H     0.74621   0.45152   0.40897   0.00000  Uiso   1.00
Zn631  Zn    0.19338   0.80661   0.28734   0.00000  Uiso   1.00
Zn632  Zn    0.13379   0.79124   0.21875   0.00000  Uiso   1.00
Zn633  Zn    0.21056   0.86442   0.20657   0.00000  Uiso   1.00
Zn634  Zn    0.12893   0.87106   0.28733   0.00000  Uiso   1.00
O635   O     0.16667   0.83333   0.25000   0.00000  Uiso   1.00
O636   O     0.07071   0.85544   0.28213   0.00000  Uiso   1.00
O637   O     0.25491   0.81892   0.27013   0.00000  Uiso   1.00
O638   O     0.13760   0.73610   0.23413   0.00000  Uiso   1.00
O639   O     0.20345   0.92286   0.21360   0.00000  Uiso   1.00
O640   O     0.15451   0.79304   0.15458   0.00000  Uiso   1.00
O641   O     0.12940   0.87058   0.34968   0.00000  Uiso   1.00
O642   O     0.20824   0.84425   0.14606   0.00000  Uiso   1.00
O643   O     0.17451   0.82546   0.34968   0.00000  Uiso   1.00
O644   O     0.17930   0.74686   0.28213   0.00000  Uiso   1.00
O645   O     0.14632   0.92751   0.27013   0.00000  Uiso   1.00
O646   O     0.07412   0.79958   0.23413   0.00000  Uiso   1.00
O647   O     0.26693   0.85939   0.21360   0.00000  Uiso   1.00
C648   C     0.05261   0.82613   0.26009   0.00000  Uiso   1.00
C649   C     0.28080   0.84051   0.24005   0.00000  Uiso   1.00
C650   C     0.15546   0.72267   0.26054   0.00000  Uiso   1.00
C651   C     0.17664   0.94471   0.24036   0.00000  Uiso   1.00
C652   C     0.18482   0.81494   0.12895   0.00000  Uiso   1.00
C653   C     0.14747   0.85060   0.37174   0.00000  Uiso   1.00
C654   C     0.21316   0.76195   0.01009   0.00000  Uiso   1.00
H655   H     0.19230   0.73614   0.43091   0.00000  Uiso   1.00
C656   C     0.19097   0.80632   0.07987   0.00000  Uiso   1.00
C657   C     0.11436   0.88893   0.44758   0.00000  Uiso   1.00
C658   C     0.09752   0.88921   0.49519   0.00000  Uiso   1.00
C659   C     0.10491   0.85733   0.01845   0.00000  Uiso   1.00
C660   C     0.13542   0.83033   0.49492   0.00000  Uiso   1.00
C661   C     0.14095   0.82234   0.44760   0.00000  Uiso   1.00
C662   C     0.16056   0.81081   0.01618   0.00000  Uiso   1.00
C663   C     0.18469   0.77897   0.49123   0.00000  Uiso   1.00
C664   C     0.17877   0.76384   0.44822   0.00000  Uiso   1.00
C665   C     0.15351   0.78292   0.42801   0.00000  Uiso   1.00
C666   C     0.16482   0.82437   0.06016   0.00000  Uiso   1.00
C667   C     0.21761   0.77679   0.05418   0.00000  Uiso   1.00
C668   C     0.13408   0.85390   0.42268   0.00000  Uiso   1.00
H669   H     0.14806   0.84947   0.07986   0.00000  Uiso   1.00
C670   C     0.32661   0.84355   0.23632   0.00000  Uiso   1.00
H671   H     0.01562   0.86224   0.21115   0.00000  Uiso   1.00
C672   C     0.00738   0.82341   0.26378   0.00000  Uiso   1.00
H673   H     0.31910   0.80429   0.28896   0.00000  Uiso   1.00
C674   C     0.18087   0.98978   0.23768   0.00000  Uiso   1.00
C675   C     0.15008   0.67849   0.26364   0.00000  Uiso   1.00
C676   C     0.25113   0.76257   0.07208   0.00000  Uiso   1.00
O677   O     0.24632   0.76155   0.11284   0.00000  Uiso   1.00
O678   O     0.28902   0.75127   0.04218   0.00000  Uiso   1.00
H679   H     0.30942   0.74256   0.05832   0.00000  Uiso   1.00
O680   O     0.21869   0.67761   0.21306   0.00000  Uiso   1.00
C681   C     0.22749   0.99748   0.16621   0.00000  Uiso   1.00
H682   H     0.22546   0.69063   0.14765   0.00000  Uiso   1.00
H683   H     0.20432   0.97125   0.15656   0.00000  Uiso   1.00
C684   C     0.27330   0.98571   0.15080   0.00000  Uiso   1.00
H685   H     0.29624   0.67967   0.15818   0.00000  Uiso   1.00
H686   H     0.27621   0.95995   0.16999   0.00000  Uiso   1.00
C687   C     0.28560   0.97196   0.10023   0.00000  Uiso   1.00
H688   H     0.26227   0.94559   0.09167   0.00000  Uiso   1.00
H689   H     0.31800   0.96156   0.09096   0.00000  Uiso   1.00
H690   H     0.28652   0.99842   0.08029   0.00000  Uiso   1.00
O691   O     0.11382   0.99352   0.29340   0.00000  Uiso   1.00
C692   C     0.07614   0.99600   0.27931   0.00000  Uiso   1.00
H693   H     0.05597   0.96530   0.28330   0.00000  Uiso   1.00
H694   H     0.08226   0.66810   0.24277   0.00000  Uiso   1.00
C695   C     0.05071   0.69602   0.30968   0.00000  Uiso   1.00
H696   H     0.04202   0.68805   0.34544   0.00000  Uiso   1.00
H697   H     0.07066   0.72687   0.30787   0.00000  Uiso   1.00
C698   C     0.00984   0.69926   0.29535   0.00000  Uiso   1.00
H699   H     0.01792   0.70830   0.26004   0.00000  Uiso   1.00
H700   H     0.32539   0.72343   0.31817   0.00000  Uiso   1.00
H701   H     0.32213   0.66897   0.29752   0.00000  Uiso   1.00
O702   O     0.23926   0.73329   0.48407   0.00000  Uiso   1.00
C703   C     0.21716   0.69223   0.48564   0.00000  Uiso   1.00
H704   H     0.22020   0.67848   0.45010   0.00000  Uiso   1.00
H705   H     0.18209   0.69060   0.00195   0.00000  Uiso   1.00
C706   C     0.23835   0.99910   0.00941   0.00000  Uiso   1.00
H707   H     0.27361   0.66959   0.49445   0.00000  Uiso   1.00
H708   H     0.23220   0.67677   0.04597   0.00000  Uiso   1.00
C709   C     0.22138   0.95281   0.00473   0.00000  Uiso   1.00
H710   H     0.18797   0.94708   0.02549   0.00000  Uiso   1.00
H711   H     0.24143   0.93442   0.01717   0.00000  Uiso   1.00
H712   H     0.22259   0.94171   0.46873   0.00000  Uiso   1.00
C713   C     0.10987   0.92500   0.42466   0.00000  Uiso   1.00
O714   O     0.07467   0.93672   0.43042   0.00000  Uiso   1.00
O715   O     0.14622   0.94602   0.39711   0.00000  Uiso   1.00
H716   H     0.13919   0.97012   0.38344   0.00000  Uiso   1.00
C717   C     0.07491   0.84676   0.06288   0.00000  Uiso   1.00
O718   O     0.07149   0.81175   0.07513   0.00000  Uiso   1.00
O719   O     0.04881   0.87548   0.08961   0.00000  Uiso   1.00
H720   H     0.02962   0.86399   0.11832   0.00000  Uiso   1.00
O721   O     0.07050   0.91831   0.01819   0.00000  Uiso   1.00
C722   C     0.09456   0.95683   0.02825   0.00000  Uiso   1.00
H723   H     0.07840   0.98211   0.02116   0.00000  Uiso   1.00
H724   H     0.12803   0.96096   0.00674   0.00000  Uiso   1.00
C725   C     0.09466   0.96242   0.07861   0.00000  Uiso   1.00
H726   H     0.06099   0.95855   0.09945   0.00000  Uiso   1.00
H727   H     0.11197   0.93823   0.08609   0.00000  Uiso   1.00
C728   C     0.11612   0.67205   0.09218   0.00000  Uiso   1.00
H729   H     0.15104   0.67505   0.07620   0.00000  Uiso   1.00
H730   H     0.11171   0.67606   0.12955   0.00000  Uiso   1.00
H731   H     0.10168   0.69710   0.08208   0.00000  Uiso   1.00
C732   C     0.13427   0.75720   0.39275   0.00000  Uiso   1.00
O733   O     0.15195   0.72807   0.37070   0.00000  Uiso   1.00
O734   O     0.09511   0.76401   0.38563   0.00000  Uiso   1.00
H735   H     0.07954   0.78485   0.40897   0.00000  Uiso   1.00
Zn736  Zn    0.52672   0.80661   0.28734   0.00000  Uiso   1.00
Zn737  Zn    0.46713   0.79124   0.21875   0.00000  Uiso   1.00
Zn738  Zn    0.54389   0.86442   0.20657   0.00000  Uiso   1.00
Zn739  Zn    0.46226   0.87106   0.28733   0.00000  Uiso   1.00
O740   O     0.50000   0.83333   0.25000   0.00000  Uiso   1.00
O741   O     0.40405   0.85544   0.28213   0.00000  Uiso   1.00
O742   O     0.58824   0.81892   0.27013   0.00000  Uiso   1.00
O743   O     0.47093   0.73610   0.23413   0.00000  Uiso   1.00
O744   O     0.53678   0.92286   0.21360   0.00000  Uiso   1.00
O745   O     0.48784   0.79304   0.15458   0.00000  Uiso   1.00
O746   O     0.46274   0.87058   0.34968   0.00000  Uiso   1.00
O747   O     0.54157   0.84425   0.14606   0.00000  Uiso   1.00
O748   O     0.50785   0.82546   0.34968   0.00000  Uiso   1.00
O749   O     0.51264   0.74686   0.28213   0.00000  Uiso   1.00
O750   O     0.47965   0.92751   0.27013   0.00000  Uiso   1.00
O751   O     0.40745   0.79958   0.23413   0.00000  Uiso   1.00
O752   O     0.60026   0.85939   0.21360   0.00000  Uiso   1.00
C753   C     0.38594   0.82613   0.26009   0.00000  Uiso   1.00
C754   C     0.61413   0.84051   0.24005   0.00000  Uiso   1.00
C755   C     0.48880   0.72267   0.26054   0.00000  Uiso   1.00
C756   C     0.50997   0.94471   0.24036   0.00000  Uiso   1.00
C757   C     0.51815   0.81494   0.12895   0.00000  Uiso   1.00
C758   C     0.48080   0.85060   0.37174   0.00000  Uiso   1.00
C759   C     0.54649   0.76195   0.01009   0.00000  Uiso   1.00
H760   H     0.52564   0.73614   0.43091   0.00000  Uiso   1.00
C761   C     0.52430   0.80632   0.07987   0.00000  Uiso   1.00
C762   C     0.44769   0.88893   0.44758   0.00000  Uiso   1.00
C763   C     0.43085   0.88921   0.49519   0.00000  Uiso   1.00
C764   C     0.43824   0.85733   0.01845   0.00000  Uiso   1.00
C765   C     0.46875   0.83033   0.49492   0.00000  Uiso   1.00
C766   C     0.47429   0.82234   0.44760   0.00000  Uiso   1.00
C767   C     0.49389   0.81081   0.01618   0.00000  Uiso   1.00
C768   C     0.51802   0.77897   0.49123   0.00000  Uiso   1.00
C769   C     0.51211   0.76384   0.44822   0.00000  Uiso   1.00
C770   C     0.48684   0.78292   0.42801   0.00000  Uiso   1.00
C771   C     0.49816   0.82437   0.06016   0.00000  Uiso   1.00
C772   C     0.55095   0.77679   0.05418   0.00000  Uiso   1.00
C773   C     0.46741   0.85390   0.42268   0.00000  Uiso   1.00
H774   H     0.48139   0.84947   0.07986   0.00000  Uiso   1.00
C775   C     0.65994   0.84355   0.23632   0.00000  Uiso   1.00
H776   H     0.34895   0.86224   0.21115   0.00000  Uiso   1.00
C777   C     0.34072   0.82341   0.26378   0.00000  Uiso   1.00
H778   H     0.65243   0.80429   0.28896   0.00000  Uiso   1.00
C779   C     0.51421   0.98978   0.23768   0.00000  Uiso   1.00
C780   C     0.48341   0.67849   0.26364   0.00000  Uiso   1.00
C781   C     0.58447   0.76257   0.07208   0.00000  Uiso   1.00
O782   O     0.57965   0.76155   0.11284   0.00000  Uiso   1.00
O783   O     0.62235   0.75127   0.04218   0.00000  Uiso   1.00
H784   H     0.64275   0.74256   0.05832   0.00000  Uiso   1.00
O785   O     0.55202   0.67761   0.21306   0.00000  Uiso   1.00
C786   C     0.56082   0.99748   0.16621   0.00000  Uiso   1.00
H787   H     0.55879   0.69063   0.14765   0.00000  Uiso   1.00
H788   H     0.53765   0.97125   0.15656   0.00000  Uiso   1.00
C789   C     0.60664   0.98571   0.15080   0.00000  Uiso   1.00
H790   H     0.62958   0.67967   0.15818   0.00000  Uiso   1.00
H791   H     0.60955   0.95995   0.16999   0.00000  Uiso   1.00
C792   C     0.61893   0.97196   0.10023   0.00000  Uiso   1.00
H793   H     0.59561   0.94559   0.09167   0.00000  Uiso   1.00
H794   H     0.65134   0.96156   0.09096   0.00000  Uiso   1.00
H795   H     0.61985   0.99842   0.08029   0.00000  Uiso   1.00
O796   O     0.44715   0.99352   0.29340   0.00000  Uiso   1.00
C797   C     0.40947   0.99600   0.27931   0.00000  Uiso   1.00
H798   H     0.38931   0.96530   0.28330   0.00000  Uiso   1.00
H799   H     0.41559   0.66810   0.24277   0.00000  Uiso   1.00
C800   C     0.38405   0.69602   0.30968   0.00000  Uiso   1.00
H801   H     0.37535   0.68805   0.34544   0.00000  Uiso   1.00
H802   H     0.40399   0.72687   0.30787   0.00000  Uiso   1.00
C803   C     0.34317   0.69926   0.29535   0.00000  Uiso   1.00
H804   H     0.35126   0.70830   0.26004   0.00000  Uiso   1.00
H805   H     0.65872   0.72343   0.31817   0.00000  Uiso   1.00
H806   H     0.65547   0.66897   0.29752   0.00000  Uiso   1.00
O807   O     0.57259   0.73329   0.48407   0.00000  Uiso   1.00
C808   C     0.55050   0.69223   0.48564   0.00000  Uiso   1.00
H809   H     0.55353   0.67848   0.45010   0.00000  Uiso   1.00
H810   H     0.51542   0.69060   0.00195   0.00000  Uiso   1.00
C811   C     0.57169   0.99910   0.00941   0.00000  Uiso   1.00
H812   H     0.60694   0.66959   0.49445   0.00000  Uiso   1.00
H813   H     0.56553   0.67677   0.04597   0.00000  Uiso   1.00
C814   C     0.55471   0.95281   0.00473   0.00000  Uiso   1.00
H815   H     0.52130   0.94708   0.02549   0.00000  Uiso   1.00
H816   H     0.57476   0.93442   0.01717   0.00000  Uiso   1.00
H817   H     0.55593   0.94171   0.46873   0.00000  Uiso   1.00
C818   C     0.44321   0.92500   0.42466   0.00000  Uiso   1.00
O819   O     0.40800   0.93672   0.43042   0.00000  Uiso   1.00
O820   O     0.47955   0.94602   0.39711   0.00000  Uiso   1.00
H821   H     0.47253   0.97012   0.38344   0.00000  Uiso   1.00
C822   C     0.40824   0.84676   0.06288   0.00000  Uiso   1.00
O823   O     0.40483   0.81175   0.07513   0.00000  Uiso   1.00
O824   O     0.38215   0.87548   0.08961   0.00000  Uiso   1.00
H825   H     0.36295   0.86399   0.11832   0.00000  Uiso   1.00
O826   O     0.40383   0.91831   0.01819   0.00000  Uiso   1.00
C827   C     0.42789   0.95683   0.02825   0.00000  Uiso   1.00
H828   H     0.41173   0.98211   0.02116   0.00000  Uiso   1.00
H829   H     0.46137   0.96096   0.00674   0.00000  Uiso   1.00
C830   C     0.42799   0.96242   0.07861   0.00000  Uiso   1.00
H831   H     0.39433   0.95855   0.09945   0.00000  Uiso   1.00
H832   H     0.44530   0.93823   0.08609   0.00000  Uiso   1.00
C833   C     0.44945   0.67205   0.09218   0.00000  Uiso   1.00
H834   H     0.48438   0.67505   0.07620   0.00000  Uiso   1.00
H835   H     0.44505   0.67606   0.12955   0.00000  Uiso   1.00
H836   H     0.43501   0.69710   0.08208   0.00000  Uiso   1.00
C837   C     0.46760   0.75720   0.39275   0.00000  Uiso   1.00
O838   O     0.48528   0.72807   0.37070   0.00000  Uiso   1.00
O839   O     0.42845   0.76401   0.38563   0.00000  Uiso   1.00
H840   H     0.41288   0.78485   0.40897   0.00000  Uiso   1.00
Zn841  Zn    0.86005   0.80661   0.28734   0.00000  Uiso   1.00
Zn842  Zn    0.80046   0.79124   0.21875   0.00000  Uiso   1.00
Zn843  Zn    0.87723   0.86442   0.20657   0.00000  Uiso   1.00
Zn844  Zn    0.79560   0.87106   0.28733   0.00000  Uiso   1.00
O845   O     0.83333   0.83333   0.25000   0.00000  Uiso   1.00
O846   O     0.73738   0.85544   0.28213   0.00000  Uiso   1.00
O847   O     0.92158   0.81892   0.27013   0.00000  Uiso   1.00
O848   O     0.80426   0.73610   0.23413   0.00000  Uiso   1.00
O849   O     0.87012   0.92286   0.21360   0.00000  Uiso   1.00
O850   O     0.82118   0.79304   0.15458   0.00000  Uiso   1.00
O851   O     0.79607   0.87058   0.34968   0.00000  Uiso   1.00
O852   O     0.87491   0.84425   0.14606   0.00000  Uiso   1.00
O853   O     0.84118   0.82546   0.34968   0.00000  Uiso   1.00
O854   O     0.84597   0.74686   0.28213   0.00000  Uiso   1.00
O855   O     0.81298   0.92751   0.27013   0.00000  Uiso   1.00
O856   O     0.74078   0.79958   0.23413   0.00000  Uiso   1.00
O857   O     0.93360   0.85939   0.21360   0.00000  Uiso   1.00
C858   C     0.71928   0.82613   0.26009   0.00000  Uiso   1.00
C859   C     0.94747   0.84051   0.24005   0.00000  Uiso   1.00
C860   C     0.82213   0.72267   0.26054   0.00000  Uiso   1.00
C861   C     0.84330   0.94471   0.24036   0.00000  Uiso   1.00
C862   C     0.85149   0.81494   0.12895   0.00000  Uiso   1.00
C863   C     0.81413   0.85060   0.37174   0.00000  Uiso   1.00
C864   C     0.87982   0.76195   0.01009   0.00000  Uiso   1.00
H865   H     0.85897   0.73614   0.43091   0.00000  Uiso   1.00
C866   C     0.85764   0.80632   0.07987   0.00000  Uiso   1.00
C867   C     0.78103   0.88893   0.44758   0.00000  Uiso   1.00
C868   C     0.76419   0.88921   0.49519   0.00000  Uiso   1.00
C869   C     0.77157   0.85733   0.01845   0.00000  Uiso   1.00
C870   C     0.80209   0.83033   0.49492   0.00000  Uiso   1.00
C871   C     0.80762   0.82234   0.44760   0.00000  Uiso   1.00
C872   C     0.82723   0.81081   0.01618   0.00000  Uiso   1.00
C873   C     0.85135   0.77897   0.49123   0.00000  Uiso   1.00
C874   C     0.84544   0.76384   0.44822   0.00000  Uiso   1.00
C875   C     0.82018   0.78292   0.42801   0.00000  Uiso   1.00
C876   C     0.83149   0.82437   0.06016   0.00000  Uiso   1.00
C877   C     0.88428   0.77679   0.05418   0.00000  Uiso   1.00
C878   C     0.80075   0.85390   0.42268   0.00000  Uiso   1.00
H879   H     0.81473   0.84947   0.07986   0.00000  Uiso   1.00
C880   C     0.99328   0.84355   0.23632   0.00000  Uiso   1.00
H881   H     0.68229   0.86224   0.21115   0.00000  Uiso   1.00
C882   C     0.67405   0.82341   0.26378   0.00000  Uiso   1.00
H883   H     0.98577   0.80429   0.28896   0.00000  Uiso   1.00
C884   C     0.84754   0.98978   0.23768   0.00000  Uiso   1.00
C885   C     0.81674   0.67849   0.26364   0.00000  Uiso   1.00
C886   C     0.91780   0.76257   0.07208   0.00000  Uiso   1.00
O887   O     0.91298   0.76155   0.11284   0.00000  Uiso   1.00
O888   O     0.95569   0.75127   0.04218   0.00000  Uiso   1.00
H889   H     0.97608   0.74256   0.05832   0.00000  Uiso   1.00
O890   O     0.88536   0.67761   0.21306   0.00000  Uiso   1.00
C891   C     0.89415   0.99748   0.16621   0.00000  Uiso   1.00
H892   H     0.89212   0.69063   0.14765   0.00000  Uiso   1.00
H893   H     0.87099   0.97125   0.15656   0.00000  Uiso   1.00
C894   C     0.93997   0.98571   0.15080   0.00000  Uiso   1.00
H895   H     0.96291   0.67967   0.15818   0.00000  Uiso   1.00
H896   H     0.94288   0.95995   0.16999   0.00000  Uiso   1.00
C897   C     0.95226   0.97196   0.10023   0.00000  Uiso   1.00
H898   H     0.92894   0.94559   0.09167   0.00000  Uiso   1.00
H899   H     0.98467   0.96156   0.09096   0.00000  Uiso   1.00
H900   H     0.95319   0.99842   0.08029   0.00000  Uiso   1.00
O901   O     0.78049   0.99352   0.29340   0.00000  Uiso   1.00
C902   C     0.74280   0.99600   0.27931   0.00000  Uiso   1.00
H903   H     0.72264   0.96530   0.28330   0.00000  Uiso   1.00
H904   H     0.74892   0.66810   0.24277   0.00000  Uiso   1.00
C905   C     0.71738   0.69602   0.30968   0.00000  Uiso   1.00
H906   H     0.70869   0.68805   0.34544   0.00000  Uiso   1.00
H907   H     0.73732   0.72687   0.30787   0.00000  Uiso   1.00
C908   C     0.67650   0.69926   0.29535   0.00000  Uiso   1.00
H909   H     0.68459   0.70830   0.26004   0.00000  Uiso   1.00
H910   H     0.99205   0.72343   0.31817   0.00000  Uiso   1.00
H911   H     0.98880   0.66897   0.29752   0.00000  Uiso   1.00
O912   O     0.90592   0.73329   0.48407   0.00000  Uiso   1.00
C913   C     0.88383   0.69223   0.48564   0.00000  Uiso   1.00
H914   H     0.88686   0.67848   0.45010   0.00000  Uiso   1.00
H915   H     0.84875   0.69060   0.00195   0.00000  Uiso   1.00
C916   C     0.90502   0.99910   0.00941   0.00000  Uiso   1.00
H917   H     0.94028   0.66959   0.49445   0.00000  Uiso   1.00
H918   H     0.89887   0.67677   0.04597   0.00000  Uiso   1.00
C919   C     0.88804   0.95281   0.00473   0.00000  Uiso   1.00
H920   H     0.85464   0.94708   0.02549   0.00000  Uiso   1.00
H921   H     0.90810   0.93442   0.01717   0.00000  Uiso   1.00
H922   H     0.88926   0.94171   0.46873   0.00000  Uiso   1.00
C923   C     0.77654   0.92500   0.42466   0.00000  Uiso   1.00
O924   O     0.74133   0.93672   0.43042   0.00000  Uiso   1.00
O925   O     0.81288   0.94602   0.39711   0.00000  Uiso   1.00
H926   H     0.80586   0.97012   0.38344   0.00000  Uiso   1.00
C927   C     0.74157   0.84676   0.06288   0.00000  Uiso   1.00
O928   O     0.73816   0.81175   0.07513   0.00000  Uiso   1.00
O929   O     0.71548   0.87548   0.08961   0.00000  Uiso   1.00
H930   H     0.69628   0.86399   0.11832   0.00000  Uiso   1.00
O931   O     0.73716   0.91831   0.01819   0.00000  Uiso   1.00
C932   C     0.76122   0.95683   0.02825   0.00000  Uiso   1.00
H933   H     0.74506   0.98211   0.02116   0.00000  Uiso   1.00
H934   H     0.79470   0.96096   0.00674   0.00000  Uiso   1.00
C935   C     0.76132   0.96242   0.07861   0.00000  Uiso   1.00
H936   H     0.72766   0.95855   0.09945   0.00000  Uiso   1.00
H937   H     0.77863   0.93823   0.08609   0.00000  Uiso   1.00
C938   C     0.78278   0.67205   0.09218   0.00000  Uiso   1.00
H939   H     0.81771   0.67505   0.07620   0.00000  Uiso   1.00
H940   H     0.77838   0.67606   0.12955   0.00000  Uiso   1.00
H941   H     0.76835   0.69710   0.08208   0.00000  Uiso   1.00
C942   C     0.80094   0.75720   0.39275   0.00000  Uiso   1.00
O943   O     0.81861   0.72807   0.37070   0.00000  Uiso   1.00
O944   O     0.76178   0.76401   0.38563   0.00000  Uiso   1.00
H945   H     0.74621   0.78485   0.40897   0.00000  Uiso   1.00
Zn946  Zn    0.19338   0.13994   0.78734   0.00000  Uiso   1.00
Zn947  Zn    0.13379   0.12458   0.71875   0.00000  Uiso   1.00
Zn948  Zn    0.21056   0.19775   0.70657   0.00000  Uiso   1.00
Zn949  Zn    0.12893   0.20439   0.78733   0.00000  Uiso   1.00
O950   O     0.16667   0.16667   0.75000   0.00000  Uiso   1.00
O951   O     0.07071   0.18878   0.78213   0.00000  Uiso   1.00
O952   O     0.25491   0.15226   0.77013   0.00000  Uiso   1.00
O953   O     0.13760   0.06944   0.73413   0.00000  Uiso   1.00
O954   O     0.20345   0.25620   0.71360   0.00000  Uiso   1.00
O955   O     0.15451   0.12637   0.65458   0.00000  Uiso   1.00
O956   O     0.12940   0.20391   0.84968   0.00000  Uiso   1.00
O957   O     0.20824   0.17759   0.64606   0.00000  Uiso   1.00
O958   O     0.17451   0.15880   0.84968   0.00000  Uiso   1.00
O959   O     0.17930   0.08019   0.78213   0.00000  Uiso   1.00
O960   O     0.14632   0.26085   0.77013   0.00000  Uiso   1.00
O961   O     0.07412   0.13291   0.73413   0.00000  Uiso   1.00
O962   O     0.26693   0.19272   0.71360   0.00000  Uiso   1.00
C963   C     0.05261   0.15946   0.76009   0.00000  Uiso   1.00
C964   C     0.28080   0.17384   0.74005   0.00000  Uiso   1.00
C965   C     0.15546   0.05600   0.76054   0.00000  Uiso   1.00
C966   C     0.17664   0.27805   0.74036   0.00000  Uiso   1.00
C967   C     0.18482   0.14827   0.62895   0.00000  Uiso   1.00
C968   C     0.14747   0.18393   0.87174   0.00000  Uiso   1.00
C969   C     0.21316   0.09528   0.51009   0.00000  Uiso   1.00
H970   H     0.19230   0.06948   0.93091   0.00000  Uiso   1.00
C971   C     0.19097   0.13965   0.57987   0.00000  Uiso   1.00
C972   C     0.11436   0.22226   0.94758   0.00000  Uiso   1.00
C973   C     0.09752   0.22254   0.99519   0.00000  Uiso   1.00
C974   C     0.10491   0.19067   0.51845   0.00000  Uiso   1.00
C975   C     0.13542   0.16367   0.99492   0.00000  Uiso   1.00
C976   C     0.14095   0.15567   0.94760   0.00000  Uiso   1.00
C977   C     0.16056   0.14414   0.51618   0.00000  Uiso   1.00
C978   C     0.18469   0.11231   0.99123   0.00000  Uiso   1.00
C979   C     0.17877   0.09717   0.94822   0.00000  Uiso   1.00
C980   C     0.15351   0.11625   0.92801   0.00000  Uiso   1.00
C981   C     0.16482   0.15771   0.56016   0.00000  Uiso   1.00
C982   C     0.21761   0.11013   0.55418   0.00000  Uiso   1.00
C983   C     0.13408   0.18724   0.92268   0.00000  Uiso   1.00
H984   H     0.14806   0.18281   0.57986   0.00000  Uiso   1.00
C985   C     0.32661   0.17689   0.73632   0.00000  Uiso   1.00
H986   H     0.01562   0.19558   0.71115   0.00000  Uiso   1.00
C987   C     0.00738   0.15674   0.76378   0.00000  Uiso   1.00
H988   H     0.31910   0.13762   0.78896   0.00000  Uiso   1.00
C989   C     0.18087   0.32311   0.73768   0.00000  Uiso   1.00
C990   C     0.15008   0.01182   0.76364   0.00000  Uiso   1.00
C991   C     0.25113   0.09590   0.57208   0.00000  Uiso   1.00
O992   O     0.24632   0.09488   0.61284   0.00000  Uiso   1.00
O993   O     0.28902   0.08461   0.54218   0.00000  Uiso   1.00
H994   H     0.30942   0.07589   0.55832   0.00000  Uiso   1.00
O995   O     0.21869   0.01095   0.71306   0.00000  Uiso   1.00
C996   C     0.22749   0.33081   0.66621   0.00000  Uiso   1.00
H997   H     0.22546   0.02396   0.64765   0.00000  Uiso   1.00
H998   H     0.20432   0.30458   0.65656   0.00000  Uiso   1.00
C999   C     0.27330   0.31904   0.65080   0.00000  Uiso   1.00
H1000  H     0.29624   0.01300   0.65818   0.00000  Uiso   1.00
H1001  H     0.27621   0.29328   0.66999   0.00000  Uiso   1.00
C1002  C     0.28560   0.30529   0.60023   0.00000  Uiso   1.00
H1003  H     0.26227   0.27892   0.59167   0.00000  Uiso   1.00
H1004  H     0.31800   0.29489   0.59096   0.00000  Uiso   1.00
H1005  H     0.28652   0.33175   0.58029   0.00000  Uiso   1.00
O1006  O     0.11382   0.32686   0.79340   0.00000  Uiso   1.00
C1007  C     0.07614   0.32933   0.77931   0.00000  Uiso   1.00
H1008  H     0.05597   0.29863   0.78330   0.00000  Uiso   1.00
H1009  H     0.08226   0.00144   0.74277   0.00000  Uiso   1.00
C1010  C     0.05071   0.02935   0.80968   0.00000  Uiso   1.00
H1011  H     0.04202   0.02139   0.84544   0.00000  Uiso   1.00
H1012  H     0.07066   0.06021   0.80787   0.00000  Uiso   1.00
C1013  C     0.00984   0.03259   0.79535   0.00000  Uiso   1.00
H1014  H     0.01792   0.04163   0.76004   0.00000  Uiso   1.00
H1015  H     0.32539   0.05677   0.81817   0.00000  Uiso   1.00
H1016  H     0.32213   0.00230   0.79752   0.00000  Uiso   1.00
O1017  O     0.23926   0.06662   0.98407   0.00000  Uiso   1.00
C1018  C     0.21716   0.02556   0.98564   0.00000  Uiso   1.00
H1019  H     0.22020   0.01182   0.95010   0.00000  Uiso   1.00
H1020  H     0.18209   0.02393   0.50195   0.00000  Uiso   1.00
C1021  C     0.23835   0.33243   0.50941   0.00000  Uiso   1.00
H1022  H     0.27361   0.00292   0.99445   0.00000  Uiso   1.00
H1023  H     0.23220   0.01010   0.54597   0.00000  Uiso   1.00
C1024  C     0.22138   0.28614   0.50473   0.00000  Uiso   1.00
H1025  H     0.18797   0.28042   0.52549   0.00000  Uiso   1.00
H1026  H     0.24143   0.26775   0.51717   0.00000  Uiso   1.00
H1027  H     0.22259   0.27504   0.96873   0.00000  Uiso   1.00
C1028  C     0.10987   0.25834   0.92466   0.00000  Uiso   1.00
O1029  O     0.07467   0.27005   0.93042   0.00000  Uiso   1.00
O1030  O     0.14622   0.27936   0.89711   0.00000  Uiso   1.00
H1031  H     0.13919   0.30345   0.88344   0.00000  Uiso   1.00
C1032  C     0.07491   0.18009   0.56288   0.00000  Uiso   1.00
O1033  O     0.07149   0.14509   0.57513   0.00000  Uiso   1.00
O1034  O     0.04881   0.20881   0.58961   0.00000  Uiso   1.00
H1035  H     0.02962   0.19732   0.61832   0.00000  Uiso   1.00
O1036  O     0.07050   0.25164   0.51819   0.00000  Uiso   1.00
C1037  C     0.09456   0.29016   0.52825   0.00000  Uiso   1.00
H1038  H     0.07840   0.31545   0.52116   0.00000  Uiso   1.00
H1039  H     0.12803   0.29429   0.50674   0.00000  Uiso   1.00
C1040  C     0.09466   0.29575   0.57861   0.00000  Uiso   1.00
H1041  H     0.06099   0.29188   0.59945   0.00000  Uiso   1.00
H1042  H     0.11197   0.27156   0.58609   0.00000  Uiso   1.00
C1043  C     0.11612   0.00538   0.59218   0.00000  Uiso   1.00
H1044  H     0.15104   0.00838   0.57620   0.00000  Uiso   1.00
H1045  H     0.11171   0.00939   0.62955   0.00000  Uiso   1.00
H1046  H     0.10168   0.03043   0.58208   0.00000  Uiso   1.00
C1047  C     0.13427   0.09054   0.89275   0.00000  Uiso   1.00
O1048  O     0.15195   0.06140   0.87070   0.00000  Uiso   1.00
O1049  O     0.09511   0.09734   0.88563   0.00000  Uiso   1.00
H1050  H     0.07954   0.11819   0.90897   0.00000  Uiso   1.00
Zn1051 Zn    0.52672   0.13994   0.78734   0.00000  Uiso   1.00
Zn1052 Zn    0.46713   0.12458   0.71875   0.00000  Uiso   1.00
Zn1053 Zn    0.54389   0.19775   0.70657   0.00000  Uiso   1.00
Zn1054 Zn    0.46226   0.20439   0.78733   0.00000  Uiso   1.00
O1055  O     0.50000   0.16667   0.75000   0.00000  Uiso   1.00
O1056  O     0.40405   0.18878   0.78213   0.00000  Uiso   1.00
O1057  O     0.58824   0.15226   0.77013   0.00000  Uiso   1.00
O1058  O     0.47093   0.06944   0.73413   0.00000  Uiso   1.00
O1059  O     0.53678   0.25620   0.71360   0.00000  Uiso   1.00
O1060  O     0.48784   0.12637   0.65458   0.00000  Uiso   1.00
O1061  O     0.46274   0.20391   0.84968   0.00000  Uiso   1.00
O1062  O     0.54157   0.17759   0.64606   0.00000  Uiso   1.00
O1063  O     0.50785   0.15880   0.84968   0.00000  Uiso   1.00
O1064  O     0.51264   0.08019   0.78213   0.00000  Uiso   1.00
O1065  O     0.47965   0.26085   0.77013   0.00000  Uiso   1.00
O1066  O     0.40745   0.13291   0.73413   0.00000  Uiso   1.00
O1067  O     0.60026   0.19272   0.71360   0.00000  Uiso   1.00
C1068  C     0.38594   0.15946   0.76009   0.00000  Uiso   1.00
C1069  C     0.61413   0.17384   0.74005   0.00000  Uiso   1.00
C1070  C     0.48880   0.05600   0.76054   0.00000  Uiso   1.00
C1071  C     0.50997   0.27805   0.74036   0.00000  Uiso   1.00
C1072  C     0.51815   0.14827   0.62895   0.00000  Uiso   1.00
C1073  C     0.48080   0.18393   0.87174   0.00000  Uiso   1.00
C1074  C     0.54649   0.09528   0.51009   0.00000  Uiso   1.00
H1075  H     0.52564   0.06948   0.93091   0.00000  Uiso   1.00
C1076  C     0.52430   0.13965   0.57987   0.00000  Uiso   1.00
C1077  C     0.44769   0.22226   0.94758   0.00000  Uiso   1.00
C1078  C     0.43085   0.22254   0.99519   0.00000  Uiso   1.00
C1079  C     0.43824   0.19067   0.51845   0.00000  Uiso   1.00
C1080  C     0.46875   0.16367   0.99492   0.00000  Uiso   1.00
C1081  C     0.47429   0.15567   0.94760   0.00000  Uiso   1.00
C1082  C     0.49389   0.14414   0.51618   0.00000  Uiso   1.00
C1083  C     0.51802   0.11231   0.99123   0.00000  Uiso   1.00
C1084  C     0.51211   0.09717   0.94822   0.00000  Uiso   1.00
C1085  C     0.48684   0.11625   0.92801   0.00000  Uiso   1.00
C1086  C     0.49816   0.15771   0.56016   0.00000  Uiso   1.00
C1087  C     0.55095   0.11013   0.55418   0.00000  Uiso   1.00
C1088  C     0.46741   0.18724   0.92268   0.00000  Uiso   1.00
H1089  H     0.48139   0.18281   0.57986   0.00000  Uiso   1.00
C1090  C     0.65994   0.17689   0.73632   0.00000  Uiso   1.00
H1091  H     0.34895   0.19558   0.71115   0.00000  Uiso   1.00
C1092  C     0.34072   0.15674   0.76378   0.00000  Uiso   1.00
H1093  H     0.65243   0.13762   0.78896   0.00000  Uiso   1.00
C1094  C     0.51421   0.32311   0.73768   0.00000  Uiso   1.00
C1095  C     0.48341   0.01182   0.76364   0.00000  Uiso   1.00
C1096  C     0.58447   0.09590   0.57208   0.00000  Uiso   1.00
O1097  O     0.57965   0.09488   0.61284   0.00000  Uiso   1.00
O1098  O     0.62235   0.08461   0.54218   0.00000  Uiso   1.00
H1099  H     0.64275   0.07589   0.55832   0.00000  Uiso   1.00
O1100  O     0.55202   0.01095   0.71306   0.00000  Uiso   1.00
C1101  C     0.56082   0.33081   0.66621   0.00000  Uiso   1.00
H1102  H     0.55879   0.02396   0.64765   0.00000  Uiso   1.00
H1103  H     0.53765   0.30458   0.65656   0.00000  Uiso   1.00
C1104  C     0.60664   0.31904   0.65080   0.00000  Uiso   1.00
H1105  H     0.62958   0.01300   0.65818   0.00000  Uiso   1.00
H1106  H     0.60955   0.29328   0.66999   0.00000  Uiso   1.00
C1107  C     0.61893   0.30529   0.60023   0.00000  Uiso   1.00
H1108  H     0.59561   0.27892   0.59167   0.00000  Uiso   1.00
H1109  H     0.65134   0.29489   0.59096   0.00000  Uiso   1.00
H1110  H     0.61985   0.33175   0.58029   0.00000  Uiso   1.00
O1111  O     0.44715   0.32686   0.79340   0.00000  Uiso   1.00
C1112  C     0.40947   0.32933   0.77931   0.00000  Uiso   1.00
H1113  H     0.38931   0.29863   0.78330   0.00000  Uiso   1.00
H1114  H     0.41559   0.00144   0.74277   0.00000  Uiso   1.00
C1115  C     0.38405   0.02935   0.80968   0.00000  Uiso   1.00
H1116  H     0.37535   0.02139   0.84544   0.00000  Uiso   1.00
H1117  H     0.40399   0.06021   0.80787   0.00000  Uiso   1.00
C1118  C     0.34317   0.03259   0.79535   0.00000  Uiso   1.00
H1119  H     0.35126   0.04163   0.76004   0.00000  Uiso   1.00
H1120  H     0.65872   0.05677   0.81817   0.00000  Uiso   1.00
H1121  H     0.65547   0.00230   0.79752   0.00000  Uiso   1.00
O1122  O     0.57259   0.06662   0.98407   0.00000  Uiso   1.00
C1123  C     0.55050   0.02556   0.98564   0.00000  Uiso   1.00
H1124  H     0.55353   0.01182   0.95010   0.00000  Uiso   1.00
H1125  H     0.51542   0.02393   0.50195   0.00000  Uiso   1.00
C1126  C     0.57169   0.33243   0.50941   0.00000  Uiso   1.00
H1127  H     0.60694   0.00292   0.99445   0.00000  Uiso   1.00
H1128  H     0.56553   0.01010   0.54597   0.00000  Uiso   1.00
C1129  C     0.55471   0.28614   0.50473   0.00000  Uiso   1.00
H1130  H     0.52130   0.28042   0.52549   0.00000  Uiso   1.00
H1131  H     0.57476   0.26775   0.51717   0.00000  Uiso   1.00
H1132  H     0.55593   0.27504   0.96873   0.00000  Uiso   1.00
C1133  C     0.44321   0.25834   0.92466   0.00000  Uiso   1.00
O1134  O     0.40800   0.27005   0.93042   0.00000  Uiso   1.00
O1135  O     0.47955   0.27936   0.89711   0.00000  Uiso   1.00
H1136  H     0.47253   0.30345   0.88344   0.00000  Uiso   1.00
C1137  C     0.40824   0.18009   0.56288   0.00000  Uiso   1.00
O1138  O     0.40483   0.14509   0.57513   0.00000  Uiso   1.00
O1139  O     0.38215   0.20881   0.58961   0.00000  Uiso   1.00
H1140  H     0.36295   0.19732   0.61832   0.00000  Uiso   1.00
O1141  O     0.40383   0.25164   0.51819   0.00000  Uiso   1.00
C1142  C     0.42789   0.29016   0.52825   0.00000  Uiso   1.00
H1143  H     0.41173   0.31545   0.52116   0.00000  Uiso   1.00
H1144  H     0.46137   0.29429   0.50674   0.00000  Uiso   1.00
C1145  C     0.42799   0.29575   0.57861   0.00000  Uiso   1.00
H1146  H     0.39433   0.29188   0.59945   0.00000  Uiso   1.00
H1147  H     0.44530   0.27156   0.58609   0.00000  Uiso   1.00
C1148  C     0.44945   0.00538   0.59218   0.00000  Uiso   1.00
H1149  H     0.48438   0.00838   0.57620   0.00000  Uiso   1.00
H1150  H     0.44505   0.00939   0.62955   0.00000  Uiso   1.00
H1151  H     0.43501   0.03043   0.58208   0.00000  Uiso   1.00
C1152  C     0.46760   0.09054   0.89275   0.00000  Uiso   1.00
O1153  O     0.48528   0.06140   0.87070   0.00000  Uiso   1.00
O1154  O     0.42845   0.09734   0.88563   0.00000  Uiso   1.00
H1155  H     0.41288   0.11819   0.90897   0.00000  Uiso   1.00
Zn1156 Zn    0.86005   0.13994   0.78734   0.00000  Uiso   1.00
Zn1157 Zn    0.80046   0.12458   0.71875   0.00000  Uiso   1.00
Zn1158 Zn    0.87723   0.19775   0.70657   0.00000  Uiso   1.00
Zn1159 Zn    0.79560   0.20439   0.78733   0.00000  Uiso   1.00
O1160  O     0.83333   0.16667   0.75000   0.00000  Uiso   1.00
O1161  O     0.73738   0.18878   0.78213   0.00000  Uiso   1.00
O1162  O     0.92158   0.15226   0.77013   0.00000  Uiso   1.00
O1163  O     0.80426   0.06944   0.73413   0.00000  Uiso   1.00
O1164  O     0.87012   0.25620   0.71360   0.00000  Uiso   1.00
O1165  O     0.82118   0.12637   0.65458   0.00000  Uiso   1.00
O1166  O     0.79607   0.20391   0.84968   0.00000  Uiso   1.00
O1167  O     0.87491   0.17759   0.64606   0.00000  Uiso   1.00
O1168  O     0.84118   0.15880   0.84968   0.00000  Uiso   1.00
O1169  O     0.84597   0.08019   0.78213   0.00000  Uiso   1.00
O1170  O     0.81298   0.26085   0.77013   0.00000  Uiso   1.00
O1171  O     0.74078   0.13291   0.73413   0.00000  Uiso   1.00
O1172  O     0.93360   0.19272   0.71360   0.00000  Uiso   1.00
C1173  C     0.71928   0.15946   0.76009   0.00000  Uiso   1.00
C1174  C     0.94747   0.17384   0.74005   0.00000  Uiso   1.00
C1175  C     0.82213   0.05600   0.76054   0.00000  Uiso   1.00
C1176  C     0.84330   0.27805   0.74036   0.00000  Uiso   1.00
C1177  C     0.85149   0.14827   0.62895   0.00000  Uiso   1.00
C1178  C     0.81413   0.18393   0.87174   0.00000  Uiso   1.00
C1179  C     0.87982   0.09528   0.51009   0.00000  Uiso   1.00
H1180  H     0.85897   0.06948   0.93091   0.00000  Uiso   1.00
C1181  C     0.85764   0.13965   0.57987   0.00000  Uiso   1.00
C1182  C     0.78103   0.22226   0.94758   0.00000  Uiso   1.00
C1183  C     0.76419   0.22254   0.99519   0.00000  Uiso   1.00
C1184  C     0.77157   0.19067   0.51845   0.00000  Uiso   1.00
C1185  C     0.80209   0.16367   0.99492   0.00000  Uiso   1.00
C1186  C     0.80762   0.15567   0.94760   0.00000  Uiso   1.00
C1187  C     0.82723   0.14414   0.51618   0.00000  Uiso   1.00
C1188  C     0.85135   0.11231   0.99123   0.00000  Uiso   1.00
C1189  C     0.84544   0.09717   0.94822   0.00000  Uiso   1.00
C1190  C     0.82018   0.11625   0.92801   0.00000  Uiso   1.00
C1191  C     0.83149   0.15771   0.56016   0.00000  Uiso   1.00
C1192  C     0.88428   0.11013   0.55418   0.00000  Uiso   1.00
C1193  C     0.80075   0.18724   0.92268   0.00000  Uiso   1.00
H1194  H     0.81473   0.18281   0.57986   0.00000  Uiso   1.00
C1195  C     0.99328   0.17689   0.73632   0.00000  Uiso   1.00
H1196  H     0.68229   0.19558   0.71115   0.00000  Uiso   1.00
C1197  C     0.67405   0.15674   0.76378   0.00000  Uiso   1.00
H1198  H     0.98577   0.13762   0.78896   0.00000  Uiso   1.00
C1199  C     0.84754   0.32311   0.73768   0.00000  Uiso   1.00
C1200  C     0.81674   0.01182   0.76364   0.00000  Uiso   1.00
C1201  C     0.91780   0.09590   0.57208   0.00000  Uiso   1.00
O1202  O     0.91298   0.09488   0.61284   0.00000  Uiso   1.00
O1203  O     0.95569   0.08461   0.54218   0.00000  Uiso   1.00
H1204  H     0.97608   0.07589   0.55832   0.00000  Uiso   1.00
O1205  O     0.88536   0.01095   0.71306   0.00000  Uiso   1.00
C1206  C     0.89415   0.33081   0.66621   0.00000  Uiso   1.00
H1207  H     0.89212   0.02396   0.64765   0.00000  Uiso   1.00
H1208  H     0.87099   0.30458   0.65656   0.00000  Uiso   1.00
C1209  C     0.93997   0.31904   0.65080   0.00000  Uiso   1.00
H1210  H     0.96291   0.01300   0.65818   0.00000  Uiso   1.00
H1211  H     0.94288   0.29328   0.66999   0.00000  Uiso   1.00
C1212  C     0.95226   0.30529   0.60023   0.00000  Uiso   1.00
H1213  H     0.92894   0.27892   0.59167   0.00000  Uiso   1.00
H1214  H     0.98467   0.29489   0.59096   0.00000  Uiso   1.00
H1215  H     0.95319   0.33175   0.58029   0.00000  Uiso   1.00
O1216  O     0.78049   0.32686   0.79340   0.00000  Uiso   1.00
C1217  C     0.74280   0.32933   0.77931   0.00000  Uiso   1.00
H1218  H     0.72264   0.29863   0.78330   0.00000  Uiso   1.00
H1219  H     0.74892   0.00144   0.74277   0.00000  Uiso   1.00
C1220  C     0.71738   0.02935   0.80968   0.00000  Uiso   1.00
H1221  H     0.70869   0.02139   0.84544   0.00000  Uiso   1.00
H1222  H     0.73732   0.06021   0.80787   0.00000  Uiso   1.00
C1223  C     0.67650   0.03259   0.79535   0.00000  Uiso   1.00
H1224  H     0.68459   0.04163   0.76004   0.00000  Uiso   1.00
H1225  H     0.99205   0.05677   0.81817   0.00000  Uiso   1.00
H1226  H     0.98880   0.00230   0.79752   0.00000  Uiso   1.00
O1227  O     0.90592   0.06662   0.98407   0.00000  Uiso   1.00
C1228  C     0.88383   0.02556   0.98564   0.00000  Uiso   1.00
H1229  H     0.88686   0.01182   0.95010   0.00000  Uiso   1.00
H1230  H     0.84875   0.02393   0.50195   0.00000  Uiso   1.00
C1231  C     0.90502   0.33243   0.50941   0.00000  Uiso   1.00
H1232  H     0.94028   0.00292   0.99445   0.00000  Uiso   1.00
H1233  H     0.89887   0.01010   0.54597   0.00000  Uiso   1.00
C1234  C     0.88804   0.28614   0.50473   0.00000  Uiso   1.00
H1235  H     0.85464   0.28042   0.52549   0.00000  Uiso   1.00
H1236  H     0.90810   0.26775   0.51717   0.00000  Uiso   1.00
H1237  H     0.88926   0.27504   0.96873   0.00000  Uiso   1.00
C1238  C     0.77654   0.25834   0.92466   0.00000  Uiso   1.00
O1239  O     0.74133   0.27005   0.93042   0.00000  Uiso   1.00
O1240  O     0.81288   0.27936   0.89711   0.00000  Uiso   1.00
H1241  H     0.80586   0.30345   0.88344   0.00000  Uiso   1.00
C1242  C     0.74157   0.18009   0.56288   0.00000  Uiso   1.00
O1243  O     0.73816   0.14509   0.57513   0.00000  Uiso   1.00
O1244  O     0.71548   0.20881   0.58961   0.00000  Uiso   1.00
H1245  H     0.69628   0.19732   0.61832   0.00000  Uiso   1.00
O1246  O     0.73716   0.25164   0.51819   0.00000  Uiso   1.00
C1247  C     0.76122   0.29016   0.52825   0.00000  Uiso   1.00
H1248  H     0.74506   0.31545   0.52116   0.00000  Uiso   1.00
H1249  H     0.79470   0.29429   0.50674   0.00000  Uiso   1.00
C1250  C     0.76132   0.29575   0.57861   0.00000  Uiso   1.00
H1251  H     0.72766   0.29188   0.59945   0.00000  Uiso   1.00
H1252  H     0.77863   0.27156   0.58609   0.00000  Uiso   1.00
C1253  C     0.78278   0.00538   0.59218   0.00000  Uiso   1.00
H1254  H     0.81771   0.00838   0.57620   0.00000  Uiso   1.00
H1255  H     0.77838   0.00939   0.62955   0.00000  Uiso   1.00
H1256  H     0.76835   0.03043   0.58208   0.00000  Uiso   1.00
C1257  C     0.80094   0.09054   0.89275   0.00000  Uiso   1.00
O1258  O     0.81861   0.06140   0.87070   0.00000  Uiso   1.00
O1259  O     0.76178   0.09734   0.88563   0.00000  Uiso   1.00
H1260  H     0.74621   0.11819   0.90897   0.00000  Uiso   1.00
Zn1261 Zn    0.19338   0.47327   0.78734   0.00000  Uiso   1.00
Zn1262 Zn    0.13379   0.45791   0.71875   0.00000  Uiso   1.00
Zn1263 Zn    0.21056   0.53109   0.70657   0.00000  Uiso   1.00
Zn1264 Zn    0.12893   0.53773   0.78733   0.00000  Uiso   1.00
O1265  O     0.16667   0.50000   0.75000   0.00000  Uiso   1.00
O1266  O     0.07071   0.52211   0.78213   0.00000  Uiso   1.00
O1267  O     0.25491   0.48559   0.77013   0.00000  Uiso   1.00
O1268  O     0.13760   0.40277   0.73413   0.00000  Uiso   1.00
O1269  O     0.20345   0.58953   0.71360   0.00000  Uiso   1.00
O1270  O     0.15451   0.45970   0.65458   0.00000  Uiso   1.00
O1271  O     0.12940   0.53724   0.84968   0.00000  Uiso   1.00
O1272  O     0.20824   0.51092   0.64606   0.00000  Uiso   1.00
O1273  O     0.17451   0.49213   0.84968   0.00000  Uiso   1.00
O1274  O     0.17930   0.41352   0.78213   0.00000  Uiso   1.00
O1275  O     0.14632   0.59418   0.77013   0.00000  Uiso   1.00
O1276  O     0.07412   0.46625   0.73413   0.00000  Uiso   1.00
O1277  O     0.26693   0.52605   0.71360   0.00000  Uiso   1.00
C1278  C     0.05261   0.49279   0.76009   0.00000  Uiso   1.00
C1279  C     0.28080   0.50717   0.74005   0.00000  Uiso   1.00
C1280  C     0.15546   0.38934   0.76054   0.00000  Uiso   1.00
C1281  C     0.17664   0.61138   0.74036   0.00000  Uiso   1.00
C1282  C     0.18482   0.48160   0.62895   0.00000  Uiso   1.00
C1283  C     0.14747   0.51726   0.87174   0.00000  Uiso   1.00
C1284  C     0.21316   0.42861   0.51009   0.00000  Uiso   1.00
H1285  H     0.19230   0.40281   0.93091   0.00000  Uiso   1.00
C1286  C     0.19097   0.47299   0.57987   0.00000  Uiso   1.00
C1287  C     0.11436   0.55560   0.94758   0.00000  Uiso   1.00
C1288  C     0.09752   0.55587   0.99519   0.00000  Uiso   1.00
C1289  C     0.10491   0.52400   0.51845   0.00000  Uiso   1.00
C1290  C     0.13542   0.49700   0.99492   0.00000  Uiso   1.00
C1291  C     0.14095   0.48900   0.94760   0.00000  Uiso   1.00
C1292  C     0.16056   0.47748   0.51618   0.00000  Uiso   1.00
C1293  C     0.18469   0.44564   0.99123   0.00000  Uiso   1.00
C1294  C     0.17877   0.43050   0.94822   0.00000  Uiso   1.00
C1295  C     0.15351   0.44959   0.92801   0.00000  Uiso   1.00
C1296  C     0.16482   0.49104   0.56016   0.00000  Uiso   1.00
C1297  C     0.21761   0.44346   0.55418   0.00000  Uiso   1.00
C1298  C     0.13408   0.52057   0.92268   0.00000  Uiso   1.00
H1299  H     0.14806   0.51614   0.57986   0.00000  Uiso   1.00
C1300  C     0.32661   0.51022   0.73632   0.00000  Uiso   1.00
H1301  H     0.01562   0.52891   0.71115   0.00000  Uiso   1.00
C1302  C     0.00738   0.49007   0.76378   0.00000  Uiso   1.00
H1303  H     0.31910   0.47096   0.78896   0.00000  Uiso   1.00
C1304  C     0.18087   0.65644   0.73768   0.00000  Uiso   1.00
C1305  C     0.15008   0.34516   0.76364   0.00000  Uiso   1.00
C1306  C     0.25113   0.42924   0.57208   0.00000  Uiso   1.00
O1307  O     0.24632   0.42822   0.61284   0.00000  Uiso   1.00
O1308  O     0.28902   0.41794   0.54218   0.00000  Uiso   1.00
H1309  H     0.30942   0.40922   0.55832   0.00000  Uiso   1.00
O1310  O     0.21869   0.34428   0.71306   0.00000  Uiso   1.00
C1311  C     0.22749   0.66415   0.66621   0.00000  Uiso   1.00
H1312  H     0.22546   0.35730   0.64765   0.00000  Uiso   1.00
H1313  H     0.20432   0.63791   0.65656   0.00000  Uiso   1.00
C1314  C     0.27330   0.65237   0.65080   0.00000  Uiso   1.00
H1315  H     0.29624   0.34633   0.65818   0.00000  Uiso   1.00
H1316  H     0.27621   0.62661   0.66999   0.00000  Uiso   1.00
C1317  C     0.28560   0.63862   0.60023   0.00000  Uiso   1.00
H1318  H     0.26227   0.61226   0.59167   0.00000  Uiso   1.00
H1319  H     0.31800   0.62822   0.59096   0.00000  Uiso   1.00
H1320  H     0.28652   0.66509   0.58029   0.00000  Uiso   1.00
O1321  O     0.11382   0.66019   0.79340   0.00000  Uiso   1.00
C1322  C     0.07614   0.66266   0.77931   0.00000  Uiso   1.00
H1323  H     0.05597   0.63196   0.78330   0.00000  Uiso   1.00
H1324  H     0.08226   0.33477   0.74277   0.00000  Uiso   1.00
C1325  C     0.05071   0.36269   0.80968   0.00000  Uiso   1.00
H1326  H     0.04202   0.35472   0.84544   0.00000  Uiso   1.00
H1327  H     0.07066   0.39354   0.80787   0.00000  Uiso   1.00
C1328  C     0.00984   0.36593   0.79535   0.00000  Uiso   1.00
H1329  H     0.01792   0.37496   0.76004   0.00000  Uiso   1.00
H1330  H     0.32539   0.39010   0.81817   0.00000  Uiso   1.00
H1331  H     0.32213   0.33564   0.79752   0.00000  Uiso   1.00
O1332  O     0.23926   0.39996   0.98407   0.00000  Uiso   1.00
C1333  C     0.21716   0.35890   0.98564   0.00000  Uiso   1.00
H1334  H     0.22020   0.34515   0.95010   0.00000  Uiso   1.00
H1335  H     0.18209   0.35727   0.50195   0.00000  Uiso   1.00
C1336  C     0.23835   0.66576   0.50941   0.00000  Uiso   1.00
H1337  H     0.27361   0.33625   0.99445   0.00000  Uiso   1.00
H1338  H     0.23220   0.34344   0.54597   0.00000  Uiso   1.00
C1339  C     0.22138   0.61947   0.50473   0.00000  Uiso   1.00
H1340  H     0.18797   0.61375   0.52549   0.00000  Uiso   1.00
H1341  H     0.24143   0.60109   0.51717   0.00000  Uiso   1.00
H1342  H     0.22259   0.60837   0.96873   0.00000  Uiso   1.00
C1343  C     0.10987   0.59167   0.92466   0.00000  Uiso   1.00
O1344  O     0.07467   0.60338   0.93042   0.00000  Uiso   1.00
O1345  O     0.14622   0.61269   0.89711   0.00000  Uiso   1.00
H1346  H     0.13919   0.63678   0.88344   0.00000  Uiso   1.00
C1347  C     0.07491   0.51343   0.56288   0.00000  Uiso   1.00
O1348  O     0.07149   0.47842   0.57513   0.00000  Uiso   1.00
O1349  O     0.04881   0.54214   0.58961   0.00000  Uiso   1.00
H1350  H     0.02962   0.53065   0.61832   0.00000  Uiso   1.00
O1351  O     0.07050   0.58497   0.51819   0.00000  Uiso   1.00
C1352  C     0.09456   0.62350   0.52825   0.00000  Uiso   1.00
H1353  H     0.07840   0.64878   0.52116   0.00000  Uiso   1.00
H1354  H     0.12803   0.62762   0.50674   0.00000  Uiso   1.00
C1355  C     0.09466   0.62908   0.57861   0.00000  Uiso   1.00
H1356  H     0.06099   0.62522   0.59945   0.00000  Uiso   1.00
H1357  H     0.11197   0.60490   0.58609   0.00000  Uiso   1.00
C1358  C     0.11612   0.33872   0.59218   0.00000  Uiso   1.00
H1359  H     0.15104   0.34172   0.57620   0.00000  Uiso   1.00
H1360  H     0.11171   0.34272   0.62955   0.00000  Uiso   1.00
H1361  H     0.10168   0.36377   0.58208   0.00000  Uiso   1.00
C1362  C     0.13427   0.42387   0.89275   0.00000  Uiso   1.00
O1363  O     0.15195   0.39473   0.87070   0.00000  Uiso   1.00
O1364  O     0.09511   0.43068   0.88563   0.00000  Uiso   1.00
H1365  H     0.07954   0.45152   0.90897   0.00000  Uiso   1.00
Zn1366 Zn    0.52672   0.47327   0.78734   0.00000  Uiso   1.00
Zn1367 Zn    0.46713   0.45791   0.71875   0.00000  Uiso   1.00
Zn1368 Zn    0.54389   0.53109   0.70657   0.00000  Uiso   1.00
Zn1369 Zn    0.46226   0.53773   0.78733   0.00000  Uiso   1.00
O1370  O     0.50000   0.50000   0.75000   0.00000  Uiso   1.00
O1371  O     0.40405   0.52211   0.78213   0.00000  Uiso   1.00
O1372  O     0.58824   0.48559   0.77013   0.00000  Uiso   1.00
O1373  O     0.47093   0.40277   0.73413   0.00000  Uiso   1.00
O1374  O     0.53678   0.58953   0.71360   0.00000  Uiso   1.00
O1375  O     0.48784   0.45970   0.65458   0.00000  Uiso   1.00
O1376  O     0.46274   0.53724   0.84968   0.00000  Uiso   1.00
O1377  O     0.54157   0.51092   0.64606   0.00000  Uiso   1.00
O1378  O     0.50785   0.49213   0.84968   0.00000  Uiso   1.00
O1379  O     0.51264   0.41352   0.78213   0.00000  Uiso   1.00
O1380  O     0.47965   0.59418   0.77013   0.00000  Uiso   1.00
O1381  O     0.40745   0.46625   0.73413   0.00000  Uiso   1.00
O1382  O     0.60026   0.52605   0.71360   0.00000  Uiso   1.00
C1383  C     0.38594   0.49279   0.76009   0.00000  Uiso   1.00
C1384  C     0.61413   0.50717   0.74005   0.00000  Uiso   1.00
C1385  C     0.48880   0.38934   0.76054   0.00000  Uiso   1.00
C1386  C     0.50997   0.61138   0.74036   0.00000  Uiso   1.00
C1387  C     0.51815   0.48160   0.62895   0.00000  Uiso   1.00
C1388  C     0.48080   0.51726   0.87174   0.00000  Uiso   1.00
C1389  C     0.54649   0.42861   0.51009   0.00000  Uiso   1.00
H1390  H     0.52564   0.40281   0.93091   0.00000  Uiso   1.00
C1391  C     0.52430   0.47299   0.57987   0.00000  Uiso   1.00
C1392  C     0.44769   0.55560   0.94758   0.00000  Uiso   1.00
C1393  C     0.43085   0.55587   0.99519   0.00000  Uiso   1.00
C1394  C     0.43824   0.52400   0.51845   0.00000  Uiso   1.00
C1395  C     0.46875   0.49700   0.99492   0.00000  Uiso   1.00
C1396  C     0.47429   0.48900   0.94760   0.00000  Uiso   1.00
C1397  C     0.49389   0.47748   0.51618   0.00000  Uiso   1.00
C1398  C     0.51802   0.44564   0.99123   0.00000  Uiso   1.00
C1399  C     0.51211   0.43050   0.94822   0.00000  Uiso   1.00
C1400  C     0.48684   0.44959   0.92801   0.00000  Uiso   1.00
C1401  C     0.49816   0.49104   0.56016   0.00000  Uiso   1.00
C1402  C     0.55095   0.44346   0.55418   0.00000  Uiso   1.00
C1403  C     0.46741   0.52057   0.92268   0.00000  Uiso   1.00
H1404  H     0.48139   0.51614   0.57986   0.00000  Uiso   1.00
C1405  C     0.65994   0.51022   0.73632   0.00000  Uiso   1.00
H1406  H     0.34895   0.52891   0.71115   0.00000  Uiso   1.00
C1407  C     0.34072   0.49007   0.76378   0.00000  Uiso   1.00
H1408  H     0.65243   0.47096   0.78896   0.00000  Uiso   1.00
C1409  C     0.51421   0.65644   0.73768   0.00000  Uiso   1.00
C1410  C     0.48341   0.34516   0.76364   0.00000  Uiso   1.00
C1411  C     0.58447   0.42924   0.57208   0.00000  Uiso   1.00
O1412  O     0.57965   0.42822   0.61284   0.00000  Uiso   1.00
O1413  O     0.62235   0.41794   0.54218   0.00000  Uiso   1.00
H1414  H     0.64275   0.40922   0.55832   0.00000  Uiso   1.00
O1415  O     0.55202   0.34428   0.71306   0.00000  Uiso   1.00
C1416  C     0.56082   0.66415   0.66621   0.00000  Uiso   1.00
H1417  H     0.55879   0.35730   0.64765   0.00000  Uiso   1.00
H1418  H     0.53765   0.63791   0.65656   0.00000  Uiso   1.00
C1419  C     0.60664   0.65237   0.65080   0.00000  Uiso   1.00
H1420  H     0.62958   0.34633   0.65818   0.00000  Uiso   1.00
H1421  H     0.60955   0.62661   0.66999   0.00000  Uiso   1.00
C1422  C     0.61893   0.63862   0.60023   0.00000  Uiso   1.00
H1423  H     0.59561   0.61226   0.59167   0.00000  Uiso   1.00
H1424  H     0.65134   0.62822   0.59096   0.00000  Uiso   1.00
H1425  H     0.61985   0.66509   0.58029   0.00000  Uiso   1.00
O1426  O     0.44715   0.66019   0.79340   0.00000  Uiso   1.00
C1427  C     0.40947   0.66266   0.77931   0.00000  Uiso   1.00
H1428  H     0.38931   0.63196   0.78330   0.00000  Uiso   1.00
H1429  H     0.41559   0.33477   0.74277   0.00000  Uiso   1.00
C1430  C     0.38405   0.36269   0.80968   0.00000  Uiso   1.00
H1431  H     0.37535   0.35472   0.84544   0.00000  Uiso   1.00
H1432  H     0.40399   0.39354   0.80787   0.00000  Uiso   1.00
C1433  C     0.34317   0.36593   0.79535   0.00000  Uiso   1.00
H1434  H     0.35126   0.37496   0.76004   0.00000  Uiso   1.00
H1435  H     0.65872   0.39010   0.81817   0.00000  Uiso   1.00
H1436  H     0.65547   0.33564   0.79752   0.00000  Uiso   1.00
O1437  O     0.57259   0.39996   0.98407   0.00000  Uiso   1.00
C1438  C     0.55050   0.35890   0.98564   0.00000  Uiso   1.00
H1439  H     0.55353   0.34515   0.95010   0.00000  Uiso   1.00
H1440  H     0.51542   0.35727   0.50195   0.00000  Uiso   1.00
C1441  C     0.57169   0.66576   0.50941   0.00000  Uiso   1.00
H1442  H     0.60694   0.33625   0.99445   0.00000  Uiso   1.00
H1443  H     0.56553   0.34344   0.54597   0.00000  Uiso   1.00
C1444  C     0.55471   0.61947   0.50473   0.00000  Uiso   1.00
H1445  H     0.52130   0.61375   0.52549   0.00000  Uiso   1.00
H1446  H     0.57476   0.60109   0.51717   0.00000  Uiso   1.00
H1447  H     0.55593   0.60837   0.96873   0.00000  Uiso   1.00
C1448  C     0.44321   0.59167   0.92466   0.00000  Uiso   1.00
O1449  O     0.40800   0.60338   0.93042   0.00000  Uiso   1.00
O1450  O     0.47955   0.61269   0.89711   0.00000  Uiso   1.00
H1451  H     0.47253   0.63678   0.88344   0.00000  Uiso   1.00
C1452  C     0.40824   0.51343   0.56288   0.00000  Uiso   1.00
O1453  O     0.40483   0.47842   0.57513   0.00000  Uiso   1.00
O1454  O     0.38215   0.54214   0.58961   0.00000  Uiso   1.00
H1455  H     0.36295   0.53065   0.61832   0.00000  Uiso   1.00
O1456  O     0.40383   0.58497   0.51819   0.00000  Uiso   1.00
C1457  C     0.42789   0.62350   0.52825   0.00000  Uiso   1.00
H1458  H     0.41173   0.64878   0.52116   0.00000  Uiso   1.00
H1459  H     0.46137   0.62762   0.50674   0.00000  Uiso   1.00
C1460  C     0.42799   0.62908   0.57861   0.00000  Uiso   1.00
H1461  H     0.39433   0.62522   0.59945   0.00000  Uiso   1.00
H1462  H     0.44530   0.60490   0.58609   0.00000  Uiso   1.00
C1463  C     0.44945   0.33872   0.59218   0.00000  Uiso   1.00
H1464  H     0.48438   0.34172   0.57620   0.00000  Uiso   1.00
H1465  H     0.44505   0.34272   0.62955   0.00000  Uiso   1.00
H1466  H     0.43501   0.36377   0.58208   0.00000  Uiso   1.00
C1467  C     0.46760   0.42387   0.89275   0.00000  Uiso   1.00
O1468  O     0.48528   0.39473   0.87070   0.00000  Uiso   1.00
O1469  O     0.42845   0.43068   0.88563   0.00000  Uiso   1.00
H1470  H     0.41288   0.45152   0.90897   0.00000  Uiso   1.00
Zn1471 Zn    0.86005   0.47327   0.78734   0.00000  Uiso   1.00
Zn1472 Zn    0.80046   0.45791   0.71875   0.00000  Uiso   1.00
Zn1473 Zn    0.87723   0.53109   0.70657   0.00000  Uiso   1.00
Zn1474 Zn    0.79560   0.53773   0.78733   0.00000  Uiso   1.00
O1475  O     0.83333   0.50000   0.75000   0.00000  Uiso   1.00
O1476  O     0.73738   0.52211   0.78213   0.00000  Uiso   1.00
O1477  O     0.92158   0.48559   0.77013   0.00000  Uiso   1.00
O1478  O     0.80426   0.40277   0.73413   0.00000  Uiso   1.00
O1479  O     0.87012   0.58953   0.71360   0.00000  Uiso   1.00
O1480  O     0.82118   0.45970   0.65458   0.00000  Uiso   1.00
O1481  O     0.79607   0.53724   0.84968   0.00000  Uiso   1.00
O1482  O     0.87491   0.51092   0.64606   0.00000  Uiso   1.00
O1483  O     0.84118   0.49213   0.84968   0.00000  Uiso   1.00
O1484  O     0.84597   0.41352   0.78213   0.00000  Uiso   1.00
O1485  O     0.81298   0.59418   0.77013   0.00000  Uiso   1.00
O1486  O     0.74078   0.46625   0.73413   0.00000  Uiso   1.00
O1487  O     0.93360   0.52605   0.71360   0.00000  Uiso   1.00
C1488  C     0.71928   0.49279   0.76009   0.00000  Uiso   1.00
C1489  C     0.94747   0.50717   0.74005   0.00000  Uiso   1.00
C1490  C     0.82213   0.38934   0.76054   0.00000  Uiso   1.00
C1491  C     0.84330   0.61138   0.74036   0.00000  Uiso   1.00
C1492  C     0.85149   0.48160   0.62895   0.00000  Uiso   1.00
C1493  C     0.81413   0.51726   0.87174   0.00000  Uiso   1.00
C1494  C     0.87982   0.42861   0.51009   0.00000  Uiso   1.00
H1495  H     0.85897   0.40281   0.93091   0.00000  Uiso   1.00
C1496  C     0.85764   0.47299   0.57987   0.00000  Uiso   1.00
C1497  C     0.78103   0.55560   0.94758   0.00000  Uiso   1.00
C1498  C     0.76419   0.55587   0.99519   0.00000  Uiso   1.00
C1499  C     0.77157   0.52400   0.51845   0.00000  Uiso   1.00
C1500  C     0.80209   0.49700   0.99492   0.00000  Uiso   1.00
C1501  C     0.80762   0.48900   0.94760   0.00000  Uiso   1.00
C1502  C     0.82723   0.47748   0.51618   0.00000  Uiso   1.00
C1503  C     0.85135   0.44564   0.99123   0.00000  Uiso   1.00
C1504  C     0.84544   0.43050   0.94822   0.00000  Uiso   1.00
C1505  C     0.82018   0.44959   0.92801   0.00000  Uiso   1.00
C1506  C     0.83149   0.49104   0.56016   0.00000  Uiso   1.00
C1507  C     0.88428   0.44346   0.55418   0.00000  Uiso   1.00
C1508  C     0.80075   0.52057   0.92268   0.00000  Uiso   1.00
H1509  H     0.81473   0.51614   0.57986   0.00000  Uiso   1.00
C1510  C     0.99328   0.51022   0.73632   0.00000  Uiso   1.00
H1511  H     0.68229   0.52891   0.71115   0.00000  Uiso   1.00
C1512  C     0.67405   0.49007   0.76378   0.00000  Uiso   1.00
H1513  H     0.98577   0.47096   0.78896   0.00000  Uiso   1.00
C1514  C     0.84754   0.65644   0.73768   0.00000  Uiso   1.00
C1515  C     0.81674   0.34516   0.76364   0.00000  Uiso   1.00
C1516  C     0.91780   0.42924   0.57208   0.00000  Uiso   1.00
O1517  O     0.91298   0.42822   0.61284   0.00000  Uiso   1.00
O1518  O     0.95569   0.41794   0.54218   0.00000  Uiso   1.00
H1519  H     0.97608   0.40922   0.55832   0.00000  Uiso   1.00
O1520  O     0.88536   0.34428   0.71306   0.00000  Uiso   1.00
C1521  C     0.89415   0.66415   0.66621   0.00000  Uiso   1.00
H1522  H     0.89212   0.35730   0.64765   0.00000  Uiso   1.00
H1523  H     0.87099   0.63791   0.65656   0.00000  Uiso   1.00
C1524  C     0.93997   0.65237   0.65080   0.00000  Uiso   1.00
H1525  H     0.96291   0.34633   0.65818   0.00000  Uiso   1.00
H1526  H     0.94288   0.62661   0.66999   0.00000  Uiso   1.00
C1527  C     0.95226   0.63862   0.60023   0.00000  Uiso   1.00
H1528  H     0.92894   0.61226   0.59167   0.00000  Uiso   1.00
H1529  H     0.98467   0.62822   0.59096   0.00000  Uiso   1.00
H1530  H     0.95319   0.66509   0.58029   0.00000  Uiso   1.00
O1531  O     0.78049   0.66019   0.79340   0.00000  Uiso   1.00
C1532  C     0.74280   0.66266   0.77931   0.00000  Uiso   1.00
H1533  H     0.72264   0.63196   0.78330   0.00000  Uiso   1.00
H1534  H     0.74892   0.33477   0.74277   0.00000  Uiso   1.00
C1535  C     0.71738   0.36269   0.80968   0.00000  Uiso   1.00
H1536  H     0.70869   0.35472   0.84544   0.00000  Uiso   1.00
H1537  H     0.73732   0.39354   0.80787   0.00000  Uiso   1.00
C1538  C     0.67650   0.36593   0.79535   0.00000  Uiso   1.00
H1539  H     0.68459   0.37496   0.76004   0.00000  Uiso   1.00
H1540  H     0.99205   0.39010   0.81817   0.00000  Uiso   1.00
H1541  H     0.98880   0.33564   0.79752   0.00000  Uiso   1.00
O1542  O     0.90592   0.39996   0.98407   0.00000  Uiso   1.00
C1543  C     0.88383   0.35890   0.98564   0.00000  Uiso   1.00
H1544  H     0.88686   0.34515   0.95010   0.00000  Uiso   1.00
H1545  H     0.84875   0.35727   0.50195   0.00000  Uiso   1.00
C1546  C     0.90502   0.66576   0.50941   0.00000  Uiso   1.00
H1547  H     0.94028   0.33625   0.99445   0.00000  Uiso   1.00
H1548  H     0.89887   0.34344   0.54597   0.00000  Uiso   1.00
C1549  C     0.88804   0.61947   0.50473   0.00000  Uiso   1.00
H1550  H     0.85464   0.61375   0.52549   0.00000  Uiso   1.00
H1551  H     0.90810   0.60109   0.51717   0.00000  Uiso   1.00
H1552  H     0.88926   0.60837   0.96873   0.00000  Uiso   1.00
C1553  C     0.77654   0.59167   0.92466   0.00000  Uiso   1.00
O1554  O     0.74133   0.60338   0.93042   0.00000  Uiso   1.00
O1555  O     0.81288   0.61269   0.89711   0.00000  Uiso   1.00
H1556  H     0.80586   0.63678   0.88344   0.00000  Uiso   1.00
C1557  C     0.74157   0.51343   0.56288   0.00000  Uiso   1.00
O1558  O     0.73816   0.47842   0.57513   0.00000  Uiso   1.00
O1559  O     0.71548   0.54214   0.58961   0.00000  Uiso   1.00
H1560  H     0.69628   0.53065   0.61832   0.00000  Uiso   1.00
O1561  O     0.73716   0.58497   0.51819   0.00000  Uiso   1.00
C1562  C     0.76122   0.62350   0.52825   0.00000  Uiso   1.00
H1563  H     0.74506   0.64878   0.52116   0.00000  Uiso   1.00
H1564  H     0.79470   0.62762   0.50674   0.00000  Uiso   1.00
C1565  C     0.76132   0.62908   0.57861   0.00000  Uiso   1.00
H1566  H     0.72766   0.62522   0.59945   0.00000  Uiso   1.00
H1567  H     0.77863   0.60490   0.58609   0.00000  Uiso   1.00
C1568  C     0.78278   0.33872   0.59218   0.00000  Uiso   1.00
H1569  H     0.81771   0.34172   0.57620   0.00000  Uiso   1.00
H1570  H     0.77838   0.34272   0.62955   0.00000  Uiso   1.00
H1571  H     0.76835   0.36377   0.58208   0.00000  Uiso   1.00
C1572  C     0.80094   0.42387   0.89275   0.00000  Uiso   1.00
O1573  O     0.81861   0.39473   0.87070   0.00000  Uiso   1.00
O1574  O     0.76178   0.43068   0.88563   0.00000  Uiso   1.00
H1575  H     0.74621   0.45152   0.90897   0.00000  Uiso   1.00
Zn1576 Zn    0.19338   0.80661   0.78734   0.00000  Uiso   1.00
Zn1577 Zn    0.13379   0.79124   0.71875   0.00000  Uiso   1.00
Zn1578 Zn    0.21056   0.86442   0.70657   0.00000  Uiso   1.00
Zn1579 Zn    0.12893   0.87106   0.78733   0.00000  Uiso   1.00
O1580  O     0.16667   0.83333   0.75000   0.00000  Uiso   1.00
O1581  O     0.07071   0.85544   0.78213   0.00000  Uiso   1.00
O1582  O     0.25491   0.81892   0.77013   0.00000  Uiso   1.00
O1583  O     0.13760   0.73610   0.73413   0.00000  Uiso   1.00
O1584  O     0.20345   0.92286   0.71360   0.00000  Uiso   1.00
O1585  O     0.15451   0.79304   0.65458   0.00000  Uiso   1.00
O1586  O     0.12940   0.87058   0.84968   0.00000  Uiso   1.00
O1587  O     0.20824   0.84425   0.64606   0.00000  Uiso   1.00
O1588  O     0.17451   0.82546   0.84968   0.00000  Uiso   1.00
O1589  O     0.17930   0.74686   0.78213   0.00000  Uiso   1.00
O1590  O     0.14632   0.92751   0.77013   0.00000  Uiso   1.00
O1591  O     0.07412   0.79958   0.73413   0.00000  Uiso   1.00
O1592  O     0.26693   0.85939   0.71360   0.00000  Uiso   1.00
C1593  C     0.05261   0.82613   0.76009   0.00000  Uiso   1.00
C1594  C     0.28080   0.84051   0.74005   0.00000  Uiso   1.00
C1595  C     0.15546   0.72267   0.76054   0.00000  Uiso   1.00
C1596  C     0.17664   0.94471   0.74036   0.00000  Uiso   1.00
C1597  C     0.18482   0.81494   0.62895   0.00000  Uiso   1.00
C1598  C     0.14747   0.85060   0.87174   0.00000  Uiso   1.00
C1599  C     0.21316   0.76195   0.51009   0.00000  Uiso   1.00
H1600  H     0.19230   0.73614   0.93091   0.00000  Uiso   1.00
C1601  C     0.19097   0.80632   0.57987   0.00000  Uiso   1.00
C1602  C     0.11436   0.88893   0.94758   0.00000  Uiso   1.00
C1603  C     0.09752   0.88921   0.99519   0.00000  Uiso   1.00
C1604  C     0.10491   0.85733   0.51845   0.00000  Uiso   1.00
C1605  C     0.13542   0.83033   0.99492   0.00000  Uiso   1.00
C1606  C     0.14095   0.82234   0.94760   0.00000  Uiso   1.00
C1607  C     0.16056   0.81081   0.51618   0.00000  Uiso   1.00
C1608  C     0.18469   0.77897   0.99123   0.00000  Uiso   1.00
C1609  C     0.17877   0.76384   0.94822   0.00000  Uiso   1.00
C1610  C     0.15351   0.78292   0.92801   0.00000  Uiso   1.00
C1611  C     0.16482   0.82437   0.56016   0.00000  Uiso   1.00
C1612  C     0.21761   0.77679   0.55418   0.00000  Uiso   1.00
C1613  C     0.13408   0.85390   0.92268   0.00000  Uiso   1.00
H1614  H     0.14806   0.84947   0.57986   0.00000  Uiso   1.00
C1615  C     0.32661   0.84355   0.73632   0.00000  Uiso   1.00
H1616  H     0.01562   0.86224   0.71115   0.00000  Uiso   1.00
C1617  C     0.00738   0.82341   0.76378   0.00000  Uiso   1.00
H1618  H     0.31910   0.80429   0.78896   0.00000  Uiso   1.00
C1619  C     0.18087   0.98978   0.73768   0.00000  Uiso   1.00
C1620  C     0.15008   0.67849   0.76364   0.00000  Uiso   1.00
C1621  C     0.25113   0.76257   0.57208   0.00000  Uiso   1.00
O1622  O     0.24632   0.76155   0.61284   0.00000  Uiso   1.00
O1623  O     0.28902   0.75127   0.54218   0.00000  Uiso   1.00
H1624  H     0.30942   0.74256   0.55832   0.00000  Uiso   1.00
O1625  O     0.21869   0.67761   0.71306   0.00000  Uiso   1.00
C1626  C     0.22749   0.99748   0.66621   0.00000  Uiso   1.00
H1627  H     0.22546   0.69063   0.64765   0.00000  Uiso   1.00
H1628  H     0.20432   0.97125   0.65656   0.00000  Uiso   1.00
C1629  C     0.27330   0.98571   0.65080   0.00000  Uiso   1.00
H1630  H     0.29624   0.67967   0.65818   0.00000  Uiso   1.00
H1631  H     0.27621   0.95995   0.66999   0.00000  Uiso   1.00
C1632  C     0.28560   0.97196   0.60023   0.00000  Uiso   1.00
H1633  H     0.26227   0.94559   0.59167   0.00000  Uiso   1.00
H1634  H     0.31800   0.96156   0.59096   0.00000  Uiso   1.00
H1635  H     0.28652   0.99842   0.58029   0.00000  Uiso   1.00
O1636  O     0.11382   0.99352   0.79340   0.00000  Uiso   1.00
C1637  C     0.07614   0.99600   0.77931   0.00000  Uiso   1.00
H1638  H     0.05597   0.96530   0.78330   0.00000  Uiso   1.00
H1639  H     0.08226   0.66810   0.74277   0.00000  Uiso   1.00
C1640  C     0.05071   0.69602   0.80968   0.00000  Uiso   1.00
H1641  H     0.04202   0.68805   0.84544   0.00000  Uiso   1.00
H1642  H     0.07066   0.72687   0.80787   0.00000  Uiso   1.00
C1643  C     0.00984   0.69926   0.79535   0.00000  Uiso   1.00
H1644  H     0.01792   0.70830   0.76004   0.00000  Uiso   1.00
H1645  H     0.32539   0.72343   0.81817   0.00000  Uiso   1.00
H1646  H     0.32213   0.66897   0.79752   0.00000  Uiso   1.00
O1647  O     0.23926   0.73329   0.98407   0.00000  Uiso   1.00
C1648  C     0.21716   0.69223   0.98564   0.00000  Uiso   1.00
H1649  H     0.22020   0.67848   0.95010   0.00000  Uiso   1.00
H1650  H     0.18209   0.69060   0.50195   0.00000  Uiso   1.00
C1651  C     0.23835   0.99910   0.50941   0.00000  Uiso   1.00
H1652  H     0.27361   0.66959   0.99445   0.00000  Uiso   1.00
H1653  H     0.23220   0.67677   0.54597   0.00000  Uiso   1.00
C1654  C     0.22138   0.95281   0.50473   0.00000  Uiso   1.00
H1655  H     0.18797   0.94708   0.52549   0.00000  Uiso   1.00
H1656  H     0.24143   0.93442   0.51717   0.00000  Uiso   1.00
H1657  H     0.22259   0.94171   0.96873   0.00000  Uiso   1.00
C1658  C     0.10987   0.92500   0.92466   0.00000  Uiso   1.00
O1659  O     0.07467   0.93672   0.93042   0.00000  Uiso   1.00
O1660  O     0.14622   0.94602   0.89711   0.00000  Uiso   1.00
H1661  H     0.13919   0.97012   0.88344   0.00000  Uiso   1.00
C1662  C     0.07491   0.84676   0.56288   0.00000  Uiso   1.00
O1663  O     0.07149   0.81175   0.57513   0.00000  Uiso   1.00
O1664  O     0.04881   0.87548   0.58961   0.00000  Uiso   1.00
H1665  H     0.02962   0.86399   0.61832   0.00000  Uiso   1.00
O1666  O     0.07050   0.91831   0.51819   0.00000  Uiso   1.00
C1667  C     0.09456   0.95683   0.52825   0.00000  Uiso   1.00
H1668  H     0.07840   0.98211   0.52116   0.00000  Uiso   1.00
H1669  H     0.12803   0.96096   0.50674   0.00000  Uiso   1.00
C1670  C     0.09466   0.96242   0.57861   0.00000  Uiso   1.00
H1671  H     0.06099   0.95855   0.59945   0.00000  Uiso   1.00
H1672  H     0.11197   0.93823   0.58609   0.00000  Uiso   1.00
C1673  C     0.11612   0.67205   0.59218   0.00000  Uiso   1.00
H1674  H     0.15104   0.67505   0.57620   0.00000  Uiso   1.00
H1675  H     0.11171   0.67606   0.62955   0.00000  Uiso   1.00
H1676  H     0.10168   0.69710   0.58208   0.00000  Uiso   1.00
C1677  C     0.13427   0.75720   0.89275   0.00000  Uiso   1.00
O1678  O     0.15195   0.72807   0.87070   0.00000  Uiso   1.00
O1679  O     0.09511   0.76401   0.88563   0.00000  Uiso   1.00
H1680  H     0.07954   0.78485   0.90897   0.00000  Uiso   1.00
Zn1681 Zn    0.52672   0.80661   0.78734   0.00000  Uiso   1.00
Zn1682 Zn    0.46713   0.79124   0.71875   0.00000  Uiso   1.00
Zn1683 Zn    0.54389   0.86442   0.70657   0.00000  Uiso   1.00
Zn1684 Zn    0.46226   0.87106   0.78733   0.00000  Uiso   1.00
O1685  O     0.50000   0.83333   0.75000   0.00000  Uiso   1.00
O1686  O     0.40405   0.85544   0.78213   0.00000  Uiso   1.00
O1687  O     0.58824   0.81892   0.77013   0.00000  Uiso   1.00
O1688  O     0.47093   0.73610   0.73413   0.00000  Uiso   1.00
O1689  O     0.53678   0.92286   0.71360   0.00000  Uiso   1.00
O1690  O     0.48784   0.79304   0.65458   0.00000  Uiso   1.00
O1691  O     0.46274   0.87058   0.84968   0.00000  Uiso   1.00
O1692  O     0.54157   0.84425   0.64606   0.00000  Uiso   1.00
O1693  O     0.50785   0.82546   0.84968   0.00000  Uiso   1.00
O1694  O     0.51264   0.74686   0.78213   0.00000  Uiso   1.00
O1695  O     0.47965   0.92751   0.77013   0.00000  Uiso   1.00
O1696  O     0.40745   0.79958   0.73413   0.00000  Uiso   1.00
O1697  O     0.60026   0.85939   0.71360   0.00000  Uiso   1.00
C1698  C     0.38594   0.82613   0.76009   0.00000  Uiso   1.00
C1699  C     0.61413   0.84051   0.74005   0.00000  Uiso   1.00
C1700  C     0.48880   0.72267   0.76054   0.00000  Uiso   1.00
C1701  C     0.50997   0.94471   0.74036   0.00000  Uiso   1.00
C1702  C     0.51815   0.81494   0.62895   0.00000  Uiso   1.00
C1703  C     0.48080   0.85060   0.87174   0.00000  Uiso   1.00
C1704  C     0.54649   0.76195   0.51009   0.00000  Uiso   1.00
H1705  H     0.52564   0.73614   0.93091   0.00000  Uiso   1.00
C1706  C     0.52430   0.80632   0.57987   0.00000  Uiso   1.00
C1707  C     0.44769   0.88893   0.94758   0.00000  Uiso   1.00
C1708  C     0.43085   0.88921   0.99519   0.00000  Uiso   1.00
C1709  C     0.43824   0.85733   0.51845   0.00000  Uiso   1.00
C1710  C     0.46875   0.83033   0.99492   0.00000  Uiso   1.00
C1711  C     0.47429   0.82234   0.94760   0.00000  Uiso   1.00
C1712  C     0.49389   0.81081   0.51618   0.00000  Uiso   1.00
C1713  C     0.51802   0.77897   0.99123   0.00000  Uiso   1.00
C1714  C     0.51211   0.76384   0.94822   0.00000  Uiso   1.00
C1715  C     0.48684   0.78292   0.92801   0.00000  Uiso   1.00
C1716  C     0.49816   0.82437   0.56016   0.00000  Uiso   1.00
C1717  C     0.55095   0.77679   0.55418   0.00000  Uiso   1.00
C1718  C     0.46741   0.85390   0.92268   0.00000  Uiso   1.00
H1719  H     0.48139   0.84947   0.57986   0.00000  Uiso   1.00
C1720  C     0.65994   0.84355   0.73632   0.00000  Uiso   1.00
H1721  H     0.34895   0.86224   0.71115   0.00000  Uiso   1.00
C1722  C     0.34072   0.82341   0.76378   0.00000  Uiso   1.00
H1723  H     0.65243   0.80429   0.78896   0.00000  Uiso   1.00
C1724  C     0.51421   0.98978   0.73768   0.00000  Uiso   1.00
C1725  C     0.48341   0.67849   0.76364   0.00000  Uiso   1.00
C1726  C     0.58447   0.76257   0.57208   0.00000  Uiso   1.00
O1727  O     0.57965   0.76155   0.61284   0.00000  Uiso   1.00
O1728  O     0.62235   0.75127   0.54218   0.00000  Uiso   1.00
H1729  H     0.64275   0.74256   0.55832   0.00000  Uiso   1.00
O1730  O     0.55202   0.67761   0.71306   0.00000  Uiso   1.00
C1731  C     0.56082   0.99748   0.66621   0.00000  Uiso   1.00
H1732  H     0.55879   0.69063   0.64765   0.00000  Uiso   1.00
H1733  H     0.53765   0.97125   0.65656   0.00000  Uiso   1.00
C1734  C     0.60664   0.98571   0.65080   0.00000  Uiso   1.00
H1735  H     0.62958   0.67967   0.65818   0.00000  Uiso   1.00
H1736  H     0.60955   0.95995   0.66999   0.00000  Uiso   1.00
C1737  C     0.61893   0.97196   0.60023   0.00000  Uiso   1.00
H1738  H     0.59561   0.94559   0.59167   0.00000  Uiso   1.00
H1739  H     0.65134   0.96156   0.59096   0.00000  Uiso   1.00
H1740  H     0.61985   0.99842   0.58029   0.00000  Uiso   1.00
O1741  O     0.44715   0.99352   0.79340   0.00000  Uiso   1.00
C1742  C     0.40947   0.99600   0.77931   0.00000  Uiso   1.00
H1743  H     0.38931   0.96530   0.78330   0.00000  Uiso   1.00
H1744  H     0.41559   0.66810   0.74277   0.00000  Uiso   1.00
C1745  C     0.38405   0.69602   0.80968   0.00000  Uiso   1.00
H1746  H     0.37535   0.68805   0.84544   0.00000  Uiso   1.00
H1747  H     0.40399   0.72687   0.80787   0.00000  Uiso   1.00
C1748  C     0.34317   0.69926   0.79535   0.00000  Uiso   1.00
H1749  H     0.35126   0.70830   0.76004   0.00000  Uiso   1.00
H1750  H     0.65872   0.72343   0.81817   0.00000  Uiso   1.00
H1751  H     0.65547   0.66897   0.79752   0.00000  Uiso   1.00
O1752  O     0.57259   0.73329   0.98407   0.00000  Uiso   1.00
C1753  C     0.55050   0.69223   0.98564   0.00000  Uiso   1.00
H1754  H     0.55353   0.67848   0.95010   0.00000  Uiso   1.00
H1755  H     0.51542   0.69060   0.50195   0.00000  Uiso   1.00
C1756  C     0.57169   0.99910   0.50941   0.00000  Uiso   1.00
H1757  H     0.60694   0.66959   0.99445   0.00000  Uiso   1.00
H1758  H     0.56553   0.67677   0.54597   0.00000  Uiso   1.00
C1759  C     0.55471   0.95281   0.50473   0.00000  Uiso   1.00
H1760  H     0.52130   0.94708   0.52549   0.00000  Uiso   1.00
H1761  H     0.57476   0.93442   0.51717   0.00000  Uiso   1.00
H1762  H     0.55593   0.94171   0.96873   0.00000  Uiso   1.00
C1763  C     0.44321   0.92500   0.92466   0.00000  Uiso   1.00
O1764  O     0.40800   0.93672   0.93042   0.00000  Uiso   1.00
O1765  O     0.47955   0.94602   0.89711   0.00000  Uiso   1.00
H1766  H     0.47253   0.97012   0.88344   0.00000  Uiso   1.00
C1767  C     0.40824   0.84676   0.56288   0.00000  Uiso   1.00
O1768  O     0.40483   0.81175   0.57513   0.00000  Uiso   1.00
O1769  O     0.38215   0.87548   0.58961   0.00000  Uiso   1.00
H1770  H     0.36295   0.86399   0.61832   0.00000  Uiso   1.00
O1771  O     0.40383   0.91831   0.51819   0.00000  Uiso   1.00
C1772  C     0.42789   0.95683   0.52825   0.00000  Uiso   1.00
H1773  H     0.41173   0.98211   0.52116   0.00000  Uiso   1.00
H1774  H     0.46137   0.96096   0.50674   0.00000  Uiso   1.00
C1775  C     0.42799   0.96242   0.57861   0.00000  Uiso   1.00
H1776  H     0.39433   0.95855   0.59945   0.00000  Uiso   1.00
H1777  H     0.44530   0.93823   0.58609   0.00000  Uiso   1.00
C1778  C     0.44945   0.67205   0.59218   0.00000  Uiso   1.00
H1779  H     0.48438   0.67505   0.57620   0.00000  Uiso   1.00
H1780  H     0.44505   0.67606   0.62955   0.00000  Uiso   1.00
H1781  H     0.43501   0.69710   0.58208   0.00000  Uiso   1.00
C1782  C     0.46760   0.75720   0.89275   0.00000  Uiso   1.00
O1783  O     0.48528   0.72807   0.87070   0.00000  Uiso   1.00
O1784  O     0.42845   0.76401   0.88563   0.00000  Uiso   1.00
H1785  H     0.41288   0.78485   0.90897   0.00000  Uiso   1.00
Zn1786 Zn    0.86005   0.80661   0.78734   0.00000  Uiso   1.00
Zn1787 Zn    0.80046   0.79124   0.71875   0.00000  Uiso   1.00
Zn1788 Zn    0.87723   0.86442   0.70657   0.00000  Uiso   1.00
Zn1789 Zn    0.79560   0.87106   0.78733   0.00000  Uiso   1.00
O1790  O     0.83333   0.83333   0.75000   0.00000  Uiso   1.00
O1791  O     0.73738   0.85544   0.78213   0.00000  Uiso   1.00
O1792  O     0.92158   0.81892   0.77013   0.00000  Uiso   1.00
O1793  O     0.80426   0.73610   0.73413   0.00000  Uiso   1.00
O1794  O     0.87012   0.92286   0.71360   0.00000  Uiso   1.00
O1795  O     0.82118   0.79304   0.65458   0.00000  Uiso   1.00
O1796  O     0.79607   0.87058   0.84968   0.00000  Uiso   1.00
O1797  O     0.87491   0.84425   0.64606   0.00000  Uiso   1.00
O1798  O     0.84118   0.82546   0.84968   0.00000  Uiso   1.00
O1799  O     0.84597   0.74686   0.78213   0.00000  Uiso   1.00
O1800  O     0.81298   0.92751   0.77013   0.00000  Uiso   1.00
O1801  O     0.74078   0.79958   0.73413   0.00000  Uiso   1.00
O1802  O     0.93360   0.85939   0.71360   0.00000  Uiso   1.00
C1803  C     0.71928   0.82613   0.76009   0.00000  Uiso   1.00
C1804  C     0.94747   0.84051   0.74005   0.00000  Uiso   1.00
C1805  C     0.82213   0.72267   0.76054   0.00000  Uiso   1.00
C1806  C     0.84330   0.94471   0.74036   0.00000  Uiso   1.00
C1807  C     0.85149   0.81494   0.62895   0.00000  Uiso   1.00
C1808  C     0.81413   0.85060   0.87174   0.00000  Uiso   1.00
C1809  C     0.87982   0.76195   0.51009   0.00000  Uiso   1.00
H1810  H     0.85897   0.73614   0.93091   0.00000  Uiso   1.00
C1811  C     0.85764   0.80632   0.57987   0.00000  Uiso   1.00
C1812  C     0.78103   0.88893   0.94758   0.00000  Uiso   1.00
C1813  C     0.76419   0.88921   0.99519   0.00000  Uiso   1.00
C1814  C     0.77157   0.85733   0.51845   0.00000  Uiso   1.00
C1815  C     0.80209   0.83033   0.99492   0.00000  Uiso   1.00
C1816  C     0.80762   0.82234   0.94760   0.00000  Uiso   1.00
C1817  C     0.82723   0.81081   0.51618   0.00000  Uiso   1.00
C1818  C     0.85135   0.77897   0.99123   0.00000  Uiso   1.00
C1819  C     0.84544   0.76384   0.94822   0.00000  Uiso   1.00
C1820  C     0.82018   0.78292   0.92801   0.00000  Uiso   1.00
C1821  C     0.83149   0.82437   0.56016   0.00000  Uiso   1.00
C1822  C     0.88428   0.77679   0.55418   0.00000  Uiso   1.00
C1823  C     0.80075   0.85390   0.92268   0.00000  Uiso   1.00
H1824  H     0.81473   0.84947   0.57986   0.00000  Uiso   1.00
C1825  C     0.99328   0.84355   0.73632   0.00000  Uiso   1.00
H1826  H     0.68229   0.86224   0.71115   0.00000  Uiso   1.00
C1827  C     0.67405   0.82341   0.76378   0.00000  Uiso   1.00
H1828  H     0.98577   0.80429   0.78896   0.00000  Uiso   1.00
C1829  C     0.84754   0.98978   0.73768   0.00000  Uiso   1.00
C1830  C     0.81674   0.67849   0.76364   0.00000  Uiso   1.00
C1831  C     0.91780   0.76257   0.57208   0.00000  Uiso   1.00
O1832  O     0.91298   0.76155   0.61284   0.00000  Uiso   1.00
O1833  O     0.95569   0.75127   0.54218   0.00000  Uiso   1.00
H1834  H     0.97608   0.74256   0.55832   0.00000  Uiso   1.00
O1835  O     0.88536   0.67761   0.71306   0.00000  Uiso   1.00
C1836  C     0.89415   0.99748   0.66621   0.00000  Uiso   1.00
H1837  H     0.89212   0.69063   0.64765   0.00000  Uiso   1.00
H1838  H     0.87099   0.97125   0.65656   0.00000  Uiso   1.00
C1839  C     0.93997   0.98571   0.65080   0.00000  Uiso   1.00
H1840  H     0.96291   0.67967   0.65818   0.00000  Uiso   1.00
H1841  H     0.94288   0.95995   0.66999   0.00000  Uiso   1.00
C1842  C     0.95226   0.97196   0.60023   0.00000  Uiso   1.00
H1843  H     0.92894   0.94559   0.59167   0.00000  Uiso   1.00
H1844  H     0.98467   0.96156   0.59096   0.00000  Uiso   1.00
H1845  H     0.95319   0.99842   0.58029   0.00000  Uiso   1.00
O1846  O     0.78049   0.99352   0.79340   0.00000  Uiso   1.00
C1847  C     0.74280   0.99600   0.77931   0.00000  Uiso   1.00
H1848  H     0.72264   0.96530   0.78330   0.00000  Uiso   1.00
H1849  H     0.74892   0.66810   0.74277   0.00000  Uiso   1.00
C1850  C     0.71738   0.69602   0.80968   0.00000  Uiso   1.00
H1851  H     0.70869   0.68805   0.84544   0.00000  Uiso   1.00
H1852  H     0.73732   0.72687   0.80787   0.00000  Uiso   1.00
C1853  C     0.67650   0.69926   0.79535   0.00000  Uiso   1.00
H1854  H     0.68459   0.70830   0.76004   0.00000  Uiso   1.00
H1855  H     0.99205   0.72343   0.81817   0.00000  Uiso   1.00
H1856  H     0.98880   0.66897   0.79752   0.00000  Uiso   1.00
O1857  O     0.90592   0.73329   0.98407   0.00000  Uiso   1.00
C1858  C     0.88383   0.69223   0.98564   0.00000  Uiso   1.00
H1859  H     0.88686   0.67848   0.95010   0.00000  Uiso   1.00
H1860  H     0.84875   0.69060   0.50195   0.00000  Uiso   1.00
C1861  C     0.90502   0.99910   0.50941   0.00000  Uiso   1.00
H1862  H     0.94028   0.66959   0.99445   0.00000  Uiso   1.00
H1863  H     0.89887   0.67677   0.54597   0.00000  Uiso   1.00
C1864  C     0.88804   0.95281   0.50473   0.00000  Uiso   1.00
H1865  H     0.85464   0.94708   0.52549   0.00000  Uiso   1.00
H1866  H     0.90810   0.93442   0.51717   0.00000  Uiso   1.00
H1867  H     0.88926   0.94171   0.96873   0.00000  Uiso   1.00
C1868  C     0.77654   0.92500   0.92466   0.00000  Uiso   1.00
O1869  O     0.74133   0.93672   0.93042   0.00000  Uiso   1.00
O1870  O     0.81288   0.94602   0.89711   0.00000  Uiso   1.00
H1871  H     0.80586   0.97012   0.88344   0.00000  Uiso   1.00
C1872  C     0.74157   0.84676   0.56288   0.00000  Uiso   1.00
O1873  O     0.73816   0.81175   0.57513   0.00000  Uiso   1.00
O1874  O     0.71548   0.87548   0.58961   0.00000  Uiso   1.00
H1875  H     0.69628   0.86399   0.61832   0.00000  Uiso   1.00
O1876  O     0.73716   0.91831   0.51819   0.00000  Uiso   1.00
C1877  C     0.76122   0.95683   0.52825   0.00000  Uiso   1.00
H1878  H     0.74506   0.98211   0.52116   0.00000  Uiso   1.00
H1879  H     0.79470   0.96096   0.50674   0.00000  Uiso   1.00
C1880  C     0.76132   0.96242   0.57861   0.00000  Uiso   1.00
H1881  H     0.72766   0.95855   0.59945   0.00000  Uiso   1.00
H1882  H     0.77863   0.93823   0.58609   0.00000  Uiso   1.00
C1883  C     0.78278   0.67205   0.59218   0.00000  Uiso   1.00
H1884  H     0.81771   0.67505   0.57620   0.00000  Uiso   1.00
H1885  H     0.77838   0.67606   0.62955   0.00000  Uiso   1.00
H1886  H     0.76835   0.69710   0.58208   0.00000  Uiso   1.00
C1887  C     0.80094   0.75720   0.89275   0.00000  Uiso   1.00
O1888  O     0.81861   0.72807   0.87070   0.00000  Uiso   1.00
O1889  O     0.76178   0.76401   0.88563   0.00000  Uiso   1.00
H1890  H     0.74621   0.78485   0.90897   0.00000  Uiso   1.00
loop_
_geom_bond_atom_site_label_1
_geom_bond_atom_site_label_2
_geom_bond_distance
_geom_bond_site_symmetry_2
_ccdc_geom_bond_type
Zn1    O5      1.953   .     S
Zn1    O13     1.902   .     S
Zn1    O7      1.923   .     S
Zn1    O14     1.927   .     S
Zn2    O16     1.926   .     S
Zn2    O5      1.926   .     S
Zn2    O8      1.941   .     S
Zn2    O10     1.911   .     S
Zn3    O12     1.907   .     S
Zn3    O9      1.930   .     S
Zn3    O5      1.934   .     S
Zn3    O17     1.933   .     S
Zn4    O6      1.927   .     S
Zn4    O11     1.918   .     S
Zn4    O5      1.923   .     S
Zn4    O15     1.935   .     S
O6     C18     1.263   .     A
O7     C19     1.276   .     A
O8     C20     1.263   .     A
O9     C21     1.268   .     A
O10    C22     1.272   .     A
O11    C23     1.287   .     A
O12    C22     1.278   .     A
O13    C23     1.292   .     A
O14    C20     1.271   .     A
O15    C21     1.268   .     A
O16    C18     1.261   .     A
O17    C19     1.279   .     A
C18    C42     1.435   .     S
C19    C40     1.453   .     S
C20    C45     1.434   .     S
C21    C44     1.463   .     S
C22    C26     1.463   .     S
C23    C38     1.503   .     S
C24    C37     1.415   .     A
C24    C978    1.418   1_554 S
C24    O1017   1.389   1_554 S
H25    C34     1.081   .     S
C26    C36     1.393   .     A
C26    C37     1.415   .     A
C27    C38     1.430   .     A
C27    C83     1.484   .     S
C27    C28     1.418   .     A
C28    C974    1.411   .     S
C28    O1036   1.389   .     S
C29    C87     1.499   .     S
C29    C973    1.411   1_554 S
C29    C975    1.418   1_554 S
C30    C31     1.411   .     A
C30    C974    1.418   .     S
C30    C977    1.426   .     S
C31    C35     1.419   .     A
C31    C38     1.429   .     A
C32    C36     1.402   .     A
C32    C975    1.426   1_554 S
C32    C978    1.418   1_554 S
C33    C34     1.401   .     A
C33    C977    1.418   .     S
C33    C969    1.418   .     S
C34    C35     1.400   .     A
C35    C102    1.495   .     S
C36    H39     1.082   .     S
C37    C46     1.493   .     S
C40    H146    1.088   .     S
C40    C147    1.334   .     S
H41    C250    1.088   1_455 S
C42    C250    1.334   1_455 S
C42    H253    1.086   1_455 S
H43    C147    1.086   .     S
C44    C360    1.346   .     S
C44    O365    1.394   .     S
C45    C674    1.346   1_545 S
C45    O691    1.392   1_545 S
C46    O47     1.222   .     D
C46    O48     1.399   .     S
O48    H49     1.014   .     S
O50    C674    1.394   1_545 S
O50    C681    1.416   1_545 S
C51    H53     1.116   .     S
C51    C54     1.532   .     S
C51    O365    1.416   .     S
C51    H367    1.109   .     S
H52    C681    1.109   1_545 S
C54    H56     1.111   .     S
C54    C57     1.524   .     S
C54    H370    1.112   .     S
H55    C684    1.112   1_545 S
C57    H59     1.110   .     S
C57    H60     1.109   .     S
C57    H58     1.111   .     S
O61    C62     1.417   .     S
O61    C360    1.392   .     S
C62    H63     1.111   .     S
C62    H379    1.117   .     S
C62    C380    1.533   .     S
H64    C692    1.117   1_545 S
C65    H67     1.110   .     S
C65    C68     1.526   .     S
C65    H66     1.112   .     S
C65    C692    1.533   1_545 S
C68    H69     1.111   .     S
C68    H280    1.111   1_455 S
C68    H281    1.111   1_455 S
H70    C173    1.111   .     S
H71    C173    1.111   .     S
O72    C73     1.419   .     S
O72    C969    1.389   .     S
C73    H74     1.111   .     S
C73    H1020   1.115   .     S
C73    C1651   1.531   1_545 S
H75    C1018   1.115   1_554 S
C76    C79     1.528   .     S
C76    C1333   1.531   1_554 S
C76    H1337   1.112   1_554 S
C76    H393    1.110   .     S
H77    C1651   1.112   1_545 S
H78    C706    1.110   1_545 S
C79    H81     1.110   .     S
C79    H80     1.108   .     S
C79    H1027   1.111   1_554 S
H82    C1024   1.111   .     S
C83    O84     1.223   .     D
C83    O85     1.398   .     S
O85    H86     1.014   .     S
C87    O88     1.224   .     D
C87    O89     1.397   .     S
O89    H90     1.014   .     S
O91    C92     1.420   .     S
O91    C973    1.389   1_554 S
C92    C95     1.533   .     S
C92    H94     1.114   .     S
C92    H93     1.111   .     S
C95    H96     1.111   .     S
C95    H97     1.111   .     S
C95    C413    1.527   .     S
C98    H100    1.111   .     S
C98    H101    1.111   .     S
C98    H99     1.108   .     S
C98    C725    1.527   1_545 S
C102   O103    1.221   .     D
C102   O104    1.400   .     S
O104   H105    1.012   .     S
Zn106  O110    1.953   .     S
Zn106  O118    1.902   .     S
Zn106  O112    1.923   .     S
Zn106  O119    1.927   .     S
Zn107  O121    1.926   .     S
Zn107  O110    1.926   .     S
Zn107  O113    1.941   .     S
Zn107  O115    1.911   .     S
Zn108  O117    1.907   .     S
Zn108  O114    1.930   .     S
Zn108  O110    1.934   .     S
Zn108  O122    1.933   .     S
Zn109  O111    1.927   .     S
Zn109  O116    1.918   .     S
Zn109  O110    1.923   .     S
Zn109  O120    1.935   .     S
O111   C123    1.263   .     A
O112   C124    1.276   .     A
O113   C125    1.263   .     A
O114   C126    1.268   .     A
O115   C127    1.272   .     A
O116   C128    1.287   .     A
O117   C127    1.278   .     A
O118   C128    1.292   .     A
O119   C125    1.271   .     A
O120   C126    1.268   .     A
O121   C123    1.261   .     A
O122   C124    1.279   .     A
C123   C147    1.435   .     S
C124   C145    1.453   .     S
C125   C150    1.434   .     S
C126   C149    1.463   .     S
C127   C131    1.463   .     S
C128   C143    1.503   .     S
C129   C142    1.415   .     A
C129   C1083   1.418   1_554 S
C129   O1122   1.389   1_554 S
H130   C139    1.081   .     S
C131   C141    1.393   .     A
C131   C142    1.415   .     A
C132   C143    1.430   .     A
C132   C188    1.484   .     S
C132   C133    1.418   .     A
C133   C1079   1.411   .     S
C133   O1141   1.389   .     S
C134   C192    1.499   .     S
C134   C1078   1.411   1_554 S
C134   C1080   1.418   1_554 S
C135   C136    1.411   .     A
C135   C1079   1.418   .     S
C135   C1082   1.426   .     S
C136   C140    1.419   .     A
C136   C143    1.429   .     A
C137   C141    1.402   .     A
C137   C1080   1.426   1_554 S
C137   C1083   1.418   1_554 S
C138   C139    1.401   .     A
C138   C1082   1.418   .     S
C138   C1074   1.418   .     S
C139   C140    1.400   .     A
C140   C207    1.495   .     S
C141   H144    1.082   .     S
C142   C151    1.493   .     S
C145   H251    1.088   .     S
C145   C252    1.334   .     S
H148   C252    1.086   .     S
C149   C465    1.346   .     S
C149   O470    1.394   .     S
C150   C779    1.346   1_545 S
C150   O796    1.392   1_545 S
C151   O152    1.222   .     D
C151   O153    1.399   .     S
O153   H154    1.014   .     S
O155   C779    1.394   1_545 S
O155   C786    1.416   1_545 S
C156   H158    1.116   .     S
C156   C159    1.532   .     S
C156   O470    1.416   .     S
C156   H472    1.109   .     S
H157   C786    1.109   1_545 S
C159   H161    1.111   .     S
C159   C162    1.524   .     S
C159   H475    1.112   .     S
H160   C789    1.112   1_545 S
C162   H164    1.110   .     S
C162   H165    1.109   .     S
C162   H163    1.111   .     S
O166   C167    1.417   .     S
O166   C465    1.392   .     S
C167   H168    1.111   .     S
C167   H484    1.117   .     S
C167   C485    1.533   .     S
H169   C797    1.117   1_545 S
C170   H172    1.110   .     S
C170   C173    1.526   .     S
C170   H171    1.112   .     S
C170   C797    1.533   1_545 S
C173   H174    1.111   .     S
H175   C278    1.111   .     S
H176   C278    1.111   .     S
O177   C178    1.419   .     S
O177   C1074   1.389   .     S
C178   H179    1.111   .     S
C178   H1125   1.115   .     S
C178   C1756   1.531   1_545 S
H180   C1123   1.115   1_554 S
C181   C184    1.528   .     S
C181   C1438   1.531   1_554 S
C181   H1442   1.112   1_554 S
C181   H498    1.110   .     S
H182   C1756   1.112   1_545 S
H183   C811    1.110   1_545 S
C184   H186    1.110   .     S
C184   H185    1.108   .     S
C184   H1132   1.111   1_554 S
H187   C1129   1.111   .     S
C188   O189    1.223   .     D
C188   O190    1.398   .     S
O190   H191    1.014   .     S
C192   O193    1.224   .     D
C192   O194    1.397   .     S
O194   H195    1.014   .     S
O196   C197    1.420   .     S
O196   C1078   1.389   1_554 S
C197   C200    1.533   .     S
C197   H199    1.114   .     S
C197   H198    1.111   .     S
C200   H201    1.111   .     S
C200   H202    1.111   .     S
C200   C518    1.527   .     S
C203   H205    1.111   .     S
C203   H206    1.111   .     S
C203   H204    1.108   .     S
C203   C830    1.527   1_545 S
C207   O208    1.221   .     D
C207   O209    1.400   .     S
O209   H210    1.012   .     S
Zn211  O215    1.953   .     S
Zn211  O223    1.902   .     S
Zn211  O217    1.923   .     S
Zn211  O224    1.927   .     S
Zn212  O226    1.926   .     S
Zn212  O215    1.926   .     S
Zn212  O218    1.941   .     S
Zn212  O220    1.911   .     S
Zn213  O222    1.907   .     S
Zn213  O219    1.930   .     S
Zn213  O215    1.934   .     S
Zn213  O227    1.933   .     S
Zn214  O216    1.927   .     S
Zn214  O221    1.918   .     S
Zn214  O215    1.923   .     S
Zn214  O225    1.935   .     S
O216   C228    1.263   .     A
O217   C229    1.276   .     A
O218   C230    1.263   .     A
O219   C231    1.268   .     A
O220   C232    1.272   .     A
O221   C233    1.287   .     A
O222   C232    1.278   .     A
O223   C233    1.292   .     A
O224   C230    1.271   .     A
O225   C231    1.268   .     A
O226   C228    1.261   .     A
O227   C229    1.279   .     A
C228   C252    1.435   .     S
C229   C250    1.453   .     S
C230   C255    1.434   .     S
C231   C254    1.463   .     S
C232   C236    1.463   .     S
C233   C248    1.503   .     S
C234   C247    1.415   .     A
C234   C1188   1.418   1_554 S
C234   O1227   1.389   1_554 S
H235   C244    1.081   .     S
C236   C246    1.393   .     A
C236   C247    1.415   .     A
C237   C248    1.430   .     A
C237   C293    1.484   .     S
C237   C238    1.418   .     A
C238   C1184   1.411   .     S
C238   O1246   1.389   .     S
C239   C297    1.499   .     S
C239   C1183   1.411   1_554 S
C239   C1185   1.418   1_554 S
C240   C241    1.411   .     A
C240   C1184   1.418   .     S
C240   C1187   1.426   .     S
C241   C245    1.419   .     A
C241   C248    1.429   .     A
C242   C246    1.402   .     A
C242   C1185   1.426   1_554 S
C242   C1188   1.418   1_554 S
C243   C244    1.401   .     A
C243   C1187   1.418   .     S
C243   C1179   1.418   .     S
C244   C245    1.400   .     A
C245   C312    1.495   .     S
C246   H249    1.082   .     S
C247   C256    1.493   .     S
C250   H41     1.088   1_655 S
C250   C42     1.334   1_655 S
H253   C42     1.086   1_655 S
C254   C570    1.346   .     S
C254   O575    1.394   .     S
C255   C884    1.346   1_545 S
C255   O901    1.392   1_545 S
C256   O257    1.222   .     D
C256   O258    1.399   .     S
O258   H259    1.014   .     S
O260   C884    1.394   1_545 S
O260   C891    1.416   1_545 S
C261   H263    1.116   .     S
C261   C264    1.532   .     S
C261   O575    1.416   .     S
C261   H577    1.109   .     S
H262   C891    1.109   1_545 S
C264   H266    1.111   .     S
C264   C267    1.524   .     S
C264   H580    1.112   .     S
H265   C894    1.112   1_545 S
C267   H269    1.110   .     S
C267   H270    1.109   .     S
C267   H268    1.111   .     S
O271   C272    1.417   .     S
O271   C570    1.392   .     S
C272   H273    1.111   .     S
C272   H589    1.117   .     S
C272   C590    1.533   .     S
H274   C902    1.117   1_545 S
C275   H277    1.110   .     S
C275   C278    1.526   .     S
C275   H276    1.112   .     S
C275   C902    1.533   1_545 S
C278   H279    1.111   .     S
H280   C68     1.111   1_655 S
H281   C68     1.111   1_655 S
O282   C283    1.419   .     S
O282   C1179   1.389   .     S
C283   H284    1.111   .     S
C283   H1230   1.115   .     S
C283   C1861   1.531   1_545 S
H285   C1228   1.115   1_554 S
C286   C289    1.528   .     S
C286   C1543   1.531   1_554 S
C286   H1547   1.112   1_554 S
C286   H603    1.110   .     S
H287   C1861   1.112   1_545 S
H288   C916    1.110   1_545 S
C289   H291    1.110   .     S
C289   H290    1.108   .     S
C289   H1237   1.111   1_554 S
H292   C1234   1.111   .     S
C293   O294    1.223   .     D
C293   O295    1.398   .     S
O295   H296    1.014   .     S
C297   O298    1.224   .     D
C297   O299    1.397   .     S
O299   H300    1.014   .     S
O301   C302    1.420   .     S
O301   C1183   1.389   1_554 S
C302   C305    1.533   .     S
C302   H304    1.114   .     S
C302   H303    1.111   .     S
C305   H306    1.111   .     S
C305   H307    1.111   .     S
C305   C623    1.527   .     S
C308   H310    1.111   .     S
C308   H311    1.111   .     S
C308   H309    1.108   .     S
C308   C935    1.527   1_545 S
C312   O313    1.221   .     D
C312   O314    1.400   .     S
O314   H315    1.012   .     S
Zn316  O320    1.953   .     S
Zn316  O328    1.902   .     S
Zn316  O322    1.923   .     S
Zn316  O329    1.927   .     S
Zn317  O331    1.926   .     S
Zn317  O320    1.926   .     S
Zn317  O323    1.941   .     S
Zn317  O325    1.911   .     S
Zn318  O327    1.907   .     S
Zn318  O324    1.930   .     S
Zn318  O320    1.934   .     S
Zn318  O332    1.933   .     S
Zn319  O321    1.927   .     S
Zn319  O326    1.918   .     S
Zn319  O320    1.923   .     S
Zn319  O330    1.935   .     S
O321   C333    1.263   .     A
O322   C334    1.276   .     A
O323   C335    1.263   .     A
O324   C336    1.268   .     A
O325   C337    1.272   .     A
O326   C338    1.287   .     A
O327   C337    1.278   .     A
O328   C338    1.292   .     A
O329   C335    1.271   .     A
O330   C336    1.268   .     A
O331   C333    1.261   .     A
O332   C334    1.279   .     A
C333   C357    1.435   .     S
C334   C355    1.453   .     S
C335   C360    1.434   .     S
C336   C359    1.463   .     S
C337   C341    1.463   .     S
C338   C353    1.503   .     S
C339   C352    1.415   .     A
C339   C1293   1.418   1_554 S
C339   O1332   1.389   1_554 S
H340   C349    1.081   .     S
C341   C351    1.393   .     A
C341   C352    1.415   .     A
C342   C353    1.430   .     A
C342   C398    1.484   .     S
C342   C343    1.418   .     A
C343   C1289   1.411   .     S
C343   O1351   1.389   .     S
C344   C402    1.499   .     S
C344   C1288   1.411   1_554 S
C344   C1290   1.418   1_554 S
C345   C346    1.411   .     A
C345   C1289   1.418   .     S
C345   C1292   1.426   .     S
C346   C350    1.419   .     A
C346   C353    1.429   .     A
C347   C351    1.402   .     A
C347   C1290   1.426   1_554 S
C347   C1293   1.418   1_554 S
C348   C349    1.401   .     A
C348   C1292   1.418   .     S
C348   C1284   1.418   .     S
C349   C350    1.400   .     A
C350   C417    1.495   .     S
C351   H354    1.082   .     S
C352   C361    1.493   .     S
C355   H461    1.088   .     S
C355   C462    1.334   .     S
H356   C565    1.088   1_455 S
C357   C565    1.334   1_455 S
C357   H568    1.086   1_455 S
H358   C462    1.086   .     S
C359   C675    1.346   .     S
C359   O680    1.394   .     S
C361   O362    1.222   .     D
C361   O363    1.399   .     S
O363   H364    1.014   .     S
C366   H368    1.116   .     S
C366   C369    1.532   .     S
C366   O680    1.416   .     S
C366   H682    1.109   .     S
C369   H371    1.111   .     S
C369   C372    1.524   .     S
C369   H685    1.112   .     S
C372   H374    1.110   .     S
C372   H375    1.109   .     S
C372   H373    1.111   .     S
O376   C377    1.417   .     S
O376   C675    1.392   .     S
C377   H378    1.111   .     S
C377   H694    1.117   .     S
C377   C695    1.533   .     S
C380   H382    1.110   .     S
C380   C383    1.526   .     S
C380   H381    1.112   .     S
C383   H384    1.111   .     S
C383   H595    1.111   1_455 S
C383   H596    1.111   1_455 S
H385   C488    1.111   .     S
H386   C488    1.111   .     S
O387   C388    1.419   .     S
O387   C1284   1.389   .     S
C388   H389    1.111   .     S
C388   H1335   1.115   .     S
C388   C1021   1.531   .     S
H390   C1333   1.115   1_554 S
C391   C394    1.528   .     S
C391   C1648   1.531   1_554 S
C391   H1652   1.112   1_554 S
C391   H708    1.110   .     S
H392   C1021   1.112   .     S
C394   H396    1.110   .     S
C394   H395    1.108   .     S
C394   H1342   1.111   1_554 S
H397   C1339   1.111   .     S
C398   O399    1.223   .     D
C398   O400    1.398   .     S
O400   H401    1.014   .     S
C402   O403    1.224   .     D
C402   O404    1.397   .     S
O404   H405    1.014   .     S
O406   C407    1.420   .     S
O406   C1288   1.389   1_554 S
C407   C410    1.533   .     S
C407   H409    1.114   .     S
C407   H408    1.111   .     S
C410   H411    1.111   .     S
C410   H412    1.111   .     S
C410   C728    1.527   .     S
C413   H415    1.111   .     S
C413   H416    1.111   .     S
C413   H414    1.108   .     S
C417   O418    1.221   .     D
C417   O419    1.400   .     S
O419   H420    1.012   .     S
Zn421  O425    1.953   .     S
Zn421  O433    1.902   .     S
Zn421  O427    1.923   .     S
Zn421  O434    1.927   .     S
Zn422  O436    1.926   .     S
Zn422  O425    1.926   .     S
Zn422  O428    1.941   .     S
Zn422  O430    1.911   .     S
Zn423  O432    1.907   .     S
Zn423  O429    1.930   .     S
Zn423  O425    1.934   .     S
Zn423  O437    1.933   .     S
Zn424  O426    1.927   .     S
Zn424  O431    1.918   .     S
Zn424  O425    1.923   .     S
Zn424  O435    1.935   .     S
O426   C438    1.263   .     A
O427   C439    1.276   .     A
O428   C440    1.263   .     A
O429   C441    1.268   .     A
O430   C442    1.272   .     A
O431   C443    1.287   .     A
O432   C442    1.278   .     A
O433   C443    1.292   .     A
O434   C440    1.271   .     A
O435   C441    1.268   .     A
O436   C438    1.261   .     A
O437   C439    1.279   .     A
C438   C462    1.435   .     S
C439   C460    1.453   .     S
C440   C465    1.434   .     S
C441   C464    1.463   .     S
C442   C446    1.463   .     S
C443   C458    1.503   .     S
C444   C457    1.415   .     A
C444   C1398   1.418   1_554 S
C444   O1437   1.389   1_554 S
H445   C454    1.081   .     S
C446   C456    1.393   .     A
C446   C457    1.415   .     A
C447   C458    1.430   .     A
C447   C503    1.484   .     S
C447   C448    1.418   .     A
C448   C1394   1.411   .     S
C448   O1456   1.389   .     S
C449   C507    1.499   .     S
C449   C1393   1.411   1_554 S
C449   C1395   1.418   1_554 S
C450   C451    1.411   .     A
C450   C1394   1.418   .     S
C450   C1397   1.426   .     S
C451   C455    1.419   .     A
C451   C458    1.429   .     A
C452   C456    1.402   .     A
C452   C1395   1.426   1_554 S
C452   C1398   1.418   1_554 S
C453   C454    1.401   .     A
C453   C1397   1.418   .     S
C453   C1389   1.418   .     S
C454   C455    1.400   .     A
C455   C522    1.495   .     S
C456   H459    1.082   .     S
C457   C466    1.493   .     S
C460   H566    1.088   .     S
C460   C567    1.334   .     S
H463   C567    1.086   .     S
C464   C780    1.346   .     S
C464   O785    1.394   .     S
C466   O467    1.222   .     D
C466   O468    1.399   .     S
O468   H469    1.014   .     S
C471   H473    1.116   .     S
C471   C474    1.532   .     S
C471   O785    1.416   .     S
C471   H787    1.109   .     S
C474   H476    1.111   .     S
C474   C477    1.524   .     S
C474   H790    1.112   .     S
C477   H479    1.110   .     S
C477   H480    1.109   .     S
C477   H478    1.111   .     S
O481   C482    1.417   .     S
O481   C780    1.392   .     S
C482   H483    1.111   .     S
C482   H799    1.117   .     S
C482   C800    1.533   .     S
C485   H487    1.110   .     S
C485   C488    1.526   .     S
C485   H486    1.112   .     S
C488   H489    1.111   .     S
H490   C593    1.111   .     S
H491   C593    1.111   .     S
O492   C493    1.419   .     S
O492   C1389   1.389   .     S
C493   H494    1.111   .     S
C493   H1440   1.115   .     S
C493   C1126   1.531   .     S
H495   C1438   1.115   1_554 S
C496   C499    1.528   .     S
C496   C1753   1.531   1_554 S
C496   H1757   1.112   1_554 S
C496   H813    1.110   .     S
H497   C1126   1.112   .     S
C499   H501    1.110   .     S
C499   H500    1.108   .     S
C499   H1447   1.111   1_554 S
H502   C1444   1.111   .     S
C503   O504    1.223   .     D
C503   O505    1.398   .     S
O505   H506    1.014   .     S
C507   O508    1.224   .     D
C507   O509    1.397   .     S
O509   H510    1.014   .     S
O511   C512    1.420   .     S
O511   C1393   1.389   1_554 S
C512   C515    1.533   .     S
C512   H514    1.114   .     S
C512   H513    1.111   .     S
C515   H516    1.111   .     S
C515   H517    1.111   .     S
C515   C833    1.527   .     S
C518   H520    1.111   .     S
C518   H521    1.111   .     S
C518   H519    1.108   .     S
C522   O523    1.221   .     D
C522   O524    1.400   .     S
O524   H525    1.012   .     S
Zn526  O530    1.953   .     S
Zn526  O538    1.902   .     S
Zn526  O532    1.923   .     S
Zn526  O539    1.927   .     S
Zn527  O541    1.926   .     S
Zn527  O530    1.926   .     S
Zn527  O533    1.941   .     S
Zn527  O535    1.911   .     S
Zn528  O537    1.907   .     S
Zn528  O534    1.930   .     S
Zn528  O530    1.934   .     S
Zn528  O542    1.933   .     S
Zn529  O531    1.927   .     S
Zn529  O536    1.918   .     S
Zn529  O530    1.923   .     S
Zn529  O540    1.935   .     S
O531   C543    1.263   .     A
O532   C544    1.276   .     A
O533   C545    1.263   .     A
O534   C546    1.268   .     A
O535   C547    1.272   .     A
O536   C548    1.287   .     A
O537   C547    1.278   .     A
O538   C548    1.292   .     A
O539   C545    1.271   .     A
O540   C546    1.268   .     A
O541   C543    1.261   .     A
O542   C544    1.279   .     A
C543   C567    1.435   .     S
C544   C565    1.453   .     S
C545   C570    1.434   .     S
C546   C569    1.463   .     S
C547   C551    1.463   .     S
C548   C563    1.503   .     S
C549   C562    1.415   .     A
C549   C1503   1.418   1_554 S
C549   O1542   1.389   1_554 S
H550   C559    1.081   .     S
C551   C561    1.393   .     A
C551   C562    1.415   .     A
C552   C563    1.430   .     A
C552   C608    1.484   .     S
C552   C553    1.418   .     A
C553   C1499   1.411   .     S
C553   O1561   1.389   .     S
C554   C612    1.499   .     S
C554   C1498   1.411   1_554 S
C554   C1500   1.418   1_554 S
C555   C556    1.411   .     A
C555   C1499   1.418   .     S
C555   C1502   1.426   .     S
C556   C560    1.419   .     A
C556   C563    1.429   .     A
C557   C561    1.402   .     A
C557   C1500   1.426   1_554 S
C557   C1503   1.418   1_554 S
C558   C559    1.401   .     A
C558   C1502   1.418   .     S
C558   C1494   1.418   .     S
C559   C560    1.400   .     A
C560   C627    1.495   .     S
C561   H564    1.082   .     S
C562   C571    1.493   .     S
C565   H356    1.088   1_655 S
C565   C357    1.334   1_655 S
H568   C357    1.086   1_655 S
C569   C885    1.346   .     S
C569   O890    1.394   .     S
C571   O572    1.222   .     D
C571   O573    1.399   .     S
O573   H574    1.014   .     S
C576   H578    1.116   .     S
C576   C579    1.532   .     S
C576   O890    1.416   .     S
C576   H892    1.109   .     S
C579   H581    1.111   .     S
C579   C582    1.524   .     S
C579   H895    1.112   .     S
C582   H584    1.110   .     S
C582   H585    1.109   .     S
C582   H583    1.111   .     S
O586   C587    1.417   .     S
O586   C885    1.392   .     S
C587   H588    1.111   .     S
C587   H904    1.117   .     S
C587   C905    1.533   .     S
C590   H592    1.110   .     S
C590   C593    1.526   .     S
C590   H591    1.112   .     S
C593   H594    1.111   .     S
H595   C383    1.111   1_655 S
H596   C383    1.111   1_655 S
O597   C598    1.419   .     S
O597   C1494   1.389   .     S
C598   H599    1.111   .     S
C598   H1545   1.115   .     S
C598   C1231   1.531   .     S
H600   C1543   1.115   1_554 S
C601   C604    1.528   .     S
C601   C1858   1.531   1_554 S
C601   H1862   1.112   1_554 S
C601   H918    1.110   .     S
H602   C1231   1.112   .     S
C604   H606    1.110   .     S
C604   H605    1.108   .     S
C604   H1552   1.111   1_554 S
H607   C1549   1.111   .     S
C608   O609    1.223   .     D
C608   O610    1.398   .     S
O610   H611    1.014   .     S
C612   O613    1.224   .     D
C612   O614    1.397   .     S
O614   H615    1.014   .     S
O616   C617    1.420   .     S
O616   C1498   1.389   1_554 S
C617   C620    1.533   .     S
C617   H619    1.114   .     S
C617   H618    1.111   .     S
C620   H621    1.111   .     S
C620   H622    1.111   .     S
C620   C938    1.527   .     S
C623   H625    1.111   .     S
C623   H626    1.111   .     S
C623   H624    1.108   .     S
C627   O628    1.221   .     D
C627   O629    1.400   .     S
O629   H630    1.012   .     S
Zn631  O635    1.953   .     S
Zn631  O643    1.902   .     S
Zn631  O637    1.923   .     S
Zn631  O644    1.927   .     S
Zn632  O646    1.926   .     S
Zn632  O635    1.926   .     S
Zn632  O638    1.941   .     S
Zn632  O640    1.911   .     S
Zn633  O642    1.907   .     S
Zn633  O639    1.930   .     S
Zn633  O635    1.934   .     S
Zn633  O647    1.933   .     S
Zn634  O636    1.927   .     S
Zn634  O641    1.918   .     S
Zn634  O635    1.923   .     S
Zn634  O645    1.935   .     S
O636   C648    1.263   .     A
O637   C649    1.276   .     A
O638   C650    1.263   .     A
O639   C651    1.268   .     A
O640   C652    1.272   .     A
O641   C653    1.287   .     A
O642   C652    1.278   .     A
O643   C653    1.292   .     A
O644   C650    1.271   .     A
O645   C651    1.268   .     A
O646   C648    1.261   .     A
O647   C649    1.279   .     A
C648   C672    1.435   .     S
C649   C670    1.453   .     S
C650   C675    1.434   .     S
C651   C674    1.463   .     S
C652   C656    1.463   .     S
C653   C668    1.503   .     S
C654   C667    1.415   .     A
C654   C1608   1.418   1_554 S
C654   O1647   1.389   1_554 S
H655   C664    1.081   .     S
C656   C666    1.393   .     A
C656   C667    1.415   .     A
C657   C668    1.430   .     A
C657   C713    1.484   .     S
C657   C658    1.418   .     A
C658   C1604   1.411   .     S
C658   O1666   1.389   .     S
C659   C717    1.499   .     S
C659   C1603   1.411   1_554 S
C659   C1605   1.418   1_554 S
C660   C661    1.411   .     A
C660   C1604   1.418   .     S
C660   C1607   1.426   .     S
C661   C665    1.419   .     A
C661   C668    1.429   .     A
C662   C666    1.402   .     A
C662   C1605   1.426   1_554 S
C662   C1608   1.418   1_554 S
C663   C664    1.401   .     A
C663   C1607   1.418   .     S
C663   C1599   1.418   .     S
C664   C665    1.400   .     A
C665   C732    1.495   .     S
C666   H669    1.082   .     S
C667   C676    1.493   .     S
C670   H776    1.088   .     S
C670   C777    1.334   .     S
H671   C880    1.088   1_455 S
C672   C880    1.334   1_455 S
C672   H883    1.086   1_455 S
H673   C777    1.086   .     S
C674   C45     1.346   1_565 S
C674   O50     1.394   1_565 S
C676   O677    1.222   .     D
C676   O678    1.399   .     S
O678   H679    1.014   .     S
C681   H683    1.116   .     S
C681   C684    1.532   .     S
C681   O50     1.416   1_565 S
C681   H52     1.109   1_565 S
C684   H686    1.111   .     S
C684   C687    1.524   .     S
C684   H55     1.112   1_565 S
C687   H689    1.110   .     S
C687   H690    1.109   .     S
C687   H688    1.111   .     S
O691   C692    1.417   .     S
O691   C45     1.392   1_565 S
C692   H693    1.111   .     S
C692   H64     1.117   1_565 S
C692   C65     1.533   1_565 S
C695   H697    1.110   .     S
C695   C698    1.526   .     S
C695   H696    1.112   .     S
C698   H699    1.111   .     S
C698   H910    1.111   1_455 S
C698   H911    1.111   1_455 S
H700   C803    1.111   .     S
H701   C803    1.111   .     S
O702   C703    1.419   .     S
O702   C1599   1.389   .     S
C703   H704    1.111   .     S
C703   H1650   1.115   .     S
C703   C1336   1.531   .     S
H705   C1648   1.115   1_554 S
C706   C709    1.528   .     S
C706   C1018   1.531   1_564 S
C706   H1022   1.112   1_564 S
C706   H78     1.110   1_565 S
H707   C1336   1.112   .     S
C709   H711    1.110   .     S
C709   H710    1.108   .     S
C709   H1657   1.111   1_554 S
H712   C1654   1.111   .     S
C713   O714    1.223   .     D
C713   O715    1.398   .     S
O715   H716    1.014   .     S
C717   O718    1.224   .     D
C717   O719    1.397   .     S
O719   H720    1.014   .     S
O721   C722    1.420   .     S
O721   C1603   1.389   1_554 S
C722   C725    1.533   .     S
C722   H724    1.114   .     S
C722   H723    1.111   .     S
C725   H726    1.111   .     S
C725   H727    1.111   .     S
C725   C98     1.527   1_565 S
C728   H730    1.111   .     S
C728   H731    1.111   .     S
C728   H729    1.108   .     S
C732   O733    1.221   .     D
C732   O734    1.400   .     S
O734   H735    1.012   .     S
Zn736  O740    1.953   .     S
Zn736  O748    1.902   .     S
Zn736  O742    1.923   .     S
Zn736  O749    1.927   .     S
Zn737  O751    1.926   .     S
Zn737  O740    1.926   .     S
Zn737  O743    1.941   .     S
Zn737  O745    1.911   .     S
Zn738  O747    1.907   .     S
Zn738  O744    1.930   .     S
Zn738  O740    1.934   .     S
Zn738  O752    1.933   .     S
Zn739  O741    1.927   .     S
Zn739  O746    1.918   .     S
Zn739  O740    1.923   .     S
Zn739  O750    1.935   .     S
O741   C753    1.263   .     A
O742   C754    1.276   .     A
O743   C755    1.263   .     A
O744   C756    1.268   .     A
O745   C757    1.272   .     A
O746   C758    1.287   .     A
O747   C757    1.278   .     A
O748   C758    1.292   .     A
O749   C755    1.271   .     A
O750   C756    1.268   .     A
O751   C753    1.261   .     A
O752   C754    1.279   .     A
C753   C777    1.435   .     S
C754   C775    1.453   .     S
C755   C780    1.434   .     S
C756   C779    1.463   .     S
C757   C761    1.463   .     S
C758   C773    1.503   .     S
C759   C772    1.415   .     A
C759   C1713   1.418   1_554 S
C759   O1752   1.389   1_554 S
H760   C769    1.081   .     S
C761   C771    1.393   .     A
C761   C772    1.415   .     A
C762   C773    1.430   .     A
C762   C818    1.484   .     S
C762   C763    1.418   .     A
C763   C1709   1.411   .     S
C763   O1771   1.389   .     S
C764   C822    1.499   .     S
C764   C1708   1.411   1_554 S
C764   C1710   1.418   1_554 S
C765   C766    1.411   .     A
C765   C1709   1.418   .     S
C765   C1712   1.426   .     S
C766   C770    1.419   .     A
C766   C773    1.429   .     A
C767   C771    1.402   .     A
C767   C1710   1.426   1_554 S
C767   C1713   1.418   1_554 S
C768   C769    1.401   .     A
C768   C1712   1.418   .     S
C768   C1704   1.418   .     S
C769   C770    1.400   .     A
C770   C837    1.495   .     S
C771   H774    1.082   .     S
C772   C781    1.493   .     S
C775   H881    1.088   .     S
C775   C882    1.334   .     S
H778   C882    1.086   .     S
C779   C150    1.346   1_565 S
C779   O155    1.394   1_565 S
C781   O782    1.222   .     D
C781   O783    1.399   .     S
O783   H784    1.014   .     S
C786   H788    1.116   .     S
C786   C789    1.532   .     S
C786   O155    1.416   1_565 S
C786   H157    1.109   1_565 S
C789   H791    1.111   .     S
C789   C792    1.524   .     S
C789   H160    1.112   1_565 S
C792   H794    1.110   .     S
C792   H795    1.109   .     S
C792   H793    1.111   .     S
O796   C797    1.417   .     S
O796   C150    1.392   1_565 S
C797   H798    1.111   .     S
C797   H169    1.117   1_565 S
C797   C170    1.533   1_565 S
C800   H802    1.110   .     S
C800   C803    1.526   .     S
C800   H801    1.112   .     S
C803   H804    1.111   .     S
H805   C908    1.111   .     S
H806   C908    1.111   .     S
O807   C808    1.419   .     S
O807   C1704   1.389   .     S
C808   H809    1.111   .     S
C808   H1755   1.115   .     S
C808   C1441   1.531   .     S
H810   C1753   1.115   1_554 S
C811   C814    1.528   .     S
C811   C1123   1.531   1_564 S
C811   H1127   1.112   1_564 S
C811   H183    1.110   1_565 S
H812   C1441   1.112   .     S
C814   H816    1.110   .     S
C814   H815    1.108   .     S
C814   H1762   1.111   1_554 S
H817   C1759   1.111   .     S
C818   O819    1.223   .     D
C818   O820    1.398   .     S
O820   H821    1.014   .     S
C822   O823    1.224   .     D
C822   O824    1.397   .     S
O824   H825    1.014   .     S
O826   C827    1.420   .     S
O826   C1708   1.389   1_554 S
C827   C830    1.533   .     S
C827   H829    1.114   .     S
C827   H828    1.111   .     S
C830   H831    1.111   .     S
C830   H832    1.111   .     S
C830   C203    1.527   1_565 S
C833   H835    1.111   .     S
C833   H836    1.111   .     S
C833   H834    1.108   .     S
C837   O838    1.221   .     D
C837   O839    1.400   .     S
O839   H840    1.012   .     S
Zn841  O845    1.953   .     S
Zn841  O853    1.902   .     S
Zn841  O847    1.923   .     S
Zn841  O854    1.927   .     S
Zn842  O856    1.926   .     S
Zn842  O845    1.926   .     S
Zn842  O848    1.941   .     S
Zn842  O850    1.911   .     S
Zn843  O852    1.907   .     S
Zn843  O849    1.930   .     S
Zn843  O845    1.934   .     S
Zn843  O857    1.933   .     S
Zn844  O846    1.927   .     S
Zn844  O851    1.918   .     S
Zn844  O845    1.923   .     S
Zn844  O855    1.935   .     S
O846   C858    1.263   .     A
O847   C859    1.276   .     A
O848   C860    1.263   .     A
O849   C861    1.268   .     A
O850   C862    1.272   .     A
O851   C863    1.287   .     A
O852   C862    1.278   .     A
O853   C863    1.292   .     A
O854   C860    1.271   .     A
O855   C861    1.268   .     A
O856   C858    1.261   .     A
O857   C859    1.279   .     A
C858   C882    1.435   .     S
C859   C880    1.453   .     S
C860   C885    1.434   .     S
C861   C884    1.463   .     S
C862   C866    1.463   .     S
C863   C878    1.503   .     S
C864   C877    1.415   .     A
C864   C1818   1.418   1_554 S
C864   O1857   1.389   1_554 S
H865   C874    1.081   .     S
C866   C876    1.393   .     A
C866   C877    1.415   .     A
C867   C878    1.430   .     A
C867   C923    1.484   .     S
C867   C868    1.418   .     A
C868   C1814   1.411   .     S
C868   O1876   1.389   .     S
C869   C927    1.499   .     S
C869   C1813   1.411   1_554 S
C869   C1815   1.418   1_554 S
C870   C871    1.411   .     A
C870   C1814   1.418   .     S
C870   C1817   1.426   .     S
C871   C875    1.419   .     A
C871   C878    1.429   .     A
C872   C876    1.402   .     A
C872   C1815   1.426   1_554 S
C872   C1818   1.418   1_554 S
C873   C874    1.401   .     A
C873   C1817   1.418   .     S
C873   C1809   1.418   .     S
C874   C875    1.400   .     A
C875   C942    1.495   .     S
C876   H879    1.082   .     S
C877   C886    1.493   .     S
C880   H671    1.088   1_655 S
C880   C672    1.334   1_655 S
H883   C672    1.086   1_655 S
C884   C255    1.346   1_565 S
C884   O260    1.394   1_565 S
C886   O887    1.222   .     D
C886   O888    1.399   .     S
O888   H889    1.014   .     S
C891   H893    1.116   .     S
C891   C894    1.532   .     S
C891   O260    1.416   1_565 S
C891   H262    1.109   1_565 S
C894   H896    1.111   .     S
C894   C897    1.524   .     S
C894   H265    1.112   1_565 S
C897   H899    1.110   .     S
C897   H900    1.109   .     S
C897   H898    1.111   .     S
O901   C902    1.417   .     S
O901   C255    1.392   1_565 S
C902   H903    1.111   .     S
C902   H274    1.117   1_565 S
C902   C275    1.533   1_565 S
C905   H907    1.110   .     S
C905   C908    1.526   .     S
C905   H906    1.112   .     S
C908   H909    1.111   .     S
H910   C698    1.111   1_655 S
H911   C698    1.111   1_655 S
O912   C913    1.419   .     S
O912   C1809   1.389   .     S
C913   H914    1.111   .     S
C913   H1860   1.115   .     S
C913   C1546   1.531   .     S
H915   C1858   1.115   1_554 S
C916   C919    1.528   .     S
C916   C1228   1.531   1_564 S
C916   H1232   1.112   1_564 S
C916   H288    1.110   1_565 S
H917   C1546   1.112   .     S
C919   H921    1.110   .     S
C919   H920    1.108   .     S
C919   H1867   1.111   1_554 S
H922   C1864   1.111   .     S
C923   O924    1.223   .     D
C923   O925    1.398   .     S
O925   H926    1.014   .     S
C927   O928    1.224   .     D
C927   O929    1.397   .     S
O929   H930    1.014   .     S
O931   C932    1.420   .     S
O931   C1813   1.389   1_554 S
C932   C935    1.533   .     S
C932   H934    1.114   .     S
C932   H933    1.111   .     S
C935   H936    1.111   .     S
C935   H937    1.111   .     S
C935   C308    1.527   1_565 S
C938   H940    1.111   .     S
C938   H941    1.111   .     S
C938   H939    1.108   .     S
C942   O943    1.221   .     D
C942   O944    1.400   .     S
O944   H945    1.012   .     S
Zn946  O950    1.953   .     S
Zn946  O958    1.902   .     S
Zn946  O952    1.923   .     S
Zn946  O959    1.927   .     S
Zn947  O961    1.926   .     S
Zn947  O950    1.926   .     S
Zn947  O953    1.941   .     S
Zn947  O955    1.911   .     S
Zn948  O957    1.907   .     S
Zn948  O954    1.930   .     S
Zn948  O950    1.934   .     S
Zn948  O962    1.933   .     S
Zn949  O951    1.927   .     S
Zn949  O956    1.918   .     S
Zn949  O950    1.923   .     S
Zn949  O960    1.935   .     S
O951   C963    1.263   .     A
O952   C964    1.276   .     A
O953   C965    1.263   .     A
O954   C966    1.268   .     A
O955   C967    1.272   .     A
O956   C968    1.287   .     A
O957   C967    1.278   .     A
O958   C968    1.292   .     A
O959   C965    1.271   .     A
O960   C966    1.268   .     A
O961   C963    1.261   .     A
O962   C964    1.279   .     A
C963   C987    1.435   .     S
C964   C985    1.453   .     S
C965   C990    1.434   .     S
C966   C989    1.463   .     S
C967   C971    1.463   .     S
C968   C983    1.503   .     S
C969   C982    1.415   .     A
H970   C979    1.081   .     S
C971   C981    1.393   .     A
C971   C982    1.415   .     A
C972   C983    1.430   .     A
C972   C1028   1.484   .     S
C972   C973    1.418   .     A
C973   C29     1.411   1_556 S
C973   O91     1.389   1_556 S
C974   C1032   1.499   .     S
C975   C976    1.411   .     A
C975   C29     1.418   1_556 S
C975   C32     1.426   1_556 S
C976   C980    1.419   .     A
C976   C983    1.429   .     A
C977   C981    1.402   .     A
C978   C979    1.401   .     A
C978   C32     1.418   1_556 S
C978   C24     1.418   1_556 S
C979   C980    1.400   .     A
C980   C1047   1.495   .     S
C981   H984    1.082   .     S
C982   C991    1.493   .     S
C985   H1091   1.088   .     S
C985   C1092   1.334   .     S
H986   C1195   1.088   1_455 S
C987   C1195   1.334   1_455 S
C987   H1198   1.086   1_455 S
H988   C1092   1.086   .     S
C989   C1305   1.346   .     S
C989   O1310   1.394   .     S
C990   C1619   1.346   1_545 S
C990   O1636   1.392   1_545 S
C991   O992    1.222   .     D
C991   O993    1.399   .     S
O993   H994    1.014   .     S
O995   C1619   1.394   1_545 S
O995   C1626   1.416   1_545 S
C996   H998    1.116   .     S
C996   C999    1.532   .     S
C996   O1310   1.416   .     S
C996   H1312   1.109   .     S
H997   C1626   1.109   1_545 S
C999   H1001   1.111   .     S
C999   C1002   1.524   .     S
C999   H1315   1.112   .     S
H1000  C1629   1.112   1_545 S
C1002  H1004   1.110   .     S
C1002  H1005   1.109   .     S
C1002  H1003   1.111   .     S
O1006  C1007   1.417   .     S
O1006  C1305   1.392   .     S
C1007  H1008   1.111   .     S
C1007  H1324   1.117   .     S
C1007  C1325   1.533   .     S
H1009  C1637   1.117   1_545 S
C1010  H1012   1.110   .     S
C1010  C1013   1.526   .     S
C1010  H1011   1.112   .     S
C1010  C1637   1.533   1_545 S
C1013  H1014   1.111   .     S
C1013  H1225   1.111   1_455 S
C1013  H1226   1.111   1_455 S
H1015  C1118   1.111   .     S
H1016  C1118   1.111   .     S
O1017  C1018   1.419   .     S
O1017  C24     1.389   1_556 S
C1018  H1019   1.111   .     S
C1018  H75     1.115   1_556 S
C1018  C706    1.531   1_546 S
C1021  C1024   1.528   .     S
C1021  H1338   1.110   .     S
H1022  C706    1.112   1_546 S
H1023  C1651   1.110   1_545 S
C1024  H1026   1.110   .     S
C1024  H1025   1.108   .     S
H1027  C79     1.111   1_556 S
C1028  O1029   1.223   .     D
C1028  O1030   1.398   .     S
O1030  H1031   1.014   .     S
C1032  O1033   1.224   .     D
C1032  O1034   1.397   .     S
O1034  H1035   1.014   .     S
O1036  C1037   1.420   .     S
C1037  C1040   1.533   .     S
C1037  H1039   1.114   .     S
C1037  H1038   1.111   .     S
C1040  H1041   1.111   .     S
C1040  H1042   1.111   .     S
C1040  C1358   1.527   .     S
C1043  H1045   1.111   .     S
C1043  H1046   1.111   .     S
C1043  H1044   1.108   .     S
C1043  C1670   1.527   1_545 S
C1047  O1048   1.221   .     D
C1047  O1049   1.400   .     S
O1049  H1050   1.012   .     S
Zn1051 O1055   1.953   .     S
Zn1051 O1063   1.902   .     S
Zn1051 O1057   1.923   .     S
Zn1051 O1064   1.927   .     S
Zn1052 O1066   1.926   .     S
Zn1052 O1055   1.926   .     S
Zn1052 O1058   1.941   .     S
Zn1052 O1060   1.911   .     S
Zn1053 O1062   1.907   .     S
Zn1053 O1059   1.930   .     S
Zn1053 O1055   1.934   .     S
Zn1053 O1067   1.933   .     S
Zn1054 O1056   1.927   .     S
Zn1054 O1061   1.918   .     S
Zn1054 O1055   1.923   .     S
Zn1054 O1065   1.935   .     S
O1056  C1068   1.263   .     A
O1057  C1069   1.276   .     A
O1058  C1070   1.263   .     A
O1059  C1071   1.268   .     A
O1060  C1072   1.272   .     A
O1061  C1073   1.287   .     A
O1062  C1072   1.278   .     A
O1063  C1073   1.292   .     A
O1064  C1070   1.271   .     A
O1065  C1071   1.268   .     A
O1066  C1068   1.261   .     A
O1067  C1069   1.279   .     A
C1068  C1092   1.435   .     S
C1069  C1090   1.453   .     S
C1070  C1095   1.434   .     S
C1071  C1094   1.463   .     S
C1072  C1076   1.463   .     S
C1073  C1088   1.503   .     S
C1074  C1087   1.415   .     A
H1075  C1084   1.081   .     S
C1076  C1086   1.393   .     A
C1076  C1087   1.415   .     A
C1077  C1088   1.430   .     A
C1077  C1133   1.484   .     S
C1077  C1078   1.418   .     A
C1078  C134    1.411   1_556 S
C1078  O196    1.389   1_556 S
C1079  C1137   1.499   .     S
C1080  C1081   1.411   .     A
C1080  C134    1.418   1_556 S
C1080  C137    1.426   1_556 S
C1081  C1085   1.419   .     A
C1081  C1088   1.429   .     A
C1082  C1086   1.402   .     A
C1083  C1084   1.401   .     A
C1083  C137    1.418   1_556 S
C1083  C129    1.418   1_556 S
C1084  C1085   1.400   .     A
C1085  C1152   1.495   .     S
C1086  H1089   1.082   .     S
C1087  C1096   1.493   .     S
C1090  H1196   1.088   .     S
C1090  C1197   1.334   .     S
H1093  C1197   1.086   .     S
C1094  C1410   1.346   .     S
C1094  O1415   1.394   .     S
C1095  C1724   1.346   1_545 S
C1095  O1741   1.392   1_545 S
C1096  O1097   1.222   .     D
C1096  O1098   1.399   .     S
O1098  H1099   1.014   .     S
O1100  C1724   1.394   1_545 S
O1100  C1731   1.416   1_545 S
C1101  H1103   1.116   .     S
C1101  C1104   1.532   .     S
C1101  O1415   1.416   .     S
C1101  H1417   1.109   .     S
H1102  C1731   1.109   1_545 S
C1104  H1106   1.111   .     S
C1104  C1107   1.524   .     S
C1104  H1420   1.112   .     S
H1105  C1734   1.112   1_545 S
C1107  H1109   1.110   .     S
C1107  H1110   1.109   .     S
C1107  H1108   1.111   .     S
O1111  C1112   1.417   .     S
O1111  C1410   1.392   .     S
C1112  H1113   1.111   .     S
C1112  H1429   1.117   .     S
C1112  C1430   1.533   .     S
H1114  C1742   1.117   1_545 S
C1115  H1117   1.110   .     S
C1115  C1118   1.526   .     S
C1115  H1116   1.112   .     S
C1115  C1742   1.533   1_545 S
C1118  H1119   1.111   .     S
H1120  C1223   1.111   .     S
H1121  C1223   1.111   .     S
O1122  C1123   1.419   .     S
O1122  C129    1.389   1_556 S
C1123  H1124   1.111   .     S
C1123  H180    1.115   1_556 S
C1123  C811    1.531   1_546 S
C1126  C1129   1.528   .     S
C1126  H1443   1.110   .     S
H1127  C811    1.112   1_546 S
H1128  C1756   1.110   1_545 S
C1129  H1131   1.110   .     S
C1129  H1130   1.108   .     S
H1132  C184    1.111   1_556 S
C1133  O1134   1.223   .     D
C1133  O1135   1.398   .     S
O1135  H1136   1.014   .     S
C1137  O1138   1.224   .     D
C1137  O1139   1.397   .     S
O1139  H1140   1.014   .     S
O1141  C1142   1.420   .     S
C1142  C1145   1.533   .     S
C1142  H1144   1.114   .     S
C1142  H1143   1.111   .     S
C1145  H1146   1.111   .     S
C1145  H1147   1.111   .     S
C1145  C1463   1.527   .     S
C1148  H1150   1.111   .     S
C1148  H1151   1.111   .     S
C1148  H1149   1.108   .     S
C1148  C1775   1.527   1_545 S
C1152  O1153   1.221   .     D
C1152  O1154   1.400   .     S
O1154  H1155   1.012   .     S
Zn1156 O1160   1.953   .     S
Zn1156 O1168   1.902   .     S
Zn1156 O1162   1.923   .     S
Zn1156 O1169   1.927   .     S
Zn1157 O1171   1.926   .     S
Zn1157 O1160   1.926   .     S
Zn1157 O1163   1.941   .     S
Zn1157 O1165   1.911   .     S
Zn1158 O1167   1.907   .     S
Zn1158 O1164   1.930   .     S
Zn1158 O1160   1.934   .     S
Zn1158 O1172   1.933   .     S
Zn1159 O1161   1.927   .     S
Zn1159 O1166   1.918   .     S
Zn1159 O1160   1.923   .     S
Zn1159 O1170   1.935   .     S
O1161  C1173   1.263   .     A
O1162  C1174   1.276   .     A
O1163  C1175   1.263   .     A
O1164  C1176   1.268   .     A
O1165  C1177   1.272   .     A
O1166  C1178   1.287   .     A
O1167  C1177   1.278   .     A
O1168  C1178   1.292   .     A
O1169  C1175   1.271   .     A
O1170  C1176   1.268   .     A
O1171  C1173   1.261   .     A
O1172  C1174   1.279   .     A
C1173  C1197   1.435   .     S
C1174  C1195   1.453   .     S
C1175  C1200   1.434   .     S
C1176  C1199   1.463   .     S
C1177  C1181   1.463   .     S
C1178  C1193   1.503   .     S
C1179  C1192   1.415   .     A
H1180  C1189   1.081   .     S
C1181  C1191   1.393   .     A
C1181  C1192   1.415   .     A
C1182  C1193   1.430   .     A
C1182  C1238   1.484   .     S
C1182  C1183   1.418   .     A
C1183  C239    1.411   1_556 S
C1183  O301    1.389   1_556 S
C1184  C1242   1.499   .     S
C1185  C1186   1.411   .     A
C1185  C239    1.418   1_556 S
C1185  C242    1.426   1_556 S
C1186  C1190   1.419   .     A
C1186  C1193   1.429   .     A
C1187  C1191   1.402   .     A
C1188  C1189   1.401   .     A
C1188  C242    1.418   1_556 S
C1188  C234    1.418   1_556 S
C1189  C1190   1.400   .     A
C1190  C1257   1.495   .     S
C1191  H1194   1.082   .     S
C1192  C1201   1.493   .     S
C1195  H986    1.088   1_655 S
C1195  C987    1.334   1_655 S
H1198  C987    1.086   1_655 S
C1199  C1515   1.346   .     S
C1199  O1520   1.394   .     S
C1200  C1829   1.346   1_545 S
C1200  O1846   1.392   1_545 S
C1201  O1202   1.222   .     D
C1201  O1203   1.399   .     S
O1203  H1204   1.014   .     S
O1205  C1829   1.394   1_545 S
O1205  C1836   1.416   1_545 S
C1206  H1208   1.116   .     S
C1206  C1209   1.532   .     S
C1206  O1520   1.416   .     S
C1206  H1522   1.109   .     S
H1207  C1836   1.109   1_545 S
C1209  H1211   1.111   .     S
C1209  C1212   1.524   .     S
C1209  H1525   1.112   .     S
H1210  C1839   1.112   1_545 S
C1212  H1214   1.110   .     S
C1212  H1215   1.109   .     S
C1212  H1213   1.111   .     S
O1216  C1217   1.417   .     S
O1216  C1515   1.392   .     S
C1217  H1218   1.111   .     S
C1217  H1534   1.117   .     S
C1217  C1535   1.533   .     S
H1219  C1847   1.117   1_545 S
C1220  H1222   1.110   .     S
C1220  C1223   1.526   .     S
C1220  H1221   1.112   .     S
C1220  C1847   1.533   1_545 S
C1223  H1224   1.111   .     S
H1225  C1013   1.111   1_655 S
H1226  C1013   1.111   1_655 S
O1227  C1228   1.419   .     S
O1227  C234    1.389   1_556 S
C1228  H1229   1.111   .     S
C1228  H285    1.115   1_556 S
C1228  C916    1.531   1_546 S
C1231  C1234   1.528   .     S
C1231  H1548   1.110   .     S
H1232  C916    1.112   1_546 S
H1233  C1861   1.110   1_545 S
C1234  H1236   1.110   .     S
C1234  H1235   1.108   .     S
H1237  C289    1.111   1_556 S
C1238  O1239   1.223   .     D
C1238  O1240   1.398   .     S
O1240  H1241   1.014   .     S
C1242  O1243   1.224   .     D
C1242  O1244   1.397   .     S
O1244  H1245   1.014   .     S
O1246  C1247   1.420   .     S
C1247  C1250   1.533   .     S
C1247  H1249   1.114   .     S
C1247  H1248   1.111   .     S
C1250  H1251   1.111   .     S
C1250  H1252   1.111   .     S
C1250  C1568   1.527   .     S
C1253  H1255   1.111   .     S
C1253  H1256   1.111   .     S
C1253  H1254   1.108   .     S
C1253  C1880   1.527   1_545 S
C1257  O1258   1.221   .     D
C1257  O1259   1.400   .     S
O1259  H1260   1.012   .     S
Zn1261 O1265   1.953   .     S
Zn1261 O1273   1.902   .     S
Zn1261 O1267   1.923   .     S
Zn1261 O1274   1.927   .     S
Zn1262 O1276   1.926   .     S
Zn1262 O1265   1.926   .     S
Zn1262 O1268   1.941   .     S
Zn1262 O1270   1.911   .     S
Zn1263 O1272   1.907   .     S
Zn1263 O1269   1.930   .     S
Zn1263 O1265   1.934   .     S
Zn1263 O1277   1.933   .     S
Zn1264 O1266   1.927   .     S
Zn1264 O1271   1.918   .     S
Zn1264 O1265   1.923   .     S
Zn1264 O1275   1.935   .     S
O1266  C1278   1.263   .     A
O1267  C1279   1.276   .     A
O1268  C1280   1.263   .     A
O1269  C1281   1.268   .     A
O1270  C1282   1.272   .     A
O1271  C1283   1.287   .     A
O1272  C1282   1.278   .     A
O1273  C1283   1.292   .     A
O1274  C1280   1.271   .     A
O1275  C1281   1.268   .     A
O1276  C1278   1.261   .     A
O1277  C1279   1.279   .     A
C1278  C1302   1.435   .     S
C1279  C1300   1.453   .     S
C1280  C1305   1.434   .     S
C1281  C1304   1.463   .     S
C1282  C1286   1.463   .     S
C1283  C1298   1.503   .     S
C1284  C1297   1.415   .     A
H1285  C1294   1.081   .     S
C1286  C1296   1.393   .     A
C1286  C1297   1.415   .     A
C1287  C1298   1.430   .     A
C1287  C1343   1.484   .     S
C1287  C1288   1.418   .     A
C1288  C344    1.411   1_556 S
C1288  O406    1.389   1_556 S
C1289  C1347   1.499   .     S
C1290  C1291   1.411   .     A
C1290  C344    1.418   1_556 S
C1290  C347    1.426   1_556 S
C1291  C1295   1.419   .     A
C1291  C1298   1.429   .     A
C1292  C1296   1.402   .     A
C1293  C1294   1.401   .     A
C1293  C347    1.418   1_556 S
C1293  C339    1.418   1_556 S
C1294  C1295   1.400   .     A
C1295  C1362   1.495   .     S
C1296  H1299   1.082   .     S
C1297  C1306   1.493   .     S
C1300  H1406   1.088   .     S
C1300  C1407   1.334   .     S
H1301  C1510   1.088   1_455 S
C1302  C1510   1.334   1_455 S
C1302  H1513   1.086   1_455 S
H1303  C1407   1.086   .     S
C1304  C1620   1.346   .     S
C1304  O1625   1.394   .     S
C1306  O1307   1.222   .     D
C1306  O1308   1.399   .     S
O1308  H1309   1.014   .     S
C1311  H1313   1.116   .     S
C1311  C1314   1.532   .     S
C1311  O1625   1.416   .     S
C1311  H1627   1.109   .     S
C1314  H1316   1.111   .     S
C1314  C1317   1.524   .     S
C1314  H1630   1.112   .     S
C1317  H1319   1.110   .     S
C1317  H1320   1.109   .     S
C1317  H1318   1.111   .     S
O1321  C1322   1.417   .     S
O1321  C1620   1.392   .     S
C1322  H1323   1.111   .     S
C1322  H1639   1.117   .     S
C1322  C1640   1.533   .     S
C1325  H1327   1.110   .     S
C1325  C1328   1.526   .     S
C1325  H1326   1.112   .     S
C1328  H1329   1.111   .     S
C1328  H1540   1.111   1_455 S
C1328  H1541   1.111   1_455 S
H1330  C1433   1.111   .     S
H1331  C1433   1.111   .     S
O1332  C1333   1.419   .     S
O1332  C339    1.389   1_556 S
C1333  H1334   1.111   .     S
C1333  H390    1.115   1_556 S
C1333  C76     1.531   1_556 S
C1336  C1339   1.528   .     S
C1336  H1653   1.110   .     S
H1337  C76     1.112   1_556 S
C1339  H1341   1.110   .     S
C1339  H1340   1.108   .     S
H1342  C394    1.111   1_556 S
C1343  O1344   1.223   .     D
C1343  O1345   1.398   .     S
O1345  H1346   1.014   .     S
C1347  O1348   1.224   .     D
C1347  O1349   1.397   .     S
O1349  H1350   1.014   .     S
O1351  C1352   1.420   .     S
C1352  C1355   1.533   .     S
C1352  H1354   1.114   .     S
C1352  H1353   1.111   .     S
C1355  H1356   1.111   .     S
C1355  H1357   1.111   .     S
C1355  C1673   1.527   .     S
C1358  H1360   1.111   .     S
C1358  H1361   1.111   .     S
C1358  H1359   1.108   .     S
C1362  O1363   1.221   .     D
C1362  O1364   1.400   .     S
O1364  H1365   1.012   .     S
Zn1366 O1370   1.953   .     S
Zn1366 O1378   1.902   .     S
Zn1366 O1372   1.923   .     S
Zn1366 O1379   1.927   .     S
Zn1367 O1381   1.926   .     S
Zn1367 O1370   1.926   .     S
Zn1367 O1373   1.941   .     S
Zn1367 O1375   1.911   .     S
Zn1368 O1377   1.907   .     S
Zn1368 O1374   1.930   .     S
Zn1368 O1370   1.934   .     S
Zn1368 O1382   1.933   .     S
Zn1369 O1371   1.927   .     S
Zn1369 O1376   1.918   .     S
Zn1369 O1370   1.923   .     S
Zn1369 O1380   1.935   .     S
O1371  C1383   1.263   .     A
O1372  C1384   1.276   .     A
O1373  C1385   1.263   .     A
O1374  C1386   1.268   .     A
O1375  C1387   1.272   .     A
O1376  C1388   1.287   .     A
O1377  C1387   1.278   .     A
O1378  C1388   1.292   .     A
O1379  C1385   1.271   .     A
O1380  C1386   1.268   .     A
O1381  C1383   1.261   .     A
O1382  C1384   1.279   .     A
C1383  C1407   1.435   .     S
C1384  C1405   1.453   .     S
C1385  C1410   1.434   .     S
C1386  C1409   1.463   .     S
C1387  C1391   1.463   .     S
C1388  C1403   1.503   .     S
C1389  C1402   1.415   .     A
H1390  C1399   1.081   .     S
C1391  C1401   1.393   .     A
C1391  C1402   1.415   .     A
C1392  C1403   1.430   .     A
C1392  C1448   1.484   .     S
C1392  C1393   1.418   .     A
C1393  C449    1.411   1_556 S
C1393  O511    1.389   1_556 S
C1394  C1452   1.499   .     S
C1395  C1396   1.411   .     A
C1395  C449    1.418   1_556 S
C1395  C452    1.426   1_556 S
C1396  C1400   1.419   .     A
C1396  C1403   1.429   .     A
C1397  C1401   1.402   .     A
C1398  C1399   1.401   .     A
C1398  C452    1.418   1_556 S
C1398  C444    1.418   1_556 S
C1399  C1400   1.400   .     A
C1400  C1467   1.495   .     S
C1401  H1404   1.082   .     S
C1402  C1411   1.493   .     S
C1405  H1511   1.088   .     S
C1405  C1512   1.334   .     S
H1408  C1512   1.086   .     S
C1409  C1725   1.346   .     S
C1409  O1730   1.394   .     S
C1411  O1412   1.222   .     D
C1411  O1413   1.399   .     S
O1413  H1414   1.014   .     S
C1416  H1418   1.116   .     S
C1416  C1419   1.532   .     S
C1416  O1730   1.416   .     S
C1416  H1732   1.109   .     S
C1419  H1421   1.111   .     S
C1419  C1422   1.524   .     S
C1419  H1735   1.112   .     S
C1422  H1424   1.110   .     S
C1422  H1425   1.109   .     S
C1422  H1423   1.111   .     S
O1426  C1427   1.417   .     S
O1426  C1725   1.392   .     S
C1427  H1428   1.111   .     S
C1427  H1744   1.117   .     S
C1427  C1745   1.533   .     S
C1430  H1432   1.110   .     S
C1430  C1433   1.526   .     S
C1430  H1431   1.112   .     S
C1433  H1434   1.111   .     S
H1435  C1538   1.111   .     S
H1436  C1538   1.111   .     S
O1437  C1438   1.419   .     S
O1437  C444    1.389   1_556 S
C1438  H1439   1.111   .     S
C1438  H495    1.115   1_556 S
C1438  C181    1.531   1_556 S
C1441  C1444   1.528   .     S
C1441  H1758   1.110   .     S
H1442  C181    1.112   1_556 S
C1444  H1446   1.110   .     S
C1444  H1445   1.108   .     S
H1447  C499    1.111   1_556 S
C1448  O1449   1.223   .     D
C1448  O1450   1.398   .     S
O1450  H1451   1.014   .     S
C1452  O1453   1.224   .     D
C1452  O1454   1.397   .     S
O1454  H1455   1.014   .     S
O1456  C1457   1.420   .     S
C1457  C1460   1.533   .     S
C1457  H1459   1.114   .     S
C1457  H1458   1.111   .     S
C1460  H1461   1.111   .     S
C1460  H1462   1.111   .     S
C1460  C1778   1.527   .     S
C1463  H1465   1.111   .     S
C1463  H1466   1.111   .     S
C1463  H1464   1.108   .     S
C1467  O1468   1.221   .     D
C1467  O1469   1.400   .     S
O1469  H1470   1.012   .     S
Zn1471 O1475   1.953   .     S
Zn1471 O1483   1.902   .     S
Zn1471 O1477   1.923   .     S
Zn1471 O1484   1.927   .     S
Zn1472 O1486   1.926   .     S
Zn1472 O1475   1.926   .     S
Zn1472 O1478   1.941   .     S
Zn1472 O1480   1.911   .     S
Zn1473 O1482   1.907   .     S
Zn1473 O1479   1.930   .     S
Zn1473 O1475   1.934   .     S
Zn1473 O1487   1.933   .     S
Zn1474 O1476   1.927   .     S
Zn1474 O1481   1.918   .     S
Zn1474 O1475   1.923   .     S
Zn1474 O1485   1.935   .     S
O1476  C1488   1.263   .     A
O1477  C1489   1.276   .     A
O1478  C1490   1.263   .     A
O1479  C1491   1.268   .     A
O1480  C1492   1.272   .     A
O1481  C1493   1.287   .     A
O1482  C1492   1.278   .     A
O1483  C1493   1.292   .     A
O1484  C1490   1.271   .     A
O1485  C1491   1.268   .     A
O1486  C1488   1.261   .     A
O1487  C1489   1.279   .     A
C1488  C1512   1.435   .     S
C1489  C1510   1.453   .     S
C1490  C1515   1.434   .     S
C1491  C1514   1.463   .     S
C1492  C1496   1.463   .     S
C1493  C1508   1.503   .     S
C1494  C1507   1.415   .     A
H1495  C1504   1.081   .     S
C1496  C1506   1.393   .     A
C1496  C1507   1.415   .     A
C1497  C1508   1.430   .     A
C1497  C1553   1.484   .     S
C1497  C1498   1.418   .     A
C1498  C554    1.411   1_556 S
C1498  O616    1.389   1_556 S
C1499  C1557   1.499   .     S
C1500  C1501   1.411   .     A
C1500  C554    1.418   1_556 S
C1500  C557    1.426   1_556 S
C1501  C1505   1.419   .     A
C1501  C1508   1.429   .     A
C1502  C1506   1.402   .     A
C1503  C1504   1.401   .     A
C1503  C557    1.418   1_556 S
C1503  C549    1.418   1_556 S
C1504  C1505   1.400   .     A
C1505  C1572   1.495   .     S
C1506  H1509   1.082   .     S
C1507  C1516   1.493   .     S
C1510  H1301   1.088   1_655 S
C1510  C1302   1.334   1_655 S
H1513  C1302   1.086   1_655 S
C1514  C1830   1.346   .     S
C1514  O1835   1.394   .     S
C1516  O1517   1.222   .     D
C1516  O1518   1.399   .     S
O1518  H1519   1.014   .     S
C1521  H1523   1.116   .     S
C1521  C1524   1.532   .     S
C1521  O1835   1.416   .     S
C1521  H1837   1.109   .     S
C1524  H1526   1.111   .     S
C1524  C1527   1.524   .     S
C1524  H1840   1.112   .     S
C1527  H1529   1.110   .     S
C1527  H1530   1.109   .     S
C1527  H1528   1.111   .     S
O1531  C1532   1.417   .     S
O1531  C1830   1.392   .     S
C1532  H1533   1.111   .     S
C1532  H1849   1.117   .     S
C1532  C1850   1.533   .     S
C1535  H1537   1.110   .     S
C1535  C1538   1.526   .     S
C1535  H1536   1.112   .     S
C1538  H1539   1.111   .     S
H1540  C1328   1.111   1_655 S
H1541  C1328   1.111   1_655 S
O1542  C1543   1.419   .     S
O1542  C549    1.389   1_556 S
C1543  H1544   1.111   .     S
C1543  H600    1.115   1_556 S
C1543  C286    1.531   1_556 S
C1546  C1549   1.528   .     S
C1546  H1863   1.110   .     S
H1547  C286    1.112   1_556 S
C1549  H1551   1.110   .     S
C1549  H1550   1.108   .     S
H1552  C604    1.111   1_556 S
C1553  O1554   1.223   .     D
C1553  O1555   1.398   .     S
O1555  H1556   1.014   .     S
C1557  O1558   1.224   .     D
C1557  O1559   1.397   .     S
O1559  H1560   1.014   .     S
O1561  C1562   1.420   .     S
C1562  C1565   1.533   .     S
C1562  H1564   1.114   .     S
C1562  H1563   1.111   .     S
C1565  H1566   1.111   .     S
C1565  H1567   1.111   .     S
C1565  C1883   1.527   .     S
C1568  H1570   1.111   .     S
C1568  H1571   1.111   .     S
C1568  H1569   1.108   .     S
C1572  O1573   1.221   .     D
C1572  O1574   1.400   .     S
O1574  H1575   1.012   .     S
Zn1576 O1580   1.953   .     S
Zn1576 O1588   1.902   .     S
Zn1576 O1582   1.923   .     S
Zn1576 O1589   1.927   .     S
Zn1577 O1591   1.926   .     S
Zn1577 O1580   1.926   .     S
Zn1577 O1583   1.941   .     S
Zn1577 O1585   1.911   .     S
Zn1578 O1587   1.907   .     S
Zn1578 O1584   1.930   .     S
Zn1578 O1580   1.934   .     S
Zn1578 O1592   1.933   .     S
Zn1579 O1581   1.927   .     S
Zn1579 O1586   1.918   .     S
Zn1579 O1580   1.923   .     S
Zn1579 O1590   1.935   .     S
O1581  C1593   1.263   .     A
O1582  C1594   1.276   .     A
O1583  C1595   1.263   .     A
O1584  C1596   1.268   .     A
O1585  C1597   1.272   .     A
O1586  C1598   1.287   .     A
O1587  C1597   1.278   .     A
O1588  C1598   1.292   .     A
O1589  C1595   1.271   .     A
O1590  C1596   1.268   .     A
O1591  C1593   1.261   .     A
O1592  C1594   1.279   .     A
C1593  C1617   1.435   .     S
C1594  C1615   1.453   .     S
C1595  C1620   1.434   .     S
C1596  C1619   1.463   .     S
C1597  C1601   1.463   .     S
C1598  C1613   1.503   .     S
C1599  C1612   1.415   .     A
H1600  C1609   1.081   .     S
C1601  C1611   1.393   .     A
C1601  C1612   1.415   .     A
C1602  C1613   1.430   .     A
C1602  C1658   1.484   .     S
C1602  C1603   1.418   .     A
C1603  C659    1.411   1_556 S
C1603  O721    1.389   1_556 S
C1604  C1662   1.499   .     S
C1605  C1606   1.411   .     A
C1605  C659    1.418   1_556 S
C1605  C662    1.426   1_556 S
C1606  C1610   1.419   .     A
C1606  C1613   1.429   .     A
C1607  C1611   1.402   .     A
C1608  C1609   1.401   .     A
C1608  C662    1.418   1_556 S
C1608  C654    1.418   1_556 S
C1609  C1610   1.400   .     A
C1610  C1677   1.495   .     S
C1611  H1614   1.082   .     S
C1612  C1621   1.493   .     S
C1615  H1721   1.088   .     S
C1615  C1722   1.334   .     S
H1616  C1825   1.088   1_455 S
C1617  C1825   1.334   1_455 S
C1617  H1828   1.086   1_455 S
H1618  C1722   1.086   .     S
C1619  C990    1.346   1_565 S
C1619  O995    1.394   1_565 S
C1621  O1622   1.222   .     D
C1621  O1623   1.399   .     S
O1623  H1624   1.014   .     S
C1626  H1628   1.116   .     S
C1626  C1629   1.532   .     S
C1626  O995    1.416   1_565 S
C1626  H997    1.109   1_565 S
C1629  H1631   1.111   .     S
C1629  C1632   1.524   .     S
C1629  H1000   1.112   1_565 S
C1632  H1634   1.110   .     S
C1632  H1635   1.109   .     S
C1632  H1633   1.111   .     S
O1636  C1637   1.417   .     S
O1636  C990    1.392   1_565 S
C1637  H1638   1.111   .     S
C1637  H1009   1.117   1_565 S
C1637  C1010   1.533   1_565 S
C1640  H1642   1.110   .     S
C1640  C1643   1.526   .     S
C1640  H1641   1.112   .     S
C1643  H1644   1.111   .     S
C1643  H1855   1.111   1_455 S
C1643  H1856   1.111   1_455 S
H1645  C1748   1.111   .     S
H1646  C1748   1.111   .     S
O1647  C1648   1.419   .     S
O1647  C654    1.389   1_556 S
C1648  H1649   1.111   .     S
C1648  H705    1.115   1_556 S
C1648  C391    1.531   1_556 S
C1651  C1654   1.528   .     S
C1651  C73     1.531   1_565 S
C1651  H77     1.112   1_565 S
C1651  H1023   1.110   1_565 S
H1652  C391    1.112   1_556 S
C1654  H1656   1.110   .     S
C1654  H1655   1.108   .     S
H1657  C709    1.111   1_556 S
C1658  O1659   1.223   .     D
C1658  O1660   1.398   .     S
O1660  H1661   1.014   .     S
C1662  O1663   1.224   .     D
C1662  O1664   1.397   .     S
O1664  H1665   1.014   .     S
O1666  C1667   1.420   .     S
C1667  C1670   1.533   .     S
C1667  H1669   1.114   .     S
C1667  H1668   1.111   .     S
C1670  H1671   1.111   .     S
C1670  H1672   1.111   .     S
C1670  C1043   1.527   1_565 S
C1673  H1675   1.111   .     S
C1673  H1676   1.111   .     S
C1673  H1674   1.108   .     S
C1677  O1678   1.221   .     D
C1677  O1679   1.400   .     S
O1679  H1680   1.012   .     S
Zn1681 O1685   1.953   .     S
Zn1681 O1693   1.902   .     S
Zn1681 O1687   1.923   .     S
Zn1681 O1694   1.927   .     S
Zn1682 O1696   1.926   .     S
Zn1682 O1685   1.926   .     S
Zn1682 O1688   1.941   .     S
Zn1682 O1690   1.911   .     S
Zn1683 O1692   1.907   .     S
Zn1683 O1689   1.930   .     S
Zn1683 O1685   1.934   .     S
Zn1683 O1697   1.933   .     S
Zn1684 O1686   1.927   .     S
Zn1684 O1691   1.918   .     S
Zn1684 O1685   1.923   .     S
Zn1684 O1695   1.935   .     S
O1686  C1698   1.263   .     A
O1687  C1699   1.276   .     A
O1688  C1700   1.263   .     A
O1689  C1701   1.268   .     A
O1690  C1702   1.272   .     A
O1691  C1703   1.287   .     A
O1692  C1702   1.278   .     A
O1693  C1703   1.292   .     A
O1694  C1700   1.271   .     A
O1695  C1701   1.268   .     A
O1696  C1698   1.261   .     A
O1697  C1699   1.279   .     A
C1698  C1722   1.435   .     S
C1699  C1720   1.453   .     S
C1700  C1725   1.434   .     S
C1701  C1724   1.463   .     S
C1702  C1706   1.463   .     S
C1703  C1718   1.503   .     S
C1704  C1717   1.415   .     A
H1705  C1714   1.081   .     S
C1706  C1716   1.393   .     A
C1706  C1717   1.415   .     A
C1707  C1718   1.430   .     A
C1707  C1763   1.484   .     S
C1707  C1708   1.418   .     A
C1708  C764    1.411   1_556 S
C1708  O826    1.389   1_556 S
C1709  C1767   1.499   .     S
C1710  C1711   1.411   .     A
C1710  C764    1.418   1_556 S
C1710  C767    1.426   1_556 S
C1711  C1715   1.419   .     A
C1711  C1718   1.429   .     A
C1712  C1716   1.402   .     A
C1713  C1714   1.401   .     A
C1713  C767    1.418   1_556 S
C1713  C759    1.418   1_556 S
C1714  C1715   1.400   .     A
C1715  C1782   1.495   .     S
C1716  H1719   1.082   .     S
C1717  C1726   1.493   .     S
C1720  H1826   1.088   .     S
C1720  C1827   1.334   .     S
H1723  C1827   1.086   .     S
C1724  C1095   1.346   1_565 S
C1724  O1100   1.394   1_565 S
C1726  O1727   1.222   .     D
C1726  O1728   1.399   .     S
O1728  H1729   1.014   .     S
C1731  H1733   1.116   .     S
C1731  C1734   1.532   .     S
C1731  O1100   1.416   1_565 S
C1731  H1102   1.109   1_565 S
C1734  H1736   1.111   .     S
C1734  C1737   1.524   .     S
C1734  H1105   1.112   1_565 S
C1737  H1739   1.110   .     S
C1737  H1740   1.109   .     S
C1737  H1738   1.111   .     S
O1741  C1742   1.417   .     S
O1741  C1095   1.392   1_565 S
C1742  H1743   1.111   .     S
C1742  H1114   1.117   1_565 S
C1742  C1115   1.533   1_565 S
C1745  H1747   1.110   .     S
C1745  C1748   1.526   .     S
C1745  H1746   1.112   .     S
C1748  H1749   1.111   .     S
H1750  C1853   1.111   .     S
H1751  C1853   1.111   .     S
O1752  C1753   1.419   .     S
O1752  C759    1.389   1_556 S
C1753  H1754   1.111   .     S
C1753  H810    1.115   1_556 S
C1753  C496    1.531   1_556 S
C1756  C1759   1.528   .     S
C1756  C178    1.531   1_565 S
C1756  H182    1.112   1_565 S
C1756  H1128   1.110   1_565 S
H1757  C496    1.112   1_556 S
C1759  H1761   1.110   .     S
C1759  H1760   1.108   .     S
H1762  C814    1.111   1_556 S
C1763  O1764   1.223   .     D
C1763  O1765   1.398   .     S
O1765  H1766   1.014   .     S
C1767  O1768   1.224   .     D
C1767  O1769   1.397   .     S
O1769  H1770   1.014   .     S
O1771  C1772   1.420   .     S
C1772  C1775   1.533   .     S
C1772  H1774   1.114   .     S
C1772  H1773   1.111   .     S
C1775  H1776   1.111   .     S
C1775  H1777   1.111   .     S
C1775  C1148   1.527   1_565 S
C1778  H1780   1.111   .     S
C1778  H1781   1.111   .     S
C1778  H1779   1.108   .     S
C1782  O1783   1.221   .     D
C1782  O1784   1.400   .     S
O1784  H1785   1.012   .     S
Zn1786 O1790   1.953   .     S
Zn1786 O1798   1.902   .     S
Zn1786 O1792   1.923   .     S
Zn1786 O1799   1.927   .     S
Zn1787 O1801   1.926   .     S
Zn1787 O1790   1.926   .     S
Zn1787 O1793   1.941   .     S
Zn1787 O1795   1.911   .     S
Zn1788 O1797   1.907   .     S
Zn1788 O1794   1.930   .     S
Zn1788 O1790   1.934   .     S
Zn1788 O1802   1.933   .     S
Zn1789 O1791   1.927   .     S
Zn1789 O1796   1.918   .     S
Zn1789 O1790   1.923   .     S
Zn1789 O1800   1.935   .     S
O1791  C1803   1.263   .     A
O1792  C1804   1.276   .     A
O1793  C1805   1.263   .     A
O1794  C1806   1.268   .     A
O1795  C1807   1.272   .     A
O1796  C1808   1.287   .     A
O1797  C1807   1.278   .     A
O1798  C1808   1.292   .     A
O1799  C1805   1.271   .     A
O1800  C1806   1.268   .     A
O1801  C1803   1.261   .     A
O1802  C1804   1.279   .     A
C1803  C1827   1.435   .     S
C1804  C1825   1.453   .     S
C1805  C1830   1.434   .     S
C1806  C1829   1.463   .     S
C1807  C1811   1.463   .     S
C1808  C1823   1.503   .     S
C1809  C1822   1.415   .     A
H1810  C1819   1.081   .     S
C1811  C1821   1.393   .     A
C1811  C1822   1.415   .     A
C1812  C1823   1.430   .     A
C1812  C1868   1.484   .     S
C1812  C1813   1.418   .     A
C1813  C869    1.411   1_556 S
C1813  O931    1.389   1_556 S
C1814  C1872   1.499   .     S
C1815  C1816   1.411   .     A
C1815  C869    1.418   1_556 S
C1815  C872    1.426   1_556 S
C1816  C1820   1.419   .     A
C1816  C1823   1.429   .     A
C1817  C1821   1.402   .     A
C1818  C1819   1.401   .     A
C1818  C872    1.418   1_556 S
C1818  C864    1.418   1_556 S
C1819  C1820   1.400   .     A
C1820  C1887   1.495   .     S
C1821  H1824   1.082   .     S
C1822  C1831   1.493   .     S
C1825  H1616   1.088   1_655 S
C1825  C1617   1.334   1_655 S
H1828  C1617   1.086   1_655 S
C1829  C1200   1.346   1_565 S
C1829  O1205   1.394   1_565 S
C1831  O1832   1.222   .     D
C1831  O1833   1.399   .     S
O1833  H1834   1.014   .     S
C1836  H1838   1.116   .     S
C1836  C1839   1.532   .     S
C1836  O1205   1.416   1_565 S
C1836  H1207   1.109   1_565 S
C1839  H1841   1.111   .     S
C1839  C1842   1.524   .     S
C1839  H1210   1.112   1_565 S
C1842  H1844   1.110   .     S
C1842  H1845   1.109   .     S
C1842  H1843   1.111   .     S
O1846  C1847   1.417   .     S
O1846  C1200   1.392   1_565 S
C1847  H1848   1.111   .     S
C1847  H1219   1.117   1_565 S
C1847  C1220   1.533   1_565 S
C1850  H1852   1.110   .     S
C1850  C1853   1.526   .     S
C1850  H1851   1.112   .     S
C1853  H1854   1.111   .     S
H1855  C1643   1.111   1_655 S
H1856  C1643   1.111   1_655 S
O1857  C1858   1.419   .     S
O1857  C864    1.389   1_556 S
C1858  H1859   1.111   .     S
C1858  H915    1.115   1_556 S
C1858  C601    1.531   1_556 S
C1861  C1864   1.528   .     S
C1861  C283    1.531   1_565 S
C1861  H287    1.112   1_565 S
C1861  H1233   1.110   1_565 S
H1862  C601    1.112   1_556 S
C1864  H1866   1.110   .     S
C1864  H1865   1.108   .     S
H1867  C919    1.111   1_556 S
C1868  O1869   1.223   .     D
C1868  O1870   1.398   .     S
O1870  H1871   1.014   .     S
C1872  O1873   1.224   .     D
C1872  O1874   1.397   .     S
O1874  H1875   1.014   .     S
O1876  C1877   1.420   .     S
C1877  C1880   1.533   .     S
C1877  H1879   1.114   .     S
C1877  H1878   1.111   .     S
C1880  H1881   1.111   .     S
C1880  H1882   1.111   .     S
C1880  C1253   1.527   1_565 S
C1883  H1885   1.111   .     S
C1883  H1886   1.111   .     S
C1883  H1884   1.108   .     S
C1887  O1888   1.221   .     D
C1887  O1889   1.400   .     S
O1889  H1890   1.012   .     S
