data_str_m1_o10_o16_pcu_sym.223
_audit_creation_date              2020-01-03
_audit_creation_method            'Materials Studio'
_symmetry_space_group_name_H-M    'P1'
_symmetry_Int_Tables_number       1
_symmetry_cell_setting            triclinic
loop_
_symmetry_equiv_pos_as_xyz
  x,y,z
_cell_length_a                    32.7297
_cell_length_b                    32.5001
_cell_length_c                    30.9097
_cell_angle_alpha                 96.5551
_cell_angle_beta                  74.6694
_cell_angle_gamma                 98.4255
loop_
_atom_site_label
_atom_site_type_symbol
_atom_site_fract_x
_atom_site_fract_y
_atom_site_fract_z
_atom_site_U_iso_or_equiv
_atom_site_adp_type
_atom_site_occupancy
Zn1    Zn    0.19338   0.13994   0.28734   0.00000  Uiso   1.00
Zn2    Zn    0.13379   0.12458   0.21876   0.00000  Uiso   1.00
Zn3    Zn    0.21056   0.19775   0.20657   0.00000  Uiso   1.00
Zn4    Zn    0.12893   0.20439   0.28733   0.00000  Uiso   1.00
O5     O     0.16667   0.16667   0.25000   0.00000  Uiso   1.00
O6     O     0.07071   0.18878   0.28213   0.00000  Uiso   1.00
O7     O     0.25491   0.15226   0.27014   0.00000  Uiso   1.00
O8     O     0.13760   0.06944   0.23413   0.00000  Uiso   1.00
O9     O     0.20345   0.25620   0.21361   0.00000  Uiso   1.00
O10    O     0.15451   0.12637   0.15459   0.00000  Uiso   1.00
O11    O     0.12940   0.20391   0.34968   0.00000  Uiso   1.00
O12    O     0.20824   0.17759   0.14606   0.00000  Uiso   1.00
O13    O     0.17451   0.15880   0.34968   0.00000  Uiso   1.00
O14    O     0.17930   0.08019   0.28214   0.00000  Uiso   1.00
O15    O     0.14632   0.26085   0.27013   0.00000  Uiso   1.00
O16    O     0.07412   0.13291   0.23413   0.00000  Uiso   1.00
O17    O     0.26693   0.19272   0.21361   0.00000  Uiso   1.00
C18    C     0.05302   0.15994   0.25981   0.00000  Uiso   1.00
C19    C     0.28073   0.17363   0.24014   0.00000  Uiso   1.00
C20    C     0.15573   0.05596   0.26060   0.00000  Uiso   1.00
C21    C     0.17679   0.27797   0.24029   0.00000  Uiso   1.00
C22    C     0.18542   0.14796   0.12933   0.00000  Uiso   1.00
C23    C     0.14737   0.18377   0.37138   0.00000  Uiso   1.00
C24    C     0.21408   0.09515   0.01293   0.00000  Uiso   1.00
H25    H     0.22884   0.06791   0.49643   0.00000  Uiso   1.00
C26    C     0.19299   0.13983   0.08086   0.00000  Uiso   1.00
C27    C     0.12397   0.22930   0.44255   0.00000  Uiso   1.00
C28    C     0.13319   0.24549   0.48332   0.00000  Uiso   1.00
C29    C     0.15742   0.22445   0.00265   0.00000  Uiso   1.00
C30    C     0.16329   0.18214   0.48756   0.00000  Uiso   1.00
C31    C     0.15360   0.16543   0.44640   0.00000  Uiso   1.00
C32    C     0.17847   0.15581   0.01189   0.00000  Uiso   1.00
C33    C     0.19330   0.11778   0.49068   0.00000  Uiso   1.00
C34    C     0.18371   0.10166   0.44978   0.00000  Uiso   1.00
C35    C     0.15885   0.12311   0.43159   0.00000  Uiso   1.00
C36    C     0.17533   0.16412   0.05810   0.00000  Uiso   1.00
C37    C     0.21411   0.10619   0.05786   0.00000  Uiso   1.00
C38    C     0.13928   0.19162   0.42115   0.00000  Uiso   1.00
H39    H     0.15631   0.18756   0.07767   0.00000  Uiso   1.00
C40    C     0.32638   0.17475   0.23554   0.00000  Uiso   1.00
C41    C     0.00799   0.15748   0.26521   0.00000  Uiso   1.00
C42    C     0.18167   0.32276   0.23710   0.00000  Uiso   1.00
C43    C     0.15210   0.01177   0.26345   0.00000  Uiso   1.00
H44    H     0.12402   0.33070   0.28665   0.00000  Uiso   1.00
Br45   Br    0.24021   0.07268   0.08759   0.00000  Uiso   1.00
Br46   Br    0.30833   0.13295   0.31978   0.00000  Uiso   1.00
Br47   Br    0.23097   0.01479   0.19493   0.00000  Uiso   1.00
N48    N     0.19497   0.06169   0.42887   0.00000  Uiso   1.00
O49    O     0.21289   0.05761   0.38595   0.00000  Uiso   1.00
O50    O     0.18228   0.02849   0.45099   0.00000  Uiso   1.00
N51    N     0.10098   0.25238   0.42206   0.00000  Uiso   1.00
O52    O     0.06392   0.23624   0.41598   0.00000  Uiso   1.00
O53    O     0.11702   0.28942   0.40931   0.00000  Uiso   1.00
Br54   Br    0.18977   0.25813   0.04110   0.00000  Uiso   1.00
Br55   Br    0.11281   0.29691   0.01255   0.00000  Uiso   1.00
Br56   Br    0.12242   0.08971   0.39717   0.00000  Uiso   1.00
Br57   Br    0.03148   0.20133   0.18483   0.00000  Uiso   1.00
Zn58   Zn    0.52672   0.13994   0.28734   0.00000  Uiso   1.00
Zn59   Zn    0.46713   0.12458   0.21876   0.00000  Uiso   1.00
Zn60   Zn    0.54389   0.19775   0.20657   0.00000  Uiso   1.00
Zn61   Zn    0.46226   0.20439   0.28733   0.00000  Uiso   1.00
O62    O     0.50000   0.16667   0.25000   0.00000  Uiso   1.00
O63    O     0.40405   0.18878   0.28213   0.00000  Uiso   1.00
O64    O     0.58824   0.15226   0.27014   0.00000  Uiso   1.00
O65    O     0.47093   0.06944   0.23413   0.00000  Uiso   1.00
O66    O     0.53678   0.25620   0.21361   0.00000  Uiso   1.00
O67    O     0.48784   0.12637   0.15459   0.00000  Uiso   1.00
O68    O     0.46274   0.20391   0.34968   0.00000  Uiso   1.00
O69    O     0.54157   0.17759   0.14606   0.00000  Uiso   1.00
O70    O     0.50785   0.15880   0.34968   0.00000  Uiso   1.00
O71    O     0.51264   0.08019   0.28214   0.00000  Uiso   1.00
O72    O     0.47965   0.26085   0.27013   0.00000  Uiso   1.00
O73    O     0.40745   0.13291   0.23413   0.00000  Uiso   1.00
O74    O     0.60026   0.19272   0.21361   0.00000  Uiso   1.00
C75    C     0.38636   0.15994   0.25981   0.00000  Uiso   1.00
C76    C     0.61406   0.17363   0.24014   0.00000  Uiso   1.00
C77    C     0.48906   0.05596   0.26060   0.00000  Uiso   1.00
C78    C     0.51012   0.27797   0.24029   0.00000  Uiso   1.00
C79    C     0.51875   0.14796   0.12933   0.00000  Uiso   1.00
C80    C     0.48070   0.18377   0.37138   0.00000  Uiso   1.00
C81    C     0.54742   0.09515   0.01293   0.00000  Uiso   1.00
H82    H     0.56217   0.06791   0.49643   0.00000  Uiso   1.00
C83    C     0.52632   0.13983   0.08086   0.00000  Uiso   1.00
C84    C     0.45730   0.22930   0.44255   0.00000  Uiso   1.00
C85    C     0.46653   0.24549   0.48332   0.00000  Uiso   1.00
C86    C     0.49076   0.22445   0.00265   0.00000  Uiso   1.00
C87    C     0.49662   0.18214   0.48756   0.00000  Uiso   1.00
C88    C     0.48694   0.16543   0.44640   0.00000  Uiso   1.00
C89    C     0.51180   0.15581   0.01189   0.00000  Uiso   1.00
C90    C     0.52664   0.11778   0.49068   0.00000  Uiso   1.00
C91    C     0.51704   0.10166   0.44978   0.00000  Uiso   1.00
C92    C     0.49218   0.12311   0.43159   0.00000  Uiso   1.00
C93    C     0.50866   0.16412   0.05810   0.00000  Uiso   1.00
C94    C     0.54744   0.10619   0.05786   0.00000  Uiso   1.00
C95    C     0.47261   0.19162   0.42115   0.00000  Uiso   1.00
H96    H     0.48964   0.18756   0.07767   0.00000  Uiso   1.00
C97    C     0.65971   0.17475   0.23554   0.00000  Uiso   1.00
C98    C     0.34133   0.15748   0.26521   0.00000  Uiso   1.00
C99    C     0.51501   0.32276   0.23710   0.00000  Uiso   1.00
C100   C     0.48544   0.01177   0.26345   0.00000  Uiso   1.00
H101   H     0.45735   0.33070   0.28665   0.00000  Uiso   1.00
Br102  Br    0.57354   0.07268   0.08759   0.00000  Uiso   1.00
Br103  Br    0.64167   0.13295   0.31978   0.00000  Uiso   1.00
Br104  Br    0.56431   0.01479   0.19493   0.00000  Uiso   1.00
N105   N     0.52830   0.06169   0.42887   0.00000  Uiso   1.00
O106   O     0.54622   0.05761   0.38595   0.00000  Uiso   1.00
O107   O     0.51562   0.02849   0.45099   0.00000  Uiso   1.00
N108   N     0.43432   0.25238   0.42206   0.00000  Uiso   1.00
O109   O     0.39725   0.23624   0.41598   0.00000  Uiso   1.00
O110   O     0.45036   0.28942   0.40931   0.00000  Uiso   1.00
Br111  Br    0.52310   0.25813   0.04110   0.00000  Uiso   1.00
Br112  Br    0.44614   0.29691   0.01255   0.00000  Uiso   1.00
Br113  Br    0.45575   0.08971   0.39717   0.00000  Uiso   1.00
Br114  Br    0.36481   0.20133   0.18483   0.00000  Uiso   1.00
Zn115  Zn    0.86005   0.13994   0.28734   0.00000  Uiso   1.00
Zn116  Zn    0.80046   0.12458   0.21876   0.00000  Uiso   1.00
Zn117  Zn    0.87723   0.19775   0.20657   0.00000  Uiso   1.00
Zn118  Zn    0.79560   0.20439   0.28733   0.00000  Uiso   1.00
O119   O     0.83333   0.16667   0.25000   0.00000  Uiso   1.00
O120   O     0.73738   0.18878   0.28213   0.00000  Uiso   1.00
O121   O     0.92158   0.15226   0.27014   0.00000  Uiso   1.00
O122   O     0.80426   0.06944   0.23413   0.00000  Uiso   1.00
O123   O     0.87012   0.25620   0.21361   0.00000  Uiso   1.00
O124   O     0.82118   0.12637   0.15459   0.00000  Uiso   1.00
O125   O     0.79607   0.20391   0.34968   0.00000  Uiso   1.00
O126   O     0.87491   0.17759   0.14606   0.00000  Uiso   1.00
O127   O     0.84118   0.15880   0.34968   0.00000  Uiso   1.00
O128   O     0.84597   0.08019   0.28214   0.00000  Uiso   1.00
O129   O     0.81298   0.26085   0.27013   0.00000  Uiso   1.00
O130   O     0.74078   0.13291   0.23413   0.00000  Uiso   1.00
O131   O     0.93360   0.19272   0.21361   0.00000  Uiso   1.00
C132   C     0.71969   0.15994   0.25981   0.00000  Uiso   1.00
C133   C     0.94739   0.17363   0.24014   0.00000  Uiso   1.00
C134   C     0.82239   0.05596   0.26060   0.00000  Uiso   1.00
C135   C     0.84345   0.27797   0.24029   0.00000  Uiso   1.00
C136   C     0.85209   0.14796   0.12933   0.00000  Uiso   1.00
C137   C     0.81403   0.18377   0.37138   0.00000  Uiso   1.00
C138   C     0.88075   0.09515   0.01293   0.00000  Uiso   1.00
H139   H     0.89551   0.06791   0.49643   0.00000  Uiso   1.00
C140   C     0.85966   0.13983   0.08086   0.00000  Uiso   1.00
C141   C     0.79064   0.22930   0.44255   0.00000  Uiso   1.00
C142   C     0.79986   0.24549   0.48332   0.00000  Uiso   1.00
C143   C     0.82409   0.22445   0.00265   0.00000  Uiso   1.00
C144   C     0.82996   0.18214   0.48756   0.00000  Uiso   1.00
C145   C     0.82027   0.16543   0.44640   0.00000  Uiso   1.00
C146   C     0.84513   0.15581   0.01189   0.00000  Uiso   1.00
C147   C     0.85997   0.11778   0.49068   0.00000  Uiso   1.00
C148   C     0.85037   0.10166   0.44978   0.00000  Uiso   1.00
C149   C     0.82551   0.12311   0.43159   0.00000  Uiso   1.00
C150   C     0.84199   0.16412   0.05810   0.00000  Uiso   1.00
C151   C     0.88078   0.10619   0.05786   0.00000  Uiso   1.00
C152   C     0.80594   0.19162   0.42115   0.00000  Uiso   1.00
H153   H     0.82297   0.18756   0.07767   0.00000  Uiso   1.00
C154   C     0.99304   0.17475   0.23554   0.00000  Uiso   1.00
C155   C     0.67466   0.15748   0.26521   0.00000  Uiso   1.00
C156   C     0.84834   0.32276   0.23710   0.00000  Uiso   1.00
C157   C     0.81877   0.01177   0.26345   0.00000  Uiso   1.00
H158   H     0.79069   0.33070   0.28665   0.00000  Uiso   1.00
Br159  Br    0.90688   0.07268   0.08759   0.00000  Uiso   1.00
Br160  Br    0.97500   0.13295   0.31978   0.00000  Uiso   1.00
Br161  Br    0.89764   0.01479   0.19493   0.00000  Uiso   1.00
N162   N     0.86164   0.06169   0.42887   0.00000  Uiso   1.00
O163   O     0.87956   0.05761   0.38595   0.00000  Uiso   1.00
O164   O     0.84895   0.02849   0.45099   0.00000  Uiso   1.00
N165   N     0.76765   0.25238   0.42206   0.00000  Uiso   1.00
O166   O     0.73058   0.23624   0.41598   0.00000  Uiso   1.00
O167   O     0.78369   0.28942   0.40931   0.00000  Uiso   1.00
Br168  Br    0.85644   0.25813   0.04110   0.00000  Uiso   1.00
Br169  Br    0.77948   0.29691   0.01255   0.00000  Uiso   1.00
Br170  Br    0.78909   0.08971   0.39717   0.00000  Uiso   1.00
Br171  Br    0.69815   0.20133   0.18483   0.00000  Uiso   1.00
Zn172  Zn    0.19338   0.47327   0.28734   0.00000  Uiso   1.00
Zn173  Zn    0.13379   0.45791   0.21876   0.00000  Uiso   1.00
Zn174  Zn    0.21056   0.53109   0.20657   0.00000  Uiso   1.00
Zn175  Zn    0.12893   0.53773   0.28733   0.00000  Uiso   1.00
O176   O     0.16667   0.50000   0.25000   0.00000  Uiso   1.00
O177   O     0.07071   0.52211   0.28213   0.00000  Uiso   1.00
O178   O     0.25491   0.48559   0.27014   0.00000  Uiso   1.00
O179   O     0.13760   0.40277   0.23413   0.00000  Uiso   1.00
O180   O     0.20345   0.58953   0.21361   0.00000  Uiso   1.00
O181   O     0.15451   0.45970   0.15459   0.00000  Uiso   1.00
O182   O     0.12940   0.53724   0.34968   0.00000  Uiso   1.00
O183   O     0.20824   0.51092   0.14606   0.00000  Uiso   1.00
O184   O     0.17451   0.49213   0.34968   0.00000  Uiso   1.00
O185   O     0.17930   0.41352   0.28214   0.00000  Uiso   1.00
O186   O     0.14632   0.59418   0.27013   0.00000  Uiso   1.00
O187   O     0.07412   0.46625   0.23413   0.00000  Uiso   1.00
O188   O     0.26693   0.52605   0.21361   0.00000  Uiso   1.00
C189   C     0.05302   0.49328   0.25981   0.00000  Uiso   1.00
C190   C     0.28073   0.50696   0.24014   0.00000  Uiso   1.00
C191   C     0.15573   0.38929   0.26060   0.00000  Uiso   1.00
C192   C     0.17679   0.61131   0.24029   0.00000  Uiso   1.00
C193   C     0.18542   0.48130   0.12933   0.00000  Uiso   1.00
C194   C     0.14737   0.51710   0.37138   0.00000  Uiso   1.00
C195   C     0.21408   0.42848   0.01293   0.00000  Uiso   1.00
H196   H     0.22884   0.40124   0.49643   0.00000  Uiso   1.00
C197   C     0.19299   0.47316   0.08086   0.00000  Uiso   1.00
C198   C     0.12397   0.56264   0.44255   0.00000  Uiso   1.00
C199   C     0.13319   0.57882   0.48332   0.00000  Uiso   1.00
C200   C     0.15742   0.55778   0.00265   0.00000  Uiso   1.00
C201   C     0.16329   0.51547   0.48756   0.00000  Uiso   1.00
C202   C     0.15360   0.49876   0.44640   0.00000  Uiso   1.00
C203   C     0.17847   0.48914   0.01189   0.00000  Uiso   1.00
C204   C     0.19330   0.45112   0.49068   0.00000  Uiso   1.00
C205   C     0.18371   0.43500   0.44978   0.00000  Uiso   1.00
C206   C     0.15885   0.45644   0.43159   0.00000  Uiso   1.00
C207   C     0.17533   0.49745   0.05810   0.00000  Uiso   1.00
C208   C     0.21411   0.43953   0.05786   0.00000  Uiso   1.00
C209   C     0.13928   0.52495   0.42115   0.00000  Uiso   1.00
H210   H     0.15631   0.52089   0.07767   0.00000  Uiso   1.00
C211   C     0.32638   0.50808   0.23554   0.00000  Uiso   1.00
C212   C     0.00799   0.49081   0.26521   0.00000  Uiso   1.00
C213   C     0.18167   0.65609   0.23710   0.00000  Uiso   1.00
C214   C     0.15210   0.34510   0.26345   0.00000  Uiso   1.00
H215   H     0.12402   0.66403   0.28665   0.00000  Uiso   1.00
Br216  Br    0.24021   0.40601   0.08759   0.00000  Uiso   1.00
Br217  Br    0.30833   0.46629   0.31978   0.00000  Uiso   1.00
Br218  Br    0.23097   0.34812   0.19493   0.00000  Uiso   1.00
N219   N     0.19497   0.39502   0.42887   0.00000  Uiso   1.00
O220   O     0.21289   0.39094   0.38595   0.00000  Uiso   1.00
O221   O     0.18228   0.36182   0.45099   0.00000  Uiso   1.00
N222   N     0.10098   0.58572   0.42206   0.00000  Uiso   1.00
O223   O     0.06392   0.56957   0.41598   0.00000  Uiso   1.00
O224   O     0.11702   0.62276   0.40931   0.00000  Uiso   1.00
Br225  Br    0.18977   0.59146   0.04110   0.00000  Uiso   1.00
Br226  Br    0.11281   0.63025   0.01255   0.00000  Uiso   1.00
Br227  Br    0.12242   0.42304   0.39717   0.00000  Uiso   1.00
Br228  Br    0.03148   0.53467   0.18483   0.00000  Uiso   1.00
Zn229  Zn    0.52672   0.47327   0.28734   0.00000  Uiso   1.00
Zn230  Zn    0.46713   0.45791   0.21876   0.00000  Uiso   1.00
Zn231  Zn    0.54389   0.53109   0.20657   0.00000  Uiso   1.00
Zn232  Zn    0.46226   0.53773   0.28733   0.00000  Uiso   1.00
O233   O     0.50000   0.50000   0.25000   0.00000  Uiso   1.00
O234   O     0.40405   0.52211   0.28213   0.00000  Uiso   1.00
O235   O     0.58824   0.48559   0.27014   0.00000  Uiso   1.00
O236   O     0.47093   0.40277   0.23413   0.00000  Uiso   1.00
O237   O     0.53678   0.58953   0.21361   0.00000  Uiso   1.00
O238   O     0.48784   0.45970   0.15459   0.00000  Uiso   1.00
O239   O     0.46274   0.53724   0.34968   0.00000  Uiso   1.00
O240   O     0.54157   0.51092   0.14606   0.00000  Uiso   1.00
O241   O     0.50785   0.49213   0.34968   0.00000  Uiso   1.00
O242   O     0.51264   0.41352   0.28214   0.00000  Uiso   1.00
O243   O     0.47965   0.59418   0.27013   0.00000  Uiso   1.00
O244   O     0.40745   0.46625   0.23413   0.00000  Uiso   1.00
O245   O     0.60026   0.52605   0.21361   0.00000  Uiso   1.00
C246   C     0.38636   0.49328   0.25981   0.00000  Uiso   1.00
C247   C     0.61406   0.50696   0.24014   0.00000  Uiso   1.00
C248   C     0.48906   0.38929   0.26060   0.00000  Uiso   1.00
C249   C     0.51012   0.61131   0.24029   0.00000  Uiso   1.00
C250   C     0.51875   0.48130   0.12933   0.00000  Uiso   1.00
C251   C     0.48070   0.51710   0.37138   0.00000  Uiso   1.00
C252   C     0.54742   0.42848   0.01293   0.00000  Uiso   1.00
H253   H     0.56217   0.40124   0.49643   0.00000  Uiso   1.00
C254   C     0.52632   0.47316   0.08086   0.00000  Uiso   1.00
C255   C     0.45730   0.56264   0.44255   0.00000  Uiso   1.00
C256   C     0.46653   0.57882   0.48332   0.00000  Uiso   1.00
C257   C     0.49076   0.55778   0.00265   0.00000  Uiso   1.00
C258   C     0.49662   0.51547   0.48756   0.00000  Uiso   1.00
C259   C     0.48694   0.49876   0.44640   0.00000  Uiso   1.00
C260   C     0.51180   0.48914   0.01189   0.00000  Uiso   1.00
C261   C     0.52664   0.45112   0.49068   0.00000  Uiso   1.00
C262   C     0.51704   0.43500   0.44978   0.00000  Uiso   1.00
C263   C     0.49218   0.45644   0.43159   0.00000  Uiso   1.00
C264   C     0.50866   0.49745   0.05810   0.00000  Uiso   1.00
C265   C     0.54744   0.43953   0.05786   0.00000  Uiso   1.00
C266   C     0.47261   0.52495   0.42115   0.00000  Uiso   1.00
H267   H     0.48964   0.52089   0.07767   0.00000  Uiso   1.00
C268   C     0.65971   0.50808   0.23554   0.00000  Uiso   1.00
C269   C     0.34133   0.49081   0.26521   0.00000  Uiso   1.00
C270   C     0.51501   0.65609   0.23710   0.00000  Uiso   1.00
C271   C     0.48544   0.34510   0.26345   0.00000  Uiso   1.00
H272   H     0.45735   0.66403   0.28665   0.00000  Uiso   1.00
Br273  Br    0.57354   0.40601   0.08759   0.00000  Uiso   1.00
Br274  Br    0.64167   0.46629   0.31978   0.00000  Uiso   1.00
Br275  Br    0.56431   0.34812   0.19493   0.00000  Uiso   1.00
N276   N     0.52830   0.39502   0.42887   0.00000  Uiso   1.00
O277   O     0.54622   0.39094   0.38595   0.00000  Uiso   1.00
O278   O     0.51562   0.36182   0.45099   0.00000  Uiso   1.00
N279   N     0.43432   0.58572   0.42206   0.00000  Uiso   1.00
O280   O     0.39725   0.56957   0.41598   0.00000  Uiso   1.00
O281   O     0.45036   0.62276   0.40931   0.00000  Uiso   1.00
Br282  Br    0.52310   0.59146   0.04110   0.00000  Uiso   1.00
Br283  Br    0.44614   0.63025   0.01255   0.00000  Uiso   1.00
Br284  Br    0.45575   0.42304   0.39717   0.00000  Uiso   1.00
Br285  Br    0.36481   0.53467   0.18483   0.00000  Uiso   1.00
Zn286  Zn    0.86005   0.47327   0.28734   0.00000  Uiso   1.00
Zn287  Zn    0.80046   0.45791   0.21876   0.00000  Uiso   1.00
Zn288  Zn    0.87723   0.53109   0.20657   0.00000  Uiso   1.00
Zn289  Zn    0.79560   0.53773   0.28733   0.00000  Uiso   1.00
O290   O     0.83333   0.50000   0.25000   0.00000  Uiso   1.00
O291   O     0.73738   0.52211   0.28213   0.00000  Uiso   1.00
O292   O     0.92158   0.48559   0.27014   0.00000  Uiso   1.00
O293   O     0.80426   0.40277   0.23413   0.00000  Uiso   1.00
O294   O     0.87012   0.58953   0.21361   0.00000  Uiso   1.00
O295   O     0.82118   0.45970   0.15459   0.00000  Uiso   1.00
O296   O     0.79607   0.53724   0.34968   0.00000  Uiso   1.00
O297   O     0.87491   0.51092   0.14606   0.00000  Uiso   1.00
O298   O     0.84118   0.49213   0.34968   0.00000  Uiso   1.00
O299   O     0.84597   0.41352   0.28214   0.00000  Uiso   1.00
O300   O     0.81298   0.59418   0.27013   0.00000  Uiso   1.00
O301   O     0.74078   0.46625   0.23413   0.00000  Uiso   1.00
O302   O     0.93360   0.52605   0.21361   0.00000  Uiso   1.00
C303   C     0.71969   0.49328   0.25981   0.00000  Uiso   1.00
C304   C     0.94739   0.50696   0.24014   0.00000  Uiso   1.00
C305   C     0.82239   0.38929   0.26060   0.00000  Uiso   1.00
C306   C     0.84345   0.61131   0.24029   0.00000  Uiso   1.00
C307   C     0.85209   0.48130   0.12933   0.00000  Uiso   1.00
C308   C     0.81403   0.51710   0.37138   0.00000  Uiso   1.00
C309   C     0.88075   0.42848   0.01293   0.00000  Uiso   1.00
H310   H     0.89551   0.40124   0.49643   0.00000  Uiso   1.00
C311   C     0.85966   0.47316   0.08086   0.00000  Uiso   1.00
C312   C     0.79064   0.56264   0.44255   0.00000  Uiso   1.00
C313   C     0.79986   0.57882   0.48332   0.00000  Uiso   1.00
C314   C     0.82409   0.55778   0.00265   0.00000  Uiso   1.00
C315   C     0.82996   0.51547   0.48756   0.00000  Uiso   1.00
C316   C     0.82027   0.49876   0.44640   0.00000  Uiso   1.00
C317   C     0.84513   0.48914   0.01189   0.00000  Uiso   1.00
C318   C     0.85997   0.45112   0.49068   0.00000  Uiso   1.00
C319   C     0.85037   0.43500   0.44978   0.00000  Uiso   1.00
C320   C     0.82551   0.45644   0.43159   0.00000  Uiso   1.00
C321   C     0.84199   0.49745   0.05810   0.00000  Uiso   1.00
C322   C     0.88078   0.43953   0.05786   0.00000  Uiso   1.00
C323   C     0.80594   0.52495   0.42115   0.00000  Uiso   1.00
H324   H     0.82297   0.52089   0.07767   0.00000  Uiso   1.00
C325   C     0.99304   0.50808   0.23554   0.00000  Uiso   1.00
C326   C     0.67466   0.49081   0.26521   0.00000  Uiso   1.00
C327   C     0.84834   0.65609   0.23710   0.00000  Uiso   1.00
C328   C     0.81877   0.34510   0.26345   0.00000  Uiso   1.00
H329   H     0.79069   0.66403   0.28665   0.00000  Uiso   1.00
Br330  Br    0.90688   0.40601   0.08759   0.00000  Uiso   1.00
Br331  Br    0.97500   0.46629   0.31978   0.00000  Uiso   1.00
Br332  Br    0.89764   0.34812   0.19493   0.00000  Uiso   1.00
N333   N     0.86164   0.39502   0.42887   0.00000  Uiso   1.00
O334   O     0.87956   0.39094   0.38595   0.00000  Uiso   1.00
O335   O     0.84895   0.36182   0.45099   0.00000  Uiso   1.00
N336   N     0.76765   0.58572   0.42206   0.00000  Uiso   1.00
O337   O     0.73058   0.56957   0.41598   0.00000  Uiso   1.00
O338   O     0.78369   0.62276   0.40931   0.00000  Uiso   1.00
Br339  Br    0.85644   0.59146   0.04110   0.00000  Uiso   1.00
Br340  Br    0.77948   0.63025   0.01255   0.00000  Uiso   1.00
Br341  Br    0.78909   0.42304   0.39717   0.00000  Uiso   1.00
Br342  Br    0.69815   0.53467   0.18483   0.00000  Uiso   1.00
Zn343  Zn    0.19338   0.80661   0.28734   0.00000  Uiso   1.00
Zn344  Zn    0.13379   0.79124   0.21876   0.00000  Uiso   1.00
Zn345  Zn    0.21056   0.86442   0.20657   0.00000  Uiso   1.00
Zn346  Zn    0.12893   0.87106   0.28733   0.00000  Uiso   1.00
O347   O     0.16667   0.83333   0.25000   0.00000  Uiso   1.00
O348   O     0.07071   0.85544   0.28213   0.00000  Uiso   1.00
O349   O     0.25491   0.81892   0.27014   0.00000  Uiso   1.00
O350   O     0.13760   0.73610   0.23413   0.00000  Uiso   1.00
O351   O     0.20345   0.92286   0.21361   0.00000  Uiso   1.00
O352   O     0.15451   0.79304   0.15459   0.00000  Uiso   1.00
O353   O     0.12940   0.87058   0.34968   0.00000  Uiso   1.00
O354   O     0.20824   0.84425   0.14606   0.00000  Uiso   1.00
O355   O     0.17451   0.82546   0.34968   0.00000  Uiso   1.00
O356   O     0.17930   0.74686   0.28214   0.00000  Uiso   1.00
O357   O     0.14632   0.92751   0.27013   0.00000  Uiso   1.00
O358   O     0.07412   0.79958   0.23413   0.00000  Uiso   1.00
O359   O     0.26693   0.85939   0.21361   0.00000  Uiso   1.00
C360   C     0.05302   0.82661   0.25981   0.00000  Uiso   1.00
C361   C     0.28073   0.84029   0.24014   0.00000  Uiso   1.00
C362   C     0.15573   0.72262   0.26060   0.00000  Uiso   1.00
C363   C     0.17679   0.94464   0.24029   0.00000  Uiso   1.00
C364   C     0.18542   0.81463   0.12933   0.00000  Uiso   1.00
C365   C     0.14737   0.85043   0.37138   0.00000  Uiso   1.00
C366   C     0.21408   0.76182   0.01293   0.00000  Uiso   1.00
H367   H     0.22884   0.73457   0.49643   0.00000  Uiso   1.00
C368   C     0.19299   0.80649   0.08086   0.00000  Uiso   1.00
C369   C     0.12397   0.89597   0.44255   0.00000  Uiso   1.00
C370   C     0.13319   0.91216   0.48332   0.00000  Uiso   1.00
C371   C     0.15742   0.89112   0.00265   0.00000  Uiso   1.00
C372   C     0.16329   0.84880   0.48756   0.00000  Uiso   1.00
C373   C     0.15360   0.83209   0.44640   0.00000  Uiso   1.00
C374   C     0.17847   0.82247   0.01189   0.00000  Uiso   1.00
C375   C     0.19330   0.78445   0.49068   0.00000  Uiso   1.00
C376   C     0.18371   0.76833   0.44978   0.00000  Uiso   1.00
C377   C     0.15885   0.78977   0.43159   0.00000  Uiso   1.00
C378   C     0.17533   0.83079   0.05810   0.00000  Uiso   1.00
C379   C     0.21411   0.77286   0.05786   0.00000  Uiso   1.00
C380   C     0.13928   0.85828   0.42115   0.00000  Uiso   1.00
H381   H     0.15631   0.85423   0.07767   0.00000  Uiso   1.00
C382   C     0.32638   0.84142   0.23554   0.00000  Uiso   1.00
C383   C     0.00799   0.82414   0.26521   0.00000  Uiso   1.00
C384   C     0.18167   0.98942   0.23710   0.00000  Uiso   1.00
C385   C     0.15210   0.67844   0.26345   0.00000  Uiso   1.00
H386   H     0.12402   0.99737   0.28665   0.00000  Uiso   1.00
Br387  Br    0.24021   0.73935   0.08759   0.00000  Uiso   1.00
Br388  Br    0.30833   0.79962   0.31978   0.00000  Uiso   1.00
Br389  Br    0.23097   0.68146   0.19493   0.00000  Uiso   1.00
N390   N     0.19497   0.72835   0.42887   0.00000  Uiso   1.00
O391   O     0.21289   0.72427   0.38595   0.00000  Uiso   1.00
O392   O     0.18228   0.69515   0.45099   0.00000  Uiso   1.00
N393   N     0.10098   0.91905   0.42206   0.00000  Uiso   1.00
O394   O     0.06392   0.90290   0.41598   0.00000  Uiso   1.00
O395   O     0.11702   0.95609   0.40931   0.00000  Uiso   1.00
Br396  Br    0.18977   0.92479   0.04110   0.00000  Uiso   1.00
Br397  Br    0.11281   0.96358   0.01255   0.00000  Uiso   1.00
Br398  Br    0.12242   0.75637   0.39717   0.00000  Uiso   1.00
Br399  Br    0.03148   0.86800   0.18483   0.00000  Uiso   1.00
Zn400  Zn    0.52672   0.80661   0.28734   0.00000  Uiso   1.00
Zn401  Zn    0.46713   0.79124   0.21876   0.00000  Uiso   1.00
Zn402  Zn    0.54389   0.86442   0.20657   0.00000  Uiso   1.00
Zn403  Zn    0.46226   0.87106   0.28733   0.00000  Uiso   1.00
O404   O     0.50000   0.83333   0.25000   0.00000  Uiso   1.00
O405   O     0.40405   0.85544   0.28213   0.00000  Uiso   1.00
O406   O     0.58824   0.81892   0.27014   0.00000  Uiso   1.00
O407   O     0.47093   0.73610   0.23413   0.00000  Uiso   1.00
O408   O     0.53678   0.92286   0.21361   0.00000  Uiso   1.00
O409   O     0.48784   0.79304   0.15459   0.00000  Uiso   1.00
O410   O     0.46274   0.87058   0.34968   0.00000  Uiso   1.00
O411   O     0.54157   0.84425   0.14606   0.00000  Uiso   1.00
O412   O     0.50785   0.82546   0.34968   0.00000  Uiso   1.00
O413   O     0.51264   0.74686   0.28214   0.00000  Uiso   1.00
O414   O     0.47965   0.92751   0.27013   0.00000  Uiso   1.00
O415   O     0.40745   0.79958   0.23413   0.00000  Uiso   1.00
O416   O     0.60026   0.85939   0.21361   0.00000  Uiso   1.00
C417   C     0.38636   0.82661   0.25981   0.00000  Uiso   1.00
C418   C     0.61406   0.84029   0.24014   0.00000  Uiso   1.00
C419   C     0.48906   0.72262   0.26060   0.00000  Uiso   1.00
C420   C     0.51012   0.94464   0.24029   0.00000  Uiso   1.00
C421   C     0.51875   0.81463   0.12933   0.00000  Uiso   1.00
C422   C     0.48070   0.85043   0.37138   0.00000  Uiso   1.00
C423   C     0.54742   0.76182   0.01293   0.00000  Uiso   1.00
H424   H     0.56217   0.73457   0.49643   0.00000  Uiso   1.00
C425   C     0.52632   0.80649   0.08086   0.00000  Uiso   1.00
C426   C     0.45730   0.89597   0.44255   0.00000  Uiso   1.00
C427   C     0.46653   0.91216   0.48332   0.00000  Uiso   1.00
C428   C     0.49076   0.89112   0.00265   0.00000  Uiso   1.00
C429   C     0.49662   0.84880   0.48756   0.00000  Uiso   1.00
C430   C     0.48694   0.83209   0.44640   0.00000  Uiso   1.00
C431   C     0.51180   0.82247   0.01189   0.00000  Uiso   1.00
C432   C     0.52664   0.78445   0.49068   0.00000  Uiso   1.00
C433   C     0.51704   0.76833   0.44978   0.00000  Uiso   1.00
C434   C     0.49218   0.78977   0.43159   0.00000  Uiso   1.00
C435   C     0.50866   0.83079   0.05810   0.00000  Uiso   1.00
C436   C     0.54744   0.77286   0.05786   0.00000  Uiso   1.00
C437   C     0.47261   0.85828   0.42115   0.00000  Uiso   1.00
H438   H     0.48964   0.85423   0.07767   0.00000  Uiso   1.00
C439   C     0.65971   0.84142   0.23554   0.00000  Uiso   1.00
C440   C     0.34133   0.82414   0.26521   0.00000  Uiso   1.00
C441   C     0.51501   0.98942   0.23710   0.00000  Uiso   1.00
C442   C     0.48544   0.67844   0.26345   0.00000  Uiso   1.00
H443   H     0.45735   0.99737   0.28665   0.00000  Uiso   1.00
Br444  Br    0.57354   0.73935   0.08759   0.00000  Uiso   1.00
Br445  Br    0.64167   0.79962   0.31978   0.00000  Uiso   1.00
Br446  Br    0.56431   0.68146   0.19493   0.00000  Uiso   1.00
N447   N     0.52830   0.72835   0.42887   0.00000  Uiso   1.00
O448   O     0.54622   0.72427   0.38595   0.00000  Uiso   1.00
O449   O     0.51562   0.69515   0.45099   0.00000  Uiso   1.00
N450   N     0.43432   0.91905   0.42206   0.00000  Uiso   1.00
O451   O     0.39725   0.90290   0.41598   0.00000  Uiso   1.00
O452   O     0.45036   0.95609   0.40931   0.00000  Uiso   1.00
Br453  Br    0.52310   0.92479   0.04110   0.00000  Uiso   1.00
Br454  Br    0.44614   0.96358   0.01255   0.00000  Uiso   1.00
Br455  Br    0.45575   0.75637   0.39717   0.00000  Uiso   1.00
Br456  Br    0.36481   0.86800   0.18483   0.00000  Uiso   1.00
Zn457  Zn    0.86005   0.80661   0.28734   0.00000  Uiso   1.00
Zn458  Zn    0.80046   0.79124   0.21876   0.00000  Uiso   1.00
Zn459  Zn    0.87723   0.86442   0.20657   0.00000  Uiso   1.00
Zn460  Zn    0.79560   0.87106   0.28733   0.00000  Uiso   1.00
O461   O     0.83333   0.83333   0.25000   0.00000  Uiso   1.00
O462   O     0.73738   0.85544   0.28213   0.00000  Uiso   1.00
O463   O     0.92158   0.81892   0.27014   0.00000  Uiso   1.00
O464   O     0.80426   0.73610   0.23413   0.00000  Uiso   1.00
O465   O     0.87012   0.92286   0.21361   0.00000  Uiso   1.00
O466   O     0.82118   0.79304   0.15459   0.00000  Uiso   1.00
O467   O     0.79607   0.87058   0.34968   0.00000  Uiso   1.00
O468   O     0.87491   0.84425   0.14606   0.00000  Uiso   1.00
O469   O     0.84118   0.82546   0.34968   0.00000  Uiso   1.00
O470   O     0.84597   0.74686   0.28214   0.00000  Uiso   1.00
O471   O     0.81298   0.92751   0.27013   0.00000  Uiso   1.00
O472   O     0.74078   0.79958   0.23413   0.00000  Uiso   1.00
O473   O     0.93360   0.85939   0.21361   0.00000  Uiso   1.00
C474   C     0.71969   0.82661   0.25981   0.00000  Uiso   1.00
C475   C     0.94739   0.84029   0.24014   0.00000  Uiso   1.00
C476   C     0.82239   0.72262   0.26060   0.00000  Uiso   1.00
C477   C     0.84345   0.94464   0.24029   0.00000  Uiso   1.00
C478   C     0.85209   0.81463   0.12933   0.00000  Uiso   1.00
C479   C     0.81403   0.85043   0.37138   0.00000  Uiso   1.00
C480   C     0.88075   0.76182   0.01293   0.00000  Uiso   1.00
H481   H     0.89551   0.73457   0.49643   0.00000  Uiso   1.00
C482   C     0.85966   0.80649   0.08086   0.00000  Uiso   1.00
C483   C     0.79064   0.89597   0.44255   0.00000  Uiso   1.00
C484   C     0.79986   0.91216   0.48332   0.00000  Uiso   1.00
C485   C     0.82409   0.89112   0.00265   0.00000  Uiso   1.00
C486   C     0.82996   0.84880   0.48756   0.00000  Uiso   1.00
C487   C     0.82027   0.83209   0.44640   0.00000  Uiso   1.00
C488   C     0.84513   0.82247   0.01189   0.00000  Uiso   1.00
C489   C     0.85997   0.78445   0.49068   0.00000  Uiso   1.00
C490   C     0.85037   0.76833   0.44978   0.00000  Uiso   1.00
C491   C     0.82551   0.78977   0.43159   0.00000  Uiso   1.00
C492   C     0.84199   0.83079   0.05810   0.00000  Uiso   1.00
C493   C     0.88078   0.77286   0.05786   0.00000  Uiso   1.00
C494   C     0.80594   0.85828   0.42115   0.00000  Uiso   1.00
H495   H     0.82297   0.85423   0.07767   0.00000  Uiso   1.00
C496   C     0.99304   0.84142   0.23554   0.00000  Uiso   1.00
C497   C     0.67466   0.82414   0.26521   0.00000  Uiso   1.00
C498   C     0.84834   0.98942   0.23710   0.00000  Uiso   1.00
C499   C     0.81877   0.67844   0.26345   0.00000  Uiso   1.00
H500   H     0.79069   0.99737   0.28665   0.00000  Uiso   1.00
Br501  Br    0.90688   0.73935   0.08759   0.00000  Uiso   1.00
Br502  Br    0.97500   0.79962   0.31978   0.00000  Uiso   1.00
Br503  Br    0.89764   0.68146   0.19493   0.00000  Uiso   1.00
N504   N     0.86164   0.72835   0.42887   0.00000  Uiso   1.00
O505   O     0.87956   0.72427   0.38595   0.00000  Uiso   1.00
O506   O     0.84895   0.69515   0.45099   0.00000  Uiso   1.00
N507   N     0.76765   0.91905   0.42206   0.00000  Uiso   1.00
O508   O     0.73058   0.90290   0.41598   0.00000  Uiso   1.00
O509   O     0.78369   0.95609   0.40931   0.00000  Uiso   1.00
Br510  Br    0.85644   0.92479   0.04110   0.00000  Uiso   1.00
Br511  Br    0.77948   0.96358   0.01255   0.00000  Uiso   1.00
Br512  Br    0.78909   0.75637   0.39717   0.00000  Uiso   1.00
Br513  Br    0.69815   0.86800   0.18483   0.00000  Uiso   1.00
Zn514  Zn    0.19338   0.13994   0.78734   0.00000  Uiso   1.00
Zn515  Zn    0.13379   0.12458   0.71876   0.00000  Uiso   1.00
Zn516  Zn    0.21056   0.19775   0.70657   0.00000  Uiso   1.00
Zn517  Zn    0.12893   0.20439   0.78733   0.00000  Uiso   1.00
O518   O     0.16667   0.16667   0.75000   0.00000  Uiso   1.00
O519   O     0.07071   0.18878   0.78213   0.00000  Uiso   1.00
O520   O     0.25491   0.15226   0.77014   0.00000  Uiso   1.00
O521   O     0.13760   0.06944   0.73413   0.00000  Uiso   1.00
O522   O     0.20345   0.25620   0.71361   0.00000  Uiso   1.00
O523   O     0.15451   0.12637   0.65459   0.00000  Uiso   1.00
O524   O     0.12940   0.20391   0.84968   0.00000  Uiso   1.00
O525   O     0.20824   0.17759   0.64606   0.00000  Uiso   1.00
O526   O     0.17451   0.15880   0.84968   0.00000  Uiso   1.00
O527   O     0.17930   0.08019   0.78214   0.00000  Uiso   1.00
O528   O     0.14632   0.26085   0.77013   0.00000  Uiso   1.00
O529   O     0.07412   0.13291   0.73413   0.00000  Uiso   1.00
O530   O     0.26693   0.19272   0.71361   0.00000  Uiso   1.00
C531   C     0.05302   0.15994   0.75981   0.00000  Uiso   1.00
C532   C     0.28073   0.17363   0.74014   0.00000  Uiso   1.00
C533   C     0.15573   0.05596   0.76060   0.00000  Uiso   1.00
C534   C     0.17679   0.27797   0.74029   0.00000  Uiso   1.00
C535   C     0.18542   0.14796   0.62933   0.00000  Uiso   1.00
C536   C     0.14737   0.18377   0.87138   0.00000  Uiso   1.00
C537   C     0.21408   0.09515   0.51293   0.00000  Uiso   1.00
H538   H     0.22884   0.06791   0.99643   0.00000  Uiso   1.00
C539   C     0.19299   0.13983   0.58086   0.00000  Uiso   1.00
C540   C     0.12397   0.22930   0.94255   0.00000  Uiso   1.00
C541   C     0.13319   0.24549   0.98332   0.00000  Uiso   1.00
C542   C     0.15742   0.22445   0.50265   0.00000  Uiso   1.00
C543   C     0.16329   0.18214   0.98756   0.00000  Uiso   1.00
C544   C     0.15360   0.16543   0.94640   0.00000  Uiso   1.00
C545   C     0.17847   0.15581   0.51189   0.00000  Uiso   1.00
C546   C     0.19330   0.11778   0.99068   0.00000  Uiso   1.00
C547   C     0.18371   0.10166   0.94978   0.00000  Uiso   1.00
C548   C     0.15885   0.12311   0.93159   0.00000  Uiso   1.00
C549   C     0.17533   0.16412   0.55810   0.00000  Uiso   1.00
C550   C     0.21411   0.10619   0.55786   0.00000  Uiso   1.00
C551   C     0.13928   0.19162   0.92115   0.00000  Uiso   1.00
H552   H     0.15631   0.18756   0.57767   0.00000  Uiso   1.00
C553   C     0.32638   0.17475   0.73554   0.00000  Uiso   1.00
C554   C     0.00799   0.15748   0.76521   0.00000  Uiso   1.00
C555   C     0.18167   0.32276   0.73710   0.00000  Uiso   1.00
C556   C     0.15210   0.01177   0.76345   0.00000  Uiso   1.00
H557   H     0.12402   0.33070   0.78665   0.00000  Uiso   1.00
Br558  Br    0.24021   0.07268   0.58759   0.00000  Uiso   1.00
Br559  Br    0.30833   0.13295   0.81978   0.00000  Uiso   1.00
Br560  Br    0.23097   0.01479   0.69493   0.00000  Uiso   1.00
N561   N     0.19497   0.06169   0.92887   0.00000  Uiso   1.00
O562   O     0.21289   0.05761   0.88595   0.00000  Uiso   1.00
O563   O     0.18228   0.02849   0.95099   0.00000  Uiso   1.00
N564   N     0.10098   0.25238   0.92206   0.00000  Uiso   1.00
O565   O     0.06392   0.23624   0.91598   0.00000  Uiso   1.00
O566   O     0.11702   0.28942   0.90931   0.00000  Uiso   1.00
Br567  Br    0.18977   0.25813   0.54110   0.00000  Uiso   1.00
Br568  Br    0.11281   0.29691   0.51255   0.00000  Uiso   1.00
Br569  Br    0.12242   0.08971   0.89717   0.00000  Uiso   1.00
Br570  Br    0.03148   0.20133   0.68483   0.00000  Uiso   1.00
Zn571  Zn    0.52672   0.13994   0.78734   0.00000  Uiso   1.00
Zn572  Zn    0.46713   0.12458   0.71876   0.00000  Uiso   1.00
Zn573  Zn    0.54389   0.19775   0.70657   0.00000  Uiso   1.00
Zn574  Zn    0.46226   0.20439   0.78733   0.00000  Uiso   1.00
O575   O     0.50000   0.16667   0.75000   0.00000  Uiso   1.00
O576   O     0.40405   0.18878   0.78213   0.00000  Uiso   1.00
O577   O     0.58824   0.15226   0.77014   0.00000  Uiso   1.00
O578   O     0.47093   0.06944   0.73413   0.00000  Uiso   1.00
O579   O     0.53678   0.25620   0.71361   0.00000  Uiso   1.00
O580   O     0.48784   0.12637   0.65459   0.00000  Uiso   1.00
O581   O     0.46274   0.20391   0.84968   0.00000  Uiso   1.00
O582   O     0.54157   0.17759   0.64606   0.00000  Uiso   1.00
O583   O     0.50785   0.15880   0.84968   0.00000  Uiso   1.00
O584   O     0.51264   0.08019   0.78214   0.00000  Uiso   1.00
O585   O     0.47965   0.26085   0.77013   0.00000  Uiso   1.00
O586   O     0.40745   0.13291   0.73413   0.00000  Uiso   1.00
O587   O     0.60026   0.19272   0.71361   0.00000  Uiso   1.00
C588   C     0.38636   0.15994   0.75981   0.00000  Uiso   1.00
C589   C     0.61406   0.17363   0.74014   0.00000  Uiso   1.00
C590   C     0.48906   0.05596   0.76060   0.00000  Uiso   1.00
C591   C     0.51012   0.27797   0.74029   0.00000  Uiso   1.00
C592   C     0.51875   0.14796   0.62933   0.00000  Uiso   1.00
C593   C     0.48070   0.18377   0.87138   0.00000  Uiso   1.00
C594   C     0.54742   0.09515   0.51293   0.00000  Uiso   1.00
H595   H     0.56217   0.06791   0.99643   0.00000  Uiso   1.00
C596   C     0.52632   0.13983   0.58086   0.00000  Uiso   1.00
C597   C     0.45730   0.22930   0.94255   0.00000  Uiso   1.00
C598   C     0.46653   0.24549   0.98332   0.00000  Uiso   1.00
C599   C     0.49076   0.22445   0.50265   0.00000  Uiso   1.00
C600   C     0.49662   0.18214   0.98756   0.00000  Uiso   1.00
C601   C     0.48694   0.16543   0.94640   0.00000  Uiso   1.00
C602   C     0.51180   0.15581   0.51189   0.00000  Uiso   1.00
C603   C     0.52664   0.11778   0.99068   0.00000  Uiso   1.00
C604   C     0.51704   0.10166   0.94978   0.00000  Uiso   1.00
C605   C     0.49218   0.12311   0.93159   0.00000  Uiso   1.00
C606   C     0.50866   0.16412   0.55810   0.00000  Uiso   1.00
C607   C     0.54744   0.10619   0.55786   0.00000  Uiso   1.00
C608   C     0.47261   0.19162   0.92115   0.00000  Uiso   1.00
H609   H     0.48964   0.18756   0.57767   0.00000  Uiso   1.00
C610   C     0.65971   0.17475   0.73554   0.00000  Uiso   1.00
C611   C     0.34133   0.15748   0.76521   0.00000  Uiso   1.00
C612   C     0.51501   0.32276   0.73710   0.00000  Uiso   1.00
C613   C     0.48544   0.01177   0.76345   0.00000  Uiso   1.00
H614   H     0.45735   0.33070   0.78665   0.00000  Uiso   1.00
Br615  Br    0.57354   0.07268   0.58759   0.00000  Uiso   1.00
Br616  Br    0.64167   0.13295   0.81978   0.00000  Uiso   1.00
Br617  Br    0.56431   0.01479   0.69493   0.00000  Uiso   1.00
N618   N     0.52830   0.06169   0.92887   0.00000  Uiso   1.00
O619   O     0.54622   0.05761   0.88595   0.00000  Uiso   1.00
O620   O     0.51562   0.02849   0.95099   0.00000  Uiso   1.00
N621   N     0.43432   0.25238   0.92206   0.00000  Uiso   1.00
O622   O     0.39725   0.23624   0.91598   0.00000  Uiso   1.00
O623   O     0.45036   0.28942   0.90931   0.00000  Uiso   1.00
Br624  Br    0.52310   0.25813   0.54110   0.00000  Uiso   1.00
Br625  Br    0.44614   0.29691   0.51255   0.00000  Uiso   1.00
Br626  Br    0.45575   0.08971   0.89717   0.00000  Uiso   1.00
Br627  Br    0.36481   0.20133   0.68483   0.00000  Uiso   1.00
Zn628  Zn    0.86005   0.13994   0.78734   0.00000  Uiso   1.00
Zn629  Zn    0.80046   0.12458   0.71876   0.00000  Uiso   1.00
Zn630  Zn    0.87723   0.19775   0.70657   0.00000  Uiso   1.00
Zn631  Zn    0.79560   0.20439   0.78733   0.00000  Uiso   1.00
O632   O     0.83333   0.16667   0.75000   0.00000  Uiso   1.00
O633   O     0.73738   0.18878   0.78213   0.00000  Uiso   1.00
O634   O     0.92158   0.15226   0.77014   0.00000  Uiso   1.00
O635   O     0.80426   0.06944   0.73413   0.00000  Uiso   1.00
O636   O     0.87012   0.25620   0.71361   0.00000  Uiso   1.00
O637   O     0.82118   0.12637   0.65459   0.00000  Uiso   1.00
O638   O     0.79607   0.20391   0.84968   0.00000  Uiso   1.00
O639   O     0.87491   0.17759   0.64606   0.00000  Uiso   1.00
O640   O     0.84118   0.15880   0.84968   0.00000  Uiso   1.00
O641   O     0.84597   0.08019   0.78214   0.00000  Uiso   1.00
O642   O     0.81298   0.26085   0.77013   0.00000  Uiso   1.00
O643   O     0.74078   0.13291   0.73413   0.00000  Uiso   1.00
O644   O     0.93360   0.19272   0.71361   0.00000  Uiso   1.00
C645   C     0.71969   0.15994   0.75981   0.00000  Uiso   1.00
C646   C     0.94739   0.17363   0.74014   0.00000  Uiso   1.00
C647   C     0.82239   0.05596   0.76060   0.00000  Uiso   1.00
C648   C     0.84345   0.27797   0.74029   0.00000  Uiso   1.00
C649   C     0.85209   0.14796   0.62933   0.00000  Uiso   1.00
C650   C     0.81403   0.18377   0.87138   0.00000  Uiso   1.00
C651   C     0.88075   0.09515   0.51293   0.00000  Uiso   1.00
H652   H     0.89551   0.06791   0.99643   0.00000  Uiso   1.00
C653   C     0.85966   0.13983   0.58086   0.00000  Uiso   1.00
C654   C     0.79064   0.22930   0.94255   0.00000  Uiso   1.00
C655   C     0.79986   0.24549   0.98332   0.00000  Uiso   1.00
C656   C     0.82409   0.22445   0.50265   0.00000  Uiso   1.00
C657   C     0.82996   0.18214   0.98756   0.00000  Uiso   1.00
C658   C     0.82027   0.16543   0.94640   0.00000  Uiso   1.00
C659   C     0.84513   0.15581   0.51189   0.00000  Uiso   1.00
C660   C     0.85997   0.11778   0.99068   0.00000  Uiso   1.00
C661   C     0.85037   0.10166   0.94978   0.00000  Uiso   1.00
C662   C     0.82551   0.12311   0.93159   0.00000  Uiso   1.00
C663   C     0.84199   0.16412   0.55810   0.00000  Uiso   1.00
C664   C     0.88078   0.10619   0.55786   0.00000  Uiso   1.00
C665   C     0.80594   0.19162   0.92115   0.00000  Uiso   1.00
H666   H     0.82297   0.18756   0.57767   0.00000  Uiso   1.00
C667   C     0.99304   0.17475   0.73554   0.00000  Uiso   1.00
C668   C     0.67466   0.15748   0.76521   0.00000  Uiso   1.00
C669   C     0.84834   0.32276   0.73710   0.00000  Uiso   1.00
C670   C     0.81877   0.01177   0.76345   0.00000  Uiso   1.00
H671   H     0.79069   0.33070   0.78665   0.00000  Uiso   1.00
Br672  Br    0.90688   0.07268   0.58759   0.00000  Uiso   1.00
Br673  Br    0.97500   0.13295   0.81978   0.00000  Uiso   1.00
Br674  Br    0.89764   0.01479   0.69493   0.00000  Uiso   1.00
N675   N     0.86164   0.06169   0.92887   0.00000  Uiso   1.00
O676   O     0.87956   0.05761   0.88595   0.00000  Uiso   1.00
O677   O     0.84895   0.02849   0.95099   0.00000  Uiso   1.00
N678   N     0.76765   0.25238   0.92206   0.00000  Uiso   1.00
O679   O     0.73058   0.23624   0.91598   0.00000  Uiso   1.00
O680   O     0.78369   0.28942   0.90931   0.00000  Uiso   1.00
Br681  Br    0.85644   0.25813   0.54110   0.00000  Uiso   1.00
Br682  Br    0.77948   0.29691   0.51255   0.00000  Uiso   1.00
Br683  Br    0.78909   0.08971   0.89717   0.00000  Uiso   1.00
Br684  Br    0.69815   0.20133   0.68483   0.00000  Uiso   1.00
Zn685  Zn    0.19338   0.47327   0.78734   0.00000  Uiso   1.00
Zn686  Zn    0.13379   0.45791   0.71876   0.00000  Uiso   1.00
Zn687  Zn    0.21056   0.53109   0.70657   0.00000  Uiso   1.00
Zn688  Zn    0.12893   0.53773   0.78733   0.00000  Uiso   1.00
O689   O     0.16667   0.50000   0.75000   0.00000  Uiso   1.00
O690   O     0.07071   0.52211   0.78213   0.00000  Uiso   1.00
O691   O     0.25491   0.48559   0.77014   0.00000  Uiso   1.00
O692   O     0.13760   0.40277   0.73413   0.00000  Uiso   1.00
O693   O     0.20345   0.58953   0.71361   0.00000  Uiso   1.00
O694   O     0.15451   0.45970   0.65459   0.00000  Uiso   1.00
O695   O     0.12940   0.53724   0.84968   0.00000  Uiso   1.00
O696   O     0.20824   0.51092   0.64606   0.00000  Uiso   1.00
O697   O     0.17451   0.49213   0.84968   0.00000  Uiso   1.00
O698   O     0.17930   0.41352   0.78214   0.00000  Uiso   1.00
O699   O     0.14632   0.59418   0.77013   0.00000  Uiso   1.00
O700   O     0.07412   0.46625   0.73413   0.00000  Uiso   1.00
O701   O     0.26693   0.52605   0.71361   0.00000  Uiso   1.00
C702   C     0.05302   0.49328   0.75981   0.00000  Uiso   1.00
C703   C     0.28073   0.50696   0.74014   0.00000  Uiso   1.00
C704   C     0.15573   0.38929   0.76060   0.00000  Uiso   1.00
C705   C     0.17679   0.61131   0.74029   0.00000  Uiso   1.00
C706   C     0.18542   0.48130   0.62933   0.00000  Uiso   1.00
C707   C     0.14737   0.51710   0.87138   0.00000  Uiso   1.00
C708   C     0.21408   0.42848   0.51293   0.00000  Uiso   1.00
H709   H     0.22884   0.40124   0.99643   0.00000  Uiso   1.00
C710   C     0.19299   0.47316   0.58086   0.00000  Uiso   1.00
C711   C     0.12397   0.56264   0.94255   0.00000  Uiso   1.00
C712   C     0.13319   0.57882   0.98332   0.00000  Uiso   1.00
C713   C     0.15742   0.55778   0.50265   0.00000  Uiso   1.00
C714   C     0.16329   0.51547   0.98756   0.00000  Uiso   1.00
C715   C     0.15360   0.49876   0.94640   0.00000  Uiso   1.00
C716   C     0.17847   0.48914   0.51189   0.00000  Uiso   1.00
C717   C     0.19330   0.45112   0.99068   0.00000  Uiso   1.00
C718   C     0.18371   0.43500   0.94978   0.00000  Uiso   1.00
C719   C     0.15885   0.45644   0.93159   0.00000  Uiso   1.00
C720   C     0.17533   0.49745   0.55810   0.00000  Uiso   1.00
C721   C     0.21411   0.43953   0.55786   0.00000  Uiso   1.00
C722   C     0.13928   0.52495   0.92115   0.00000  Uiso   1.00
H723   H     0.15631   0.52089   0.57767   0.00000  Uiso   1.00
C724   C     0.32638   0.50808   0.73554   0.00000  Uiso   1.00
C725   C     0.00799   0.49081   0.76521   0.00000  Uiso   1.00
C726   C     0.18167   0.65609   0.73710   0.00000  Uiso   1.00
C727   C     0.15210   0.34510   0.76345   0.00000  Uiso   1.00
H728   H     0.12402   0.66403   0.78665   0.00000  Uiso   1.00
Br729  Br    0.24021   0.40601   0.58759   0.00000  Uiso   1.00
Br730  Br    0.30833   0.46629   0.81978   0.00000  Uiso   1.00
Br731  Br    0.23097   0.34812   0.69493   0.00000  Uiso   1.00
N732   N     0.19497   0.39502   0.92887   0.00000  Uiso   1.00
O733   O     0.21289   0.39094   0.88595   0.00000  Uiso   1.00
O734   O     0.18228   0.36182   0.95099   0.00000  Uiso   1.00
N735   N     0.10098   0.58572   0.92206   0.00000  Uiso   1.00
O736   O     0.06392   0.56957   0.91598   0.00000  Uiso   1.00
O737   O     0.11702   0.62276   0.90931   0.00000  Uiso   1.00
Br738  Br    0.18977   0.59146   0.54110   0.00000  Uiso   1.00
Br739  Br    0.11281   0.63025   0.51255   0.00000  Uiso   1.00
Br740  Br    0.12242   0.42304   0.89717   0.00000  Uiso   1.00
Br741  Br    0.03148   0.53467   0.68483   0.00000  Uiso   1.00
Zn742  Zn    0.52672   0.47327   0.78734   0.00000  Uiso   1.00
Zn743  Zn    0.46713   0.45791   0.71876   0.00000  Uiso   1.00
Zn744  Zn    0.54389   0.53109   0.70657   0.00000  Uiso   1.00
Zn745  Zn    0.46226   0.53773   0.78733   0.00000  Uiso   1.00
O746   O     0.50000   0.50000   0.75000   0.00000  Uiso   1.00
O747   O     0.40405   0.52211   0.78213   0.00000  Uiso   1.00
O748   O     0.58824   0.48559   0.77014   0.00000  Uiso   1.00
O749   O     0.47093   0.40277   0.73413   0.00000  Uiso   1.00
O750   O     0.53678   0.58953   0.71361   0.00000  Uiso   1.00
O751   O     0.48784   0.45970   0.65459   0.00000  Uiso   1.00
O752   O     0.46274   0.53724   0.84968   0.00000  Uiso   1.00
O753   O     0.54157   0.51092   0.64606   0.00000  Uiso   1.00
O754   O     0.50785   0.49213   0.84968   0.00000  Uiso   1.00
O755   O     0.51264   0.41352   0.78214   0.00000  Uiso   1.00
O756   O     0.47965   0.59418   0.77013   0.00000  Uiso   1.00
O757   O     0.40745   0.46625   0.73413   0.00000  Uiso   1.00
O758   O     0.60026   0.52605   0.71361   0.00000  Uiso   1.00
C759   C     0.38636   0.49328   0.75981   0.00000  Uiso   1.00
C760   C     0.61406   0.50696   0.74014   0.00000  Uiso   1.00
C761   C     0.48906   0.38929   0.76060   0.00000  Uiso   1.00
C762   C     0.51012   0.61131   0.74029   0.00000  Uiso   1.00
C763   C     0.51875   0.48130   0.62933   0.00000  Uiso   1.00
C764   C     0.48070   0.51710   0.87138   0.00000  Uiso   1.00
C765   C     0.54742   0.42848   0.51293   0.00000  Uiso   1.00
H766   H     0.56217   0.40124   0.99643   0.00000  Uiso   1.00
C767   C     0.52632   0.47316   0.58086   0.00000  Uiso   1.00
C768   C     0.45730   0.56264   0.94255   0.00000  Uiso   1.00
C769   C     0.46653   0.57882   0.98332   0.00000  Uiso   1.00
C770   C     0.49076   0.55778   0.50265   0.00000  Uiso   1.00
C771   C     0.49662   0.51547   0.98756   0.00000  Uiso   1.00
C772   C     0.48694   0.49876   0.94640   0.00000  Uiso   1.00
C773   C     0.51180   0.48914   0.51189   0.00000  Uiso   1.00
C774   C     0.52664   0.45112   0.99068   0.00000  Uiso   1.00
C775   C     0.51704   0.43500   0.94978   0.00000  Uiso   1.00
C776   C     0.49218   0.45644   0.93159   0.00000  Uiso   1.00
C777   C     0.50866   0.49745   0.55810   0.00000  Uiso   1.00
C778   C     0.54744   0.43953   0.55786   0.00000  Uiso   1.00
C779   C     0.47261   0.52495   0.92115   0.00000  Uiso   1.00
H780   H     0.48964   0.52089   0.57767   0.00000  Uiso   1.00
C781   C     0.65971   0.50808   0.73554   0.00000  Uiso   1.00
C782   C     0.34133   0.49081   0.76521   0.00000  Uiso   1.00
C783   C     0.51501   0.65609   0.73710   0.00000  Uiso   1.00
C784   C     0.48544   0.34510   0.76345   0.00000  Uiso   1.00
H785   H     0.45735   0.66403   0.78665   0.00000  Uiso   1.00
Br786  Br    0.57354   0.40601   0.58759   0.00000  Uiso   1.00
Br787  Br    0.64167   0.46629   0.81978   0.00000  Uiso   1.00
Br788  Br    0.56431   0.34812   0.69493   0.00000  Uiso   1.00
N789   N     0.52830   0.39502   0.92887   0.00000  Uiso   1.00
O790   O     0.54622   0.39094   0.88595   0.00000  Uiso   1.00
O791   O     0.51562   0.36182   0.95099   0.00000  Uiso   1.00
N792   N     0.43432   0.58572   0.92206   0.00000  Uiso   1.00
O793   O     0.39725   0.56957   0.91598   0.00000  Uiso   1.00
O794   O     0.45036   0.62276   0.90931   0.00000  Uiso   1.00
Br795  Br    0.52310   0.59146   0.54110   0.00000  Uiso   1.00
Br796  Br    0.44614   0.63025   0.51255   0.00000  Uiso   1.00
Br797  Br    0.45575   0.42304   0.89717   0.00000  Uiso   1.00
Br798  Br    0.36481   0.53467   0.68483   0.00000  Uiso   1.00
Zn799  Zn    0.86005   0.47327   0.78734   0.00000  Uiso   1.00
Zn800  Zn    0.80046   0.45791   0.71876   0.00000  Uiso   1.00
Zn801  Zn    0.87723   0.53109   0.70657   0.00000  Uiso   1.00
Zn802  Zn    0.79560   0.53773   0.78733   0.00000  Uiso   1.00
O803   O     0.83333   0.50000   0.75000   0.00000  Uiso   1.00
O804   O     0.73738   0.52211   0.78213   0.00000  Uiso   1.00
O805   O     0.92158   0.48559   0.77014   0.00000  Uiso   1.00
O806   O     0.80426   0.40277   0.73413   0.00000  Uiso   1.00
O807   O     0.87012   0.58953   0.71361   0.00000  Uiso   1.00
O808   O     0.82118   0.45970   0.65459   0.00000  Uiso   1.00
O809   O     0.79607   0.53724   0.84968   0.00000  Uiso   1.00
O810   O     0.87491   0.51092   0.64606   0.00000  Uiso   1.00
O811   O     0.84118   0.49213   0.84968   0.00000  Uiso   1.00
O812   O     0.84597   0.41352   0.78214   0.00000  Uiso   1.00
O813   O     0.81298   0.59418   0.77013   0.00000  Uiso   1.00
O814   O     0.74078   0.46625   0.73413   0.00000  Uiso   1.00
O815   O     0.93360   0.52605   0.71361   0.00000  Uiso   1.00
C816   C     0.71969   0.49328   0.75981   0.00000  Uiso   1.00
C817   C     0.94739   0.50696   0.74014   0.00000  Uiso   1.00
C818   C     0.82239   0.38929   0.76060   0.00000  Uiso   1.00
C819   C     0.84345   0.61131   0.74029   0.00000  Uiso   1.00
C820   C     0.85209   0.48130   0.62933   0.00000  Uiso   1.00
C821   C     0.81403   0.51710   0.87138   0.00000  Uiso   1.00
C822   C     0.88075   0.42848   0.51293   0.00000  Uiso   1.00
H823   H     0.89551   0.40124   0.99643   0.00000  Uiso   1.00
C824   C     0.85966   0.47316   0.58086   0.00000  Uiso   1.00
C825   C     0.79064   0.56264   0.94255   0.00000  Uiso   1.00
C826   C     0.79986   0.57882   0.98332   0.00000  Uiso   1.00
C827   C     0.82409   0.55778   0.50265   0.00000  Uiso   1.00
C828   C     0.82996   0.51547   0.98756   0.00000  Uiso   1.00
C829   C     0.82027   0.49876   0.94640   0.00000  Uiso   1.00
C830   C     0.84513   0.48914   0.51189   0.00000  Uiso   1.00
C831   C     0.85997   0.45112   0.99068   0.00000  Uiso   1.00
C832   C     0.85037   0.43500   0.94978   0.00000  Uiso   1.00
C833   C     0.82551   0.45644   0.93159   0.00000  Uiso   1.00
C834   C     0.84199   0.49745   0.55810   0.00000  Uiso   1.00
C835   C     0.88078   0.43953   0.55786   0.00000  Uiso   1.00
C836   C     0.80594   0.52495   0.92115   0.00000  Uiso   1.00
H837   H     0.82297   0.52089   0.57767   0.00000  Uiso   1.00
C838   C     0.99304   0.50808   0.73554   0.00000  Uiso   1.00
C839   C     0.67466   0.49081   0.76521   0.00000  Uiso   1.00
C840   C     0.84834   0.65609   0.73710   0.00000  Uiso   1.00
C841   C     0.81877   0.34510   0.76345   0.00000  Uiso   1.00
H842   H     0.79069   0.66403   0.78665   0.00000  Uiso   1.00
Br843  Br    0.90688   0.40601   0.58759   0.00000  Uiso   1.00
Br844  Br    0.97500   0.46629   0.81978   0.00000  Uiso   1.00
Br845  Br    0.89764   0.34812   0.69493   0.00000  Uiso   1.00
N846   N     0.86164   0.39502   0.92887   0.00000  Uiso   1.00
O847   O     0.87956   0.39094   0.88595   0.00000  Uiso   1.00
O848   O     0.84895   0.36182   0.95099   0.00000  Uiso   1.00
N849   N     0.76765   0.58572   0.92206   0.00000  Uiso   1.00
O850   O     0.73058   0.56957   0.91598   0.00000  Uiso   1.00
O851   O     0.78369   0.62276   0.90931   0.00000  Uiso   1.00
Br852  Br    0.85644   0.59146   0.54110   0.00000  Uiso   1.00
Br853  Br    0.77948   0.63025   0.51255   0.00000  Uiso   1.00
Br854  Br    0.78909   0.42304   0.89717   0.00000  Uiso   1.00
Br855  Br    0.69815   0.53467   0.68483   0.00000  Uiso   1.00
Zn856  Zn    0.19338   0.80661   0.78734   0.00000  Uiso   1.00
Zn857  Zn    0.13379   0.79124   0.71876   0.00000  Uiso   1.00
Zn858  Zn    0.21056   0.86442   0.70657   0.00000  Uiso   1.00
Zn859  Zn    0.12893   0.87106   0.78733   0.00000  Uiso   1.00
O860   O     0.16667   0.83333   0.75000   0.00000  Uiso   1.00
O861   O     0.07071   0.85544   0.78213   0.00000  Uiso   1.00
O862   O     0.25491   0.81892   0.77014   0.00000  Uiso   1.00
O863   O     0.13760   0.73610   0.73413   0.00000  Uiso   1.00
O864   O     0.20345   0.92286   0.71361   0.00000  Uiso   1.00
O865   O     0.15451   0.79304   0.65459   0.00000  Uiso   1.00
O866   O     0.12940   0.87058   0.84968   0.00000  Uiso   1.00
O867   O     0.20824   0.84425   0.64606   0.00000  Uiso   1.00
O868   O     0.17451   0.82546   0.84968   0.00000  Uiso   1.00
O869   O     0.17930   0.74686   0.78214   0.00000  Uiso   1.00
O870   O     0.14632   0.92751   0.77013   0.00000  Uiso   1.00
O871   O     0.07412   0.79958   0.73413   0.00000  Uiso   1.00
O872   O     0.26693   0.85939   0.71361   0.00000  Uiso   1.00
C873   C     0.05302   0.82661   0.75981   0.00000  Uiso   1.00
C874   C     0.28073   0.84029   0.74014   0.00000  Uiso   1.00
C875   C     0.15573   0.72262   0.76060   0.00000  Uiso   1.00
C876   C     0.17679   0.94464   0.74029   0.00000  Uiso   1.00
C877   C     0.18542   0.81463   0.62933   0.00000  Uiso   1.00
C878   C     0.14737   0.85043   0.87138   0.00000  Uiso   1.00
C879   C     0.21408   0.76182   0.51293   0.00000  Uiso   1.00
H880   H     0.22884   0.73457   0.99643   0.00000  Uiso   1.00
C881   C     0.19299   0.80649   0.58086   0.00000  Uiso   1.00
C882   C     0.12397   0.89597   0.94255   0.00000  Uiso   1.00
C883   C     0.13319   0.91216   0.98332   0.00000  Uiso   1.00
C884   C     0.15742   0.89112   0.50265   0.00000  Uiso   1.00
C885   C     0.16329   0.84880   0.98756   0.00000  Uiso   1.00
C886   C     0.15360   0.83209   0.94640   0.00000  Uiso   1.00
C887   C     0.17847   0.82247   0.51189   0.00000  Uiso   1.00
C888   C     0.19330   0.78445   0.99068   0.00000  Uiso   1.00
C889   C     0.18371   0.76833   0.94978   0.00000  Uiso   1.00
C890   C     0.15885   0.78977   0.93159   0.00000  Uiso   1.00
C891   C     0.17533   0.83079   0.55810   0.00000  Uiso   1.00
C892   C     0.21411   0.77286   0.55786   0.00000  Uiso   1.00
C893   C     0.13928   0.85828   0.92115   0.00000  Uiso   1.00
H894   H     0.15631   0.85423   0.57767   0.00000  Uiso   1.00
C895   C     0.32638   0.84142   0.73554   0.00000  Uiso   1.00
C896   C     0.00799   0.82414   0.76521   0.00000  Uiso   1.00
C897   C     0.18167   0.98942   0.73710   0.00000  Uiso   1.00
C898   C     0.15210   0.67844   0.76345   0.00000  Uiso   1.00
H899   H     0.12402   0.99737   0.78665   0.00000  Uiso   1.00
Br900  Br    0.24021   0.73935   0.58759   0.00000  Uiso   1.00
Br901  Br    0.30833   0.79962   0.81978   0.00000  Uiso   1.00
Br902  Br    0.23097   0.68146   0.69493   0.00000  Uiso   1.00
N903   N     0.19497   0.72835   0.92887   0.00000  Uiso   1.00
O904   O     0.21289   0.72427   0.88595   0.00000  Uiso   1.00
O905   O     0.18228   0.69515   0.95099   0.00000  Uiso   1.00
N906   N     0.10098   0.91905   0.92206   0.00000  Uiso   1.00
O907   O     0.06392   0.90290   0.91598   0.00000  Uiso   1.00
O908   O     0.11702   0.95609   0.90931   0.00000  Uiso   1.00
Br909  Br    0.18977   0.92479   0.54110   0.00000  Uiso   1.00
Br910  Br    0.11281   0.96358   0.51255   0.00000  Uiso   1.00
Br911  Br    0.12242   0.75637   0.89717   0.00000  Uiso   1.00
Br912  Br    0.03148   0.86800   0.68483   0.00000  Uiso   1.00
Zn913  Zn    0.52672   0.80661   0.78734   0.00000  Uiso   1.00
Zn914  Zn    0.46713   0.79124   0.71876   0.00000  Uiso   1.00
Zn915  Zn    0.54389   0.86442   0.70657   0.00000  Uiso   1.00
Zn916  Zn    0.46226   0.87106   0.78733   0.00000  Uiso   1.00
O917   O     0.50000   0.83333   0.75000   0.00000  Uiso   1.00
O918   O     0.40405   0.85544   0.78213   0.00000  Uiso   1.00
O919   O     0.58824   0.81892   0.77014   0.00000  Uiso   1.00
O920   O     0.47093   0.73610   0.73413   0.00000  Uiso   1.00
O921   O     0.53678   0.92286   0.71361   0.00000  Uiso   1.00
O922   O     0.48784   0.79304   0.65459   0.00000  Uiso   1.00
O923   O     0.46274   0.87058   0.84968   0.00000  Uiso   1.00
O924   O     0.54157   0.84425   0.64606   0.00000  Uiso   1.00
O925   O     0.50785   0.82546   0.84968   0.00000  Uiso   1.00
O926   O     0.51264   0.74686   0.78214   0.00000  Uiso   1.00
O927   O     0.47965   0.92751   0.77013   0.00000  Uiso   1.00
O928   O     0.40745   0.79958   0.73413   0.00000  Uiso   1.00
O929   O     0.60026   0.85939   0.71361   0.00000  Uiso   1.00
C930   C     0.38636   0.82661   0.75981   0.00000  Uiso   1.00
C931   C     0.61406   0.84029   0.74014   0.00000  Uiso   1.00
C932   C     0.48906   0.72262   0.76060   0.00000  Uiso   1.00
C933   C     0.51012   0.94464   0.74029   0.00000  Uiso   1.00
C934   C     0.51875   0.81463   0.62933   0.00000  Uiso   1.00
C935   C     0.48070   0.85043   0.87138   0.00000  Uiso   1.00
C936   C     0.54742   0.76182   0.51293   0.00000  Uiso   1.00
H937   H     0.56217   0.73457   0.99643   0.00000  Uiso   1.00
C938   C     0.52632   0.80649   0.58086   0.00000  Uiso   1.00
C939   C     0.45730   0.89597   0.94255   0.00000  Uiso   1.00
C940   C     0.46653   0.91216   0.98332   0.00000  Uiso   1.00
C941   C     0.49076   0.89112   0.50265   0.00000  Uiso   1.00
C942   C     0.49662   0.84880   0.98756   0.00000  Uiso   1.00
C943   C     0.48694   0.83209   0.94640   0.00000  Uiso   1.00
C944   C     0.51180   0.82247   0.51189   0.00000  Uiso   1.00
C945   C     0.52664   0.78445   0.99068   0.00000  Uiso   1.00
C946   C     0.51704   0.76833   0.94978   0.00000  Uiso   1.00
C947   C     0.49218   0.78977   0.93159   0.00000  Uiso   1.00
C948   C     0.50866   0.83079   0.55810   0.00000  Uiso   1.00
C949   C     0.54744   0.77286   0.55786   0.00000  Uiso   1.00
C950   C     0.47261   0.85828   0.92115   0.00000  Uiso   1.00
H951   H     0.48964   0.85423   0.57767   0.00000  Uiso   1.00
C952   C     0.65971   0.84142   0.73554   0.00000  Uiso   1.00
C953   C     0.34133   0.82414   0.76521   0.00000  Uiso   1.00
C954   C     0.51501   0.98942   0.73710   0.00000  Uiso   1.00
C955   C     0.48544   0.67844   0.76345   0.00000  Uiso   1.00
H956   H     0.45735   0.99737   0.78665   0.00000  Uiso   1.00
Br957  Br    0.57354   0.73935   0.58759   0.00000  Uiso   1.00
Br958  Br    0.64167   0.79962   0.81978   0.00000  Uiso   1.00
Br959  Br    0.56431   0.68146   0.69493   0.00000  Uiso   1.00
N960   N     0.52830   0.72835   0.92887   0.00000  Uiso   1.00
O961   O     0.54622   0.72427   0.88595   0.00000  Uiso   1.00
O962   O     0.51562   0.69515   0.95099   0.00000  Uiso   1.00
N963   N     0.43432   0.91905   0.92206   0.00000  Uiso   1.00
O964   O     0.39725   0.90290   0.91598   0.00000  Uiso   1.00
O965   O     0.45036   0.95609   0.90931   0.00000  Uiso   1.00
Br966  Br    0.52310   0.92479   0.54110   0.00000  Uiso   1.00
Br967  Br    0.44614   0.96358   0.51255   0.00000  Uiso   1.00
Br968  Br    0.45575   0.75637   0.89717   0.00000  Uiso   1.00
Br969  Br    0.36481   0.86800   0.68483   0.00000  Uiso   1.00
Zn970  Zn    0.86005   0.80661   0.78734   0.00000  Uiso   1.00
Zn971  Zn    0.80046   0.79124   0.71876   0.00000  Uiso   1.00
Zn972  Zn    0.87723   0.86442   0.70657   0.00000  Uiso   1.00
Zn973  Zn    0.79560   0.87106   0.78733   0.00000  Uiso   1.00
O974   O     0.83333   0.83333   0.75000   0.00000  Uiso   1.00
O975   O     0.73738   0.85544   0.78213   0.00000  Uiso   1.00
O976   O     0.92158   0.81892   0.77014   0.00000  Uiso   1.00
O977   O     0.80426   0.73610   0.73413   0.00000  Uiso   1.00
O978   O     0.87012   0.92286   0.71361   0.00000  Uiso   1.00
O979   O     0.82118   0.79304   0.65459   0.00000  Uiso   1.00
O980   O     0.79607   0.87058   0.84968   0.00000  Uiso   1.00
O981   O     0.87491   0.84425   0.64606   0.00000  Uiso   1.00
O982   O     0.84118   0.82546   0.84968   0.00000  Uiso   1.00
O983   O     0.84597   0.74686   0.78214   0.00000  Uiso   1.00
O984   O     0.81298   0.92751   0.77013   0.00000  Uiso   1.00
O985   O     0.74078   0.79958   0.73413   0.00000  Uiso   1.00
O986   O     0.93360   0.85939   0.71361   0.00000  Uiso   1.00
C987   C     0.71969   0.82661   0.75981   0.00000  Uiso   1.00
C988   C     0.94739   0.84029   0.74014   0.00000  Uiso   1.00
C989   C     0.82239   0.72262   0.76060   0.00000  Uiso   1.00
C990   C     0.84345   0.94464   0.74029   0.00000  Uiso   1.00
C991   C     0.85209   0.81463   0.62933   0.00000  Uiso   1.00
C992   C     0.81403   0.85043   0.87138   0.00000  Uiso   1.00
C993   C     0.88075   0.76182   0.51293   0.00000  Uiso   1.00
H994   H     0.89551   0.73457   0.99643   0.00000  Uiso   1.00
C995   C     0.85966   0.80649   0.58086   0.00000  Uiso   1.00
C996   C     0.79064   0.89597   0.94255   0.00000  Uiso   1.00
C997   C     0.79986   0.91216   0.98332   0.00000  Uiso   1.00
C998   C     0.82409   0.89112   0.50265   0.00000  Uiso   1.00
C999   C     0.82996   0.84880   0.98756   0.00000  Uiso   1.00
C1000  C     0.82027   0.83209   0.94640   0.00000  Uiso   1.00
C1001  C     0.84513   0.82247   0.51189   0.00000  Uiso   1.00
C1002  C     0.85997   0.78445   0.99068   0.00000  Uiso   1.00
C1003  C     0.85037   0.76833   0.94978   0.00000  Uiso   1.00
C1004  C     0.82551   0.78977   0.93159   0.00000  Uiso   1.00
C1005  C     0.84199   0.83079   0.55810   0.00000  Uiso   1.00
C1006  C     0.88078   0.77286   0.55786   0.00000  Uiso   1.00
C1007  C     0.80594   0.85828   0.92115   0.00000  Uiso   1.00
H1008  H     0.82297   0.85423   0.57767   0.00000  Uiso   1.00
C1009  C     0.99304   0.84142   0.73554   0.00000  Uiso   1.00
C1010  C     0.67466   0.82414   0.76521   0.00000  Uiso   1.00
C1011  C     0.84834   0.98942   0.73710   0.00000  Uiso   1.00
C1012  C     0.81877   0.67844   0.76345   0.00000  Uiso   1.00
H1013  H     0.79069   0.99737   0.78665   0.00000  Uiso   1.00
Br1014 Br    0.90688   0.73935   0.58759   0.00000  Uiso   1.00
Br1015 Br    0.97500   0.79962   0.81978   0.00000  Uiso   1.00
Br1016 Br    0.89764   0.68146   0.69493   0.00000  Uiso   1.00
N1017  N     0.86164   0.72835   0.92887   0.00000  Uiso   1.00
O1018  O     0.87956   0.72427   0.88595   0.00000  Uiso   1.00
O1019  O     0.84895   0.69515   0.95099   0.00000  Uiso   1.00
N1020  N     0.76765   0.91905   0.92206   0.00000  Uiso   1.00
O1021  O     0.73058   0.90290   0.91598   0.00000  Uiso   1.00
O1022  O     0.78369   0.95609   0.90931   0.00000  Uiso   1.00
Br1023 Br    0.85644   0.92479   0.54110   0.00000  Uiso   1.00
Br1024 Br    0.77948   0.96358   0.51255   0.00000  Uiso   1.00
Br1025 Br    0.78909   0.75637   0.89717   0.00000  Uiso   1.00
Br1026 Br    0.69815   0.86800   0.68483   0.00000  Uiso   1.00
loop_
_geom_bond_atom_site_label_1
_geom_bond_atom_site_label_2
_geom_bond_distance
_geom_bond_site_symmetry_2
_ccdc_geom_bond_type
Zn1    O14     1.927   .     S
Zn1    O5      1.959   .     S
Zn1    O13     1.919   .     S
Zn1    O7      1.935   .     S
Zn2    O16     1.936   .     S
Zn2    O5      1.944   .     S
Zn2    O10     1.924   .     S
Zn2    O8      1.935   .     S
Zn3    O17     1.946   .     S
Zn3    O9      1.928   .     S
Zn3    O12     1.927   .     S
Zn3    O5      1.937   .     S
Zn4    O15     1.931   .     S
Zn4    O11     1.933   .     S
Zn4    O6      1.943   .     S
Zn4    O5      1.931   .     S
O6     C18     1.262   .     A
O7     C19     1.271   .     A
O8     C20     1.276   .     A
O9     C21     1.269   .     A
O10    C22     1.275   .     A
O11    C23     1.283   .     A
O12    C22     1.277   .     A
O13    C23     1.292   .     A
O14    C20     1.278   .     A
O15    C21     1.274   .     A
O16    C18     1.268   .     A
O17    C19     1.287   .     A
C18    C41     1.430   .     S
C19    C40     1.458   .     S
C20    C43     1.434   .     S
C21    C42     1.453   .     S
C22    C26     1.452   .     S
C23    C38     1.489   .     S
C24    C37     1.394   .     A
C24    H538    1.081   1_554 S
C24    C546    1.409   1_554 S
H25    C537    1.081   .     S
C26    C37     1.401   .     A
C26    C36     1.389   .     A
C27    N51     1.434   .     S
C27    C38     1.417   .     A
C27    C28     1.399   .     A
C28    C542    1.399   .     S
C28    Br568   1.928   .     S
C29    Br54    1.939   .     S
C29    C541    1.399   1_554 S
C29    C543    1.425   1_554 S
C30    C31     1.421   .     A
C30    C542    1.425   .     S
C30    C545    1.419   .     S
C31    C38     1.420   .     A
C31    C35     1.419   .     A
C32    C36     1.402   .     A
C32    C543    1.419   1_554 S
C32    C546    1.420   1_554 S
C33    C34     1.408   .     A
C33    C545    1.420   .     S
C33    C537    1.409   .     S
C34    C35     1.401   .     A
C34    N48     1.437   .     S
C35    Br56    1.939   .     S
C36    H39     1.081   .     S
C37    Br45    1.917   .     S
C40    C98     1.353   .     S
C40    Br114   1.932   .     S
C41    C154    1.353   1_455 S
C41    Br160   1.933   1_455 S
C42    C214    1.335   .     S
C42    Br218   1.930   .     S
C43    C384    1.335   1_545 S
C43    H386    1.086   1_545 S
H44    C214    1.086   .     S
Br46   C98     1.933   .     S
Br47   C384    1.930   1_545 S
N48    O50     1.300   .     A
N48    O49     1.301   .     A
N51    O52     1.301   .     A
N51    O53     1.302   .     A
Br55   C541    1.928   1_554 S
Br57   C154    1.932   1_455 S
Zn58   O71     1.927   .     S
Zn58   O62     1.959   .     S
Zn58   O70     1.919   .     S
Zn58   O64     1.935   .     S
Zn59   O73     1.936   .     S
Zn59   O62     1.944   .     S
Zn59   O67     1.924   .     S
Zn59   O65     1.935   .     S
Zn60   O74     1.946   .     S
Zn60   O66     1.928   .     S
Zn60   O69     1.927   .     S
Zn60   O62     1.937   .     S
Zn61   O72     1.931   .     S
Zn61   O68     1.933   .     S
Zn61   O63     1.943   .     S
Zn61   O62     1.931   .     S
O63    C75     1.262   .     A
O64    C76     1.271   .     A
O65    C77     1.276   .     A
O66    C78     1.269   .     A
O67    C79     1.275   .     A
O68    C80     1.283   .     A
O69    C79     1.277   .     A
O70    C80     1.292   .     A
O71    C77     1.278   .     A
O72    C78     1.274   .     A
O73    C75     1.268   .     A
O74    C76     1.287   .     A
C75    C98     1.430   .     S
C76    C97     1.458   .     S
C77    C100    1.434   .     S
C78    C99     1.453   .     S
C79    C83     1.452   .     S
C80    C95     1.489   .     S
C81    C94     1.394   .     A
C81    H595    1.081   1_554 S
C81    C603    1.409   1_554 S
H82    C594    1.081   .     S
C83    C94     1.401   .     A
C83    C93     1.389   .     A
C84    N108    1.434   .     S
C84    C95     1.417   .     A
C84    C85     1.399   .     A
C85    C599    1.399   .     S
C85    Br625   1.928   .     S
C86    Br111   1.939   .     S
C86    C598    1.399   1_554 S
C86    C600    1.425   1_554 S
C87    C88     1.421   .     A
C87    C599    1.425   .     S
C87    C602    1.419   .     S
C88    C95     1.420   .     A
C88    C92     1.419   .     A
C89    C93     1.402   .     A
C89    C600    1.419   1_554 S
C89    C603    1.420   1_554 S
C90    C91     1.408   .     A
C90    C602    1.420   .     S
C90    C594    1.409   .     S
C91    C92     1.401   .     A
C91    N105    1.437   .     S
C92    Br113   1.939   .     S
C93    H96     1.081   .     S
C94    Br102   1.917   .     S
C97    C155    1.353   .     S
C97    Br171   1.932   .     S
C99    C271    1.335   .     S
C99    Br275   1.930   .     S
C100   C441    1.335   1_545 S
C100   H443    1.086   1_545 S
H101   C271    1.086   .     S
Br103  C155    1.933   .     S
Br104  C441    1.930   1_545 S
N105   O107    1.300   .     A
N105   O106    1.301   .     A
N108   O109    1.301   .     A
N108   O110    1.302   .     A
Br112  C598    1.928   1_554 S
Zn115  O128    1.927   .     S
Zn115  O119    1.959   .     S
Zn115  O127    1.919   .     S
Zn115  O121    1.935   .     S
Zn116  O130    1.936   .     S
Zn116  O119    1.944   .     S
Zn116  O124    1.924   .     S
Zn116  O122    1.935   .     S
Zn117  O131    1.946   .     S
Zn117  O123    1.928   .     S
Zn117  O126    1.927   .     S
Zn117  O119    1.937   .     S
Zn118  O129    1.931   .     S
Zn118  O125    1.933   .     S
Zn118  O120    1.943   .     S
Zn118  O119    1.931   .     S
O120   C132    1.262   .     A
O121   C133    1.271   .     A
O122   C134    1.276   .     A
O123   C135    1.269   .     A
O124   C136    1.275   .     A
O125   C137    1.283   .     A
O126   C136    1.277   .     A
O127   C137    1.292   .     A
O128   C134    1.278   .     A
O129   C135    1.274   .     A
O130   C132    1.268   .     A
O131   C133    1.287   .     A
C132   C155    1.430   .     S
C133   C154    1.458   .     S
C134   C157    1.434   .     S
C135   C156    1.453   .     S
C136   C140    1.452   .     S
C137   C152    1.489   .     S
C138   C151    1.394   .     A
C138   H652    1.081   1_554 S
C138   C660    1.409   1_554 S
H139   C651    1.081   .     S
C140   C151    1.401   .     A
C140   C150    1.389   .     A
C141   N165    1.434   .     S
C141   C152    1.417   .     A
C141   C142    1.399   .     A
C142   C656    1.399   .     S
C142   Br682   1.928   .     S
C143   Br168   1.939   .     S
C143   C655    1.399   1_554 S
C143   C657    1.425   1_554 S
C144   C145    1.421   .     A
C144   C656    1.425   .     S
C144   C659    1.419   .     S
C145   C152    1.420   .     A
C145   C149    1.419   .     A
C146   C150    1.402   .     A
C146   C657    1.419   1_554 S
C146   C660    1.420   1_554 S
C147   C148    1.408   .     A
C147   C659    1.420   .     S
C147   C651    1.409   .     S
C148   C149    1.401   .     A
C148   N162    1.437   .     S
C149   Br170   1.939   .     S
C150   H153    1.081   .     S
C151   Br159   1.917   .     S
C154   C41     1.353   1_655 S
C154   Br57    1.932   1_655 S
C156   C328    1.335   .     S
C156   Br332   1.930   .     S
C157   C498    1.335   1_545 S
C157   H500    1.086   1_545 S
H158   C328    1.086   .     S
Br160  C41     1.933   1_655 S
Br161  C498    1.930   1_545 S
N162   O164    1.300   .     A
N162   O163    1.301   .     A
N165   O166    1.301   .     A
N165   O167    1.302   .     A
Br169  C655    1.928   1_554 S
Zn172  O185    1.927   .     S
Zn172  O176    1.959   .     S
Zn172  O184    1.919   .     S
Zn172  O178    1.935   .     S
Zn173  O187    1.936   .     S
Zn173  O176    1.944   .     S
Zn173  O181    1.924   .     S
Zn173  O179    1.935   .     S
Zn174  O188    1.946   .     S
Zn174  O180    1.928   .     S
Zn174  O183    1.927   .     S
Zn174  O176    1.937   .     S
Zn175  O186    1.931   .     S
Zn175  O182    1.933   .     S
Zn175  O177    1.943   .     S
Zn175  O176    1.931   .     S
O177   C189    1.262   .     A
O178   C190    1.271   .     A
O179   C191    1.276   .     A
O180   C192    1.269   .     A
O181   C193    1.275   .     A
O182   C194    1.283   .     A
O183   C193    1.277   .     A
O184   C194    1.292   .     A
O185   C191    1.278   .     A
O186   C192    1.274   .     A
O187   C189    1.268   .     A
O188   C190    1.287   .     A
C189   C212    1.430   .     S
C190   C211    1.458   .     S
C191   C214    1.434   .     S
C192   C213    1.453   .     S
C193   C197    1.452   .     S
C194   C209    1.489   .     S
C195   C208    1.394   .     A
C195   H709    1.081   1_554 S
C195   C717    1.409   1_554 S
H196   C708    1.081   .     S
C197   C208    1.401   .     A
C197   C207    1.389   .     A
C198   N222    1.434   .     S
C198   C209    1.417   .     A
C198   C199    1.399   .     A
C199   C713    1.399   .     S
C199   Br739   1.928   .     S
C200   Br225   1.939   .     S
C200   C712    1.399   1_554 S
C200   C714    1.425   1_554 S
C201   C202    1.421   .     A
C201   C713    1.425   .     S
C201   C716    1.419   .     S
C202   C209    1.420   .     A
C202   C206    1.419   .     A
C203   C207    1.402   .     A
C203   C714    1.419   1_554 S
C203   C717    1.420   1_554 S
C204   C205    1.408   .     A
C204   C716    1.420   .     S
C204   C708    1.409   .     S
C205   C206    1.401   .     A
C205   N219    1.437   .     S
C206   Br227   1.939   .     S
C207   H210    1.081   .     S
C208   Br216   1.917   .     S
C211   C269    1.353   .     S
C211   Br285   1.932   .     S
C212   C325    1.353   1_455 S
C212   Br331   1.933   1_455 S
C213   C385    1.335   .     S
C213   Br389   1.930   .     S
H215   C385    1.086   .     S
Br217  C269    1.933   .     S
N219   O221    1.300   .     A
N219   O220    1.301   .     A
N222   O223    1.301   .     A
N222   O224    1.302   .     A
Br226  C712    1.928   1_554 S
Br228  C325    1.932   1_455 S
Zn229  O242    1.927   .     S
Zn229  O233    1.959   .     S
Zn229  O241    1.919   .     S
Zn229  O235    1.935   .     S
Zn230  O244    1.936   .     S
Zn230  O233    1.944   .     S
Zn230  O238    1.924   .     S
Zn230  O236    1.935   .     S
Zn231  O245    1.946   .     S
Zn231  O237    1.928   .     S
Zn231  O240    1.927   .     S
Zn231  O233    1.937   .     S
Zn232  O243    1.931   .     S
Zn232  O239    1.933   .     S
Zn232  O234    1.943   .     S
Zn232  O233    1.931   .     S
O234   C246    1.262   .     A
O235   C247    1.271   .     A
O236   C248    1.276   .     A
O237   C249    1.269   .     A
O238   C250    1.275   .     A
O239   C251    1.283   .     A
O240   C250    1.277   .     A
O241   C251    1.292   .     A
O242   C248    1.278   .     A
O243   C249    1.274   .     A
O244   C246    1.268   .     A
O245   C247    1.287   .     A
C246   C269    1.430   .     S
C247   C268    1.458   .     S
C248   C271    1.434   .     S
C249   C270    1.453   .     S
C250   C254    1.452   .     S
C251   C266    1.489   .     S
C252   C265    1.394   .     A
C252   H766    1.081   1_554 S
C252   C774    1.409   1_554 S
H253   C765    1.081   .     S
C254   C265    1.401   .     A
C254   C264    1.389   .     A
C255   N279    1.434   .     S
C255   C266    1.417   .     A
C255   C256    1.399   .     A
C256   C770    1.399   .     S
C256   Br796   1.928   .     S
C257   Br282   1.939   .     S
C257   C769    1.399   1_554 S
C257   C771    1.425   1_554 S
C258   C259    1.421   .     A
C258   C770    1.425   .     S
C258   C773    1.419   .     S
C259   C266    1.420   .     A
C259   C263    1.419   .     A
C260   C264    1.402   .     A
C260   C771    1.419   1_554 S
C260   C774    1.420   1_554 S
C261   C262    1.408   .     A
C261   C773    1.420   .     S
C261   C765    1.409   .     S
C262   C263    1.401   .     A
C262   N276    1.437   .     S
C263   Br284   1.939   .     S
C264   H267    1.081   .     S
C265   Br273   1.917   .     S
C268   C326    1.353   .     S
C268   Br342   1.932   .     S
C270   C442    1.335   .     S
C270   Br446   1.930   .     S
H272   C442    1.086   .     S
Br274  C326    1.933   .     S
N276   O278    1.300   .     A
N276   O277    1.301   .     A
N279   O280    1.301   .     A
N279   O281    1.302   .     A
Br283  C769    1.928   1_554 S
Zn286  O299    1.927   .     S
Zn286  O290    1.959   .     S
Zn286  O298    1.919   .     S
Zn286  O292    1.935   .     S
Zn287  O301    1.936   .     S
Zn287  O290    1.944   .     S
Zn287  O295    1.924   .     S
Zn287  O293    1.935   .     S
Zn288  O302    1.946   .     S
Zn288  O294    1.928   .     S
Zn288  O297    1.927   .     S
Zn288  O290    1.937   .     S
Zn289  O300    1.931   .     S
Zn289  O296    1.933   .     S
Zn289  O291    1.943   .     S
Zn289  O290    1.931   .     S
O291   C303    1.262   .     A
O292   C304    1.271   .     A
O293   C305    1.276   .     A
O294   C306    1.269   .     A
O295   C307    1.275   .     A
O296   C308    1.283   .     A
O297   C307    1.277   .     A
O298   C308    1.292   .     A
O299   C305    1.278   .     A
O300   C306    1.274   .     A
O301   C303    1.268   .     A
O302   C304    1.287   .     A
C303   C326    1.430   .     S
C304   C325    1.458   .     S
C305   C328    1.434   .     S
C306   C327    1.453   .     S
C307   C311    1.452   .     S
C308   C323    1.489   .     S
C309   C322    1.394   .     A
C309   H823    1.081   1_554 S
C309   C831    1.409   1_554 S
H310   C822    1.081   .     S
C311   C322    1.401   .     A
C311   C321    1.389   .     A
C312   N336    1.434   .     S
C312   C323    1.417   .     A
C312   C313    1.399   .     A
C313   C827    1.399   .     S
C313   Br853   1.928   .     S
C314   Br339   1.939   .     S
C314   C826    1.399   1_554 S
C314   C828    1.425   1_554 S
C315   C316    1.421   .     A
C315   C827    1.425   .     S
C315   C830    1.419   .     S
C316   C323    1.420   .     A
C316   C320    1.419   .     A
C317   C321    1.402   .     A
C317   C828    1.419   1_554 S
C317   C831    1.420   1_554 S
C318   C319    1.408   .     A
C318   C830    1.420   .     S
C318   C822    1.409   .     S
C319   C320    1.401   .     A
C319   N333    1.437   .     S
C320   Br341   1.939   .     S
C321   H324    1.081   .     S
C322   Br330   1.917   .     S
C325   C212    1.353   1_655 S
C325   Br228   1.932   1_655 S
C327   C499    1.335   .     S
C327   Br503   1.930   .     S
H329   C499    1.086   .     S
Br331  C212    1.933   1_655 S
N333   O335    1.300   .     A
N333   O334    1.301   .     A
N336   O337    1.301   .     A
N336   O338    1.302   .     A
Br340  C826    1.928   1_554 S
Zn343  O356    1.927   .     S
Zn343  O347    1.959   .     S
Zn343  O355    1.919   .     S
Zn343  O349    1.935   .     S
Zn344  O358    1.936   .     S
Zn344  O347    1.944   .     S
Zn344  O352    1.924   .     S
Zn344  O350    1.935   .     S
Zn345  O359    1.946   .     S
Zn345  O351    1.928   .     S
Zn345  O354    1.927   .     S
Zn345  O347    1.937   .     S
Zn346  O357    1.931   .     S
Zn346  O353    1.933   .     S
Zn346  O348    1.943   .     S
Zn346  O347    1.931   .     S
O348   C360    1.262   .     A
O349   C361    1.271   .     A
O350   C362    1.276   .     A
O351   C363    1.269   .     A
O352   C364    1.275   .     A
O353   C365    1.283   .     A
O354   C364    1.277   .     A
O355   C365    1.292   .     A
O356   C362    1.278   .     A
O357   C363    1.274   .     A
O358   C360    1.268   .     A
O359   C361    1.287   .     A
C360   C383    1.430   .     S
C361   C382    1.458   .     S
C362   C385    1.434   .     S
C363   C384    1.453   .     S
C364   C368    1.452   .     S
C365   C380    1.489   .     S
C366   C379    1.394   .     A
C366   H880    1.081   1_554 S
C366   C888    1.409   1_554 S
H367   C879    1.081   .     S
C368   C379    1.401   .     A
C368   C378    1.389   .     A
C369   N393    1.434   .     S
C369   C380    1.417   .     A
C369   C370    1.399   .     A
C370   C884    1.399   .     S
C370   Br910   1.928   .     S
C371   Br396   1.939   .     S
C371   C883    1.399   1_554 S
C371   C885    1.425   1_554 S
C372   C373    1.421   .     A
C372   C884    1.425   .     S
C372   C887    1.419   .     S
C373   C380    1.420   .     A
C373   C377    1.419   .     A
C374   C378    1.402   .     A
C374   C885    1.419   1_554 S
C374   C888    1.420   1_554 S
C375   C376    1.408   .     A
C375   C887    1.420   .     S
C375   C879    1.409   .     S
C376   C377    1.401   .     A
C376   N390    1.437   .     S
C377   Br398   1.939   .     S
C378   H381    1.081   .     S
C379   Br387   1.917   .     S
C382   C440    1.353   .     S
C382   Br456   1.932   .     S
C383   C496    1.353   1_455 S
C383   Br502   1.933   1_455 S
C384   C43     1.335   1_565 S
C384   Br47    1.930   1_565 S
H386   C43     1.086   1_565 S
Br388  C440    1.933   .     S
N390   O392    1.300   .     A
N390   O391    1.301   .     A
N393   O394    1.301   .     A
N393   O395    1.302   .     A
Br397  C883    1.928   1_554 S
Br399  C496    1.932   1_455 S
Zn400  O413    1.927   .     S
Zn400  O404    1.959   .     S
Zn400  O412    1.919   .     S
Zn400  O406    1.935   .     S
Zn401  O415    1.936   .     S
Zn401  O404    1.944   .     S
Zn401  O409    1.924   .     S
Zn401  O407    1.935   .     S
Zn402  O416    1.946   .     S
Zn402  O408    1.928   .     S
Zn402  O411    1.927   .     S
Zn402  O404    1.937   .     S
Zn403  O414    1.931   .     S
Zn403  O410    1.933   .     S
Zn403  O405    1.943   .     S
Zn403  O404    1.931   .     S
O405   C417    1.262   .     A
O406   C418    1.271   .     A
O407   C419    1.276   .     A
O408   C420    1.269   .     A
O409   C421    1.275   .     A
O410   C422    1.283   .     A
O411   C421    1.277   .     A
O412   C422    1.292   .     A
O413   C419    1.278   .     A
O414   C420    1.274   .     A
O415   C417    1.268   .     A
O416   C418    1.287   .     A
C417   C440    1.430   .     S
C418   C439    1.458   .     S
C419   C442    1.434   .     S
C420   C441    1.453   .     S
C421   C425    1.452   .     S
C422   C437    1.489   .     S
C423   C436    1.394   .     A
C423   H937    1.081   1_554 S
C423   C945    1.409   1_554 S
H424   C936    1.081   .     S
C425   C436    1.401   .     A
C425   C435    1.389   .     A
C426   N450    1.434   .     S
C426   C437    1.417   .     A
C426   C427    1.399   .     A
C427   C941    1.399   .     S
C427   Br967   1.928   .     S
C428   Br453   1.939   .     S
C428   C940    1.399   1_554 S
C428   C942    1.425   1_554 S
C429   C430    1.421   .     A
C429   C941    1.425   .     S
C429   C944    1.419   .     S
C430   C437    1.420   .     A
C430   C434    1.419   .     A
C431   C435    1.402   .     A
C431   C942    1.419   1_554 S
C431   C945    1.420   1_554 S
C432   C433    1.408   .     A
C432   C944    1.420   .     S
C432   C936    1.409   .     S
C433   C434    1.401   .     A
C433   N447    1.437   .     S
C434   Br455   1.939   .     S
C435   H438    1.081   .     S
C436   Br444   1.917   .     S
C439   C497    1.353   .     S
C439   Br513   1.932   .     S
C441   C100    1.335   1_565 S
C441   Br104   1.930   1_565 S
H443   C100    1.086   1_565 S
Br445  C497    1.933   .     S
N447   O449    1.300   .     A
N447   O448    1.301   .     A
N450   O451    1.301   .     A
N450   O452    1.302   .     A
Br454  C940    1.928   1_554 S
Zn457  O470    1.927   .     S
Zn457  O461    1.959   .     S
Zn457  O469    1.919   .     S
Zn457  O463    1.935   .     S
Zn458  O472    1.936   .     S
Zn458  O461    1.944   .     S
Zn458  O466    1.924   .     S
Zn458  O464    1.935   .     S
Zn459  O473    1.946   .     S
Zn459  O465    1.928   .     S
Zn459  O468    1.927   .     S
Zn459  O461    1.937   .     S
Zn460  O471    1.931   .     S
Zn460  O467    1.933   .     S
Zn460  O462    1.943   .     S
Zn460  O461    1.931   .     S
O462   C474    1.262   .     A
O463   C475    1.271   .     A
O464   C476    1.276   .     A
O465   C477    1.269   .     A
O466   C478    1.275   .     A
O467   C479    1.283   .     A
O468   C478    1.277   .     A
O469   C479    1.292   .     A
O470   C476    1.278   .     A
O471   C477    1.274   .     A
O472   C474    1.268   .     A
O473   C475    1.287   .     A
C474   C497    1.430   .     S
C475   C496    1.458   .     S
C476   C499    1.434   .     S
C477   C498    1.453   .     S
C478   C482    1.452   .     S
C479   C494    1.489   .     S
C480   C493    1.394   .     A
C480   H994    1.081   1_554 S
C480   C1002   1.409   1_554 S
H481   C993    1.081   .     S
C482   C493    1.401   .     A
C482   C492    1.389   .     A
C483   N507    1.434   .     S
C483   C494    1.417   .     A
C483   C484    1.399   .     A
C484   C998    1.399   .     S
C484   Br1024  1.928   .     S
C485   Br510   1.939   .     S
C485   C997    1.399   1_554 S
C485   C999    1.425   1_554 S
C486   C487    1.421   .     A
C486   C998    1.425   .     S
C486   C1001   1.419   .     S
C487   C494    1.420   .     A
C487   C491    1.419   .     A
C488   C492    1.402   .     A
C488   C999    1.419   1_554 S
C488   C1002   1.420   1_554 S
C489   C490    1.408   .     A
C489   C1001   1.420   .     S
C489   C993    1.409   .     S
C490   C491    1.401   .     A
C490   N504    1.437   .     S
C491   Br512   1.939   .     S
C492   H495    1.081   .     S
C493   Br501   1.917   .     S
C496   C383    1.353   1_655 S
C496   Br399   1.932   1_655 S
C498   C157    1.335   1_565 S
C498   Br161   1.930   1_565 S
H500   C157    1.086   1_565 S
Br502  C383    1.933   1_655 S
N504   O506    1.300   .     A
N504   O505    1.301   .     A
N507   O508    1.301   .     A
N507   O509    1.302   .     A
Br511  C997    1.928   1_554 S
Zn514  O527    1.927   .     S
Zn514  O518    1.959   .     S
Zn514  O526    1.919   .     S
Zn514  O520    1.935   .     S
Zn515  O529    1.936   .     S
Zn515  O518    1.944   .     S
Zn515  O523    1.924   .     S
Zn515  O521    1.935   .     S
Zn516  O530    1.946   .     S
Zn516  O522    1.928   .     S
Zn516  O525    1.927   .     S
Zn516  O518    1.937   .     S
Zn517  O528    1.931   .     S
Zn517  O524    1.933   .     S
Zn517  O519    1.943   .     S
Zn517  O518    1.931   .     S
O519   C531    1.262   .     A
O520   C532    1.271   .     A
O521   C533    1.276   .     A
O522   C534    1.269   .     A
O523   C535    1.275   .     A
O524   C536    1.283   .     A
O525   C535    1.277   .     A
O526   C536    1.292   .     A
O527   C533    1.278   .     A
O528   C534    1.274   .     A
O529   C531    1.268   .     A
O530   C532    1.287   .     A
C531   C554    1.430   .     S
C532   C553    1.458   .     S
C533   C556    1.434   .     S
C534   C555    1.453   .     S
C535   C539    1.452   .     S
C536   C551    1.489   .     S
C537   C550    1.394   .     A
H538   C24     1.081   1_556 S
C539   C550    1.401   .     A
C539   C549    1.389   .     A
C540   N564    1.434   .     S
C540   C551    1.417   .     A
C540   C541    1.399   .     A
C541   C29     1.399   1_556 S
C541   Br55    1.928   1_556 S
C542   Br567   1.939   .     S
C543   C544    1.421   .     A
C543   C29     1.425   1_556 S
C543   C32     1.419   1_556 S
C544   C551    1.420   .     A
C544   C548    1.419   .     A
C545   C549    1.402   .     A
C546   C547    1.408   .     A
C546   C32     1.420   1_556 S
C546   C24     1.409   1_556 S
C547   C548    1.401   .     A
C547   N561    1.437   .     S
C548   Br569   1.939   .     S
C549   H552    1.081   .     S
C550   Br558   1.917   .     S
C553   C611    1.353   .     S
C553   Br627   1.932   .     S
C554   C667    1.353   1_455 S
C554   Br673   1.933   1_455 S
C555   C727    1.335   .     S
C555   Br731   1.930   .     S
C556   C897    1.335   1_545 S
C556   H899    1.086   1_545 S
H557   C727    1.086   .     S
Br559  C611    1.933   .     S
Br560  C897    1.930   1_545 S
N561   O563    1.300   .     A
N561   O562    1.301   .     A
N564   O565    1.301   .     A
N564   O566    1.302   .     A
Br570  C667    1.932   1_455 S
Zn571  O584    1.927   .     S
Zn571  O575    1.959   .     S
Zn571  O583    1.919   .     S
Zn571  O577    1.935   .     S
Zn572  O586    1.936   .     S
Zn572  O575    1.944   .     S
Zn572  O580    1.924   .     S
Zn572  O578    1.935   .     S
Zn573  O587    1.946   .     S
Zn573  O579    1.928   .     S
Zn573  O582    1.927   .     S
Zn573  O575    1.937   .     S
Zn574  O585    1.931   .     S
Zn574  O581    1.933   .     S
Zn574  O576    1.943   .     S
Zn574  O575    1.931   .     S
O576   C588    1.262   .     A
O577   C589    1.271   .     A
O578   C590    1.276   .     A
O579   C591    1.269   .     A
O580   C592    1.275   .     A
O581   C593    1.283   .     A
O582   C592    1.277   .     A
O583   C593    1.292   .     A
O584   C590    1.278   .     A
O585   C591    1.274   .     A
O586   C588    1.268   .     A
O587   C589    1.287   .     A
C588   C611    1.430   .     S
C589   C610    1.458   .     S
C590   C613    1.434   .     S
C591   C612    1.453   .     S
C592   C596    1.452   .     S
C593   C608    1.489   .     S
C594   C607    1.394   .     A
H595   C81     1.081   1_556 S
C596   C607    1.401   .     A
C596   C606    1.389   .     A
C597   N621    1.434   .     S
C597   C608    1.417   .     A
C597   C598    1.399   .     A
C598   C86     1.399   1_556 S
C598   Br112   1.928   1_556 S
C599   Br624   1.939   .     S
C600   C601    1.421   .     A
C600   C86     1.425   1_556 S
C600   C89     1.419   1_556 S
C601   C608    1.420   .     A
C601   C605    1.419   .     A
C602   C606    1.402   .     A
C603   C604    1.408   .     A
C603   C89     1.420   1_556 S
C603   C81     1.409   1_556 S
C604   C605    1.401   .     A
C604   N618    1.437   .     S
C605   Br626   1.939   .     S
C606   H609    1.081   .     S
C607   Br615   1.917   .     S
C610   C668    1.353   .     S
C610   Br684   1.932   .     S
C612   C784    1.335   .     S
C612   Br788   1.930   .     S
C613   C954    1.335   1_545 S
C613   H956    1.086   1_545 S
H614   C784    1.086   .     S
Br616  C668    1.933   .     S
Br617  C954    1.930   1_545 S
N618   O620    1.300   .     A
N618   O619    1.301   .     A
N621   O622    1.301   .     A
N621   O623    1.302   .     A
Zn628  O641    1.927   .     S
Zn628  O632    1.959   .     S
Zn628  O640    1.919   .     S
Zn628  O634    1.935   .     S
Zn629  O643    1.936   .     S
Zn629  O632    1.944   .     S
Zn629  O637    1.924   .     S
Zn629  O635    1.935   .     S
Zn630  O644    1.946   .     S
Zn630  O636    1.928   .     S
Zn630  O639    1.927   .     S
Zn630  O632    1.937   .     S
Zn631  O642    1.931   .     S
Zn631  O638    1.933   .     S
Zn631  O633    1.943   .     S
Zn631  O632    1.931   .     S
O633   C645    1.262   .     A
O634   C646    1.271   .     A
O635   C647    1.276   .     A
O636   C648    1.269   .     A
O637   C649    1.275   .     A
O638   C650    1.283   .     A
O639   C649    1.277   .     A
O640   C650    1.292   .     A
O641   C647    1.278   .     A
O642   C648    1.274   .     A
O643   C645    1.268   .     A
O644   C646    1.287   .     A
C645   C668    1.430   .     S
C646   C667    1.458   .     S
C647   C670    1.434   .     S
C648   C669    1.453   .     S
C649   C653    1.452   .     S
C650   C665    1.489   .     S
C651   C664    1.394   .     A
H652   C138    1.081   1_556 S
C653   C664    1.401   .     A
C653   C663    1.389   .     A
C654   N678    1.434   .     S
C654   C665    1.417   .     A
C654   C655    1.399   .     A
C655   C143    1.399   1_556 S
C655   Br169   1.928   1_556 S
C656   Br681   1.939   .     S
C657   C658    1.421   .     A
C657   C143    1.425   1_556 S
C657   C146    1.419   1_556 S
C658   C665    1.420   .     A
C658   C662    1.419   .     A
C659   C663    1.402   .     A
C660   C661    1.408   .     A
C660   C146    1.420   1_556 S
C660   C138    1.409   1_556 S
C661   C662    1.401   .     A
C661   N675    1.437   .     S
C662   Br683   1.939   .     S
C663   H666    1.081   .     S
C664   Br672   1.917   .     S
C667   C554    1.353   1_655 S
C667   Br570   1.932   1_655 S
C669   C841    1.335   .     S
C669   Br845   1.930   .     S
C670   C1011   1.335   1_545 S
C670   H1013   1.086   1_545 S
H671   C841    1.086   .     S
Br673  C554    1.933   1_655 S
Br674  C1011   1.930   1_545 S
N675   O677    1.300   .     A
N675   O676    1.301   .     A
N678   O679    1.301   .     A
N678   O680    1.302   .     A
Zn685  O698    1.927   .     S
Zn685  O689    1.959   .     S
Zn685  O697    1.919   .     S
Zn685  O691    1.935   .     S
Zn686  O700    1.936   .     S
Zn686  O689    1.944   .     S
Zn686  O694    1.924   .     S
Zn686  O692    1.935   .     S
Zn687  O701    1.946   .     S
Zn687  O693    1.928   .     S
Zn687  O696    1.927   .     S
Zn687  O689    1.937   .     S
Zn688  O699    1.931   .     S
Zn688  O695    1.933   .     S
Zn688  O690    1.943   .     S
Zn688  O689    1.931   .     S
O690   C702    1.262   .     A
O691   C703    1.271   .     A
O692   C704    1.276   .     A
O693   C705    1.269   .     A
O694   C706    1.275   .     A
O695   C707    1.283   .     A
O696   C706    1.277   .     A
O697   C707    1.292   .     A
O698   C704    1.278   .     A
O699   C705    1.274   .     A
O700   C702    1.268   .     A
O701   C703    1.287   .     A
C702   C725    1.430   .     S
C703   C724    1.458   .     S
C704   C727    1.434   .     S
C705   C726    1.453   .     S
C706   C710    1.452   .     S
C707   C722    1.489   .     S
C708   C721    1.394   .     A
H709   C195    1.081   1_556 S
C710   C721    1.401   .     A
C710   C720    1.389   .     A
C711   N735    1.434   .     S
C711   C722    1.417   .     A
C711   C712    1.399   .     A
C712   C200    1.399   1_556 S
C712   Br226   1.928   1_556 S
C713   Br738   1.939   .     S
C714   C715    1.421   .     A
C714   C200    1.425   1_556 S
C714   C203    1.419   1_556 S
C715   C722    1.420   .     A
C715   C719    1.419   .     A
C716   C720    1.402   .     A
C717   C718    1.408   .     A
C717   C203    1.420   1_556 S
C717   C195    1.409   1_556 S
C718   C719    1.401   .     A
C718   N732    1.437   .     S
C719   Br740   1.939   .     S
C720   H723    1.081   .     S
C721   Br729   1.917   .     S
C724   C782    1.353   .     S
C724   Br798   1.932   .     S
C725   C838    1.353   1_455 S
C725   Br844   1.933   1_455 S
C726   C898    1.335   .     S
C726   Br902   1.930   .     S
H728   C898    1.086   .     S
Br730  C782    1.933   .     S
N732   O734    1.300   .     A
N732   O733    1.301   .     A
N735   O736    1.301   .     A
N735   O737    1.302   .     A
Br741  C838    1.932   1_455 S
Zn742  O755    1.927   .     S
Zn742  O746    1.959   .     S
Zn742  O754    1.919   .     S
Zn742  O748    1.935   .     S
Zn743  O757    1.936   .     S
Zn743  O746    1.944   .     S
Zn743  O751    1.924   .     S
Zn743  O749    1.935   .     S
Zn744  O758    1.946   .     S
Zn744  O750    1.928   .     S
Zn744  O753    1.927   .     S
Zn744  O746    1.937   .     S
Zn745  O756    1.931   .     S
Zn745  O752    1.933   .     S
Zn745  O747    1.943   .     S
Zn745  O746    1.931   .     S
O747   C759    1.262   .     A
O748   C760    1.271   .     A
O749   C761    1.276   .     A
O750   C762    1.269   .     A
O751   C763    1.275   .     A
O752   C764    1.283   .     A
O753   C763    1.277   .     A
O754   C764    1.292   .     A
O755   C761    1.278   .     A
O756   C762    1.274   .     A
O757   C759    1.268   .     A
O758   C760    1.287   .     A
C759   C782    1.430   .     S
C760   C781    1.458   .     S
C761   C784    1.434   .     S
C762   C783    1.453   .     S
C763   C767    1.452   .     S
C764   C779    1.489   .     S
C765   C778    1.394   .     A
H766   C252    1.081   1_556 S
C767   C778    1.401   .     A
C767   C777    1.389   .     A
C768   N792    1.434   .     S
C768   C779    1.417   .     A
C768   C769    1.399   .     A
C769   C257    1.399   1_556 S
C769   Br283   1.928   1_556 S
C770   Br795   1.939   .     S
C771   C772    1.421   .     A
C771   C257    1.425   1_556 S
C771   C260    1.419   1_556 S
C772   C779    1.420   .     A
C772   C776    1.419   .     A
C773   C777    1.402   .     A
C774   C775    1.408   .     A
C774   C260    1.420   1_556 S
C774   C252    1.409   1_556 S
C775   C776    1.401   .     A
C775   N789    1.437   .     S
C776   Br797   1.939   .     S
C777   H780    1.081   .     S
C778   Br786   1.917   .     S
C781   C839    1.353   .     S
C781   Br855   1.932   .     S
C783   C955    1.335   .     S
C783   Br959   1.930   .     S
H785   C955    1.086   .     S
Br787  C839    1.933   .     S
N789   O791    1.300   .     A
N789   O790    1.301   .     A
N792   O793    1.301   .     A
N792   O794    1.302   .     A
Zn799  O812    1.927   .     S
Zn799  O803    1.959   .     S
Zn799  O811    1.919   .     S
Zn799  O805    1.935   .     S
Zn800  O814    1.936   .     S
Zn800  O803    1.944   .     S
Zn800  O808    1.924   .     S
Zn800  O806    1.935   .     S
Zn801  O815    1.946   .     S
Zn801  O807    1.928   .     S
Zn801  O810    1.927   .     S
Zn801  O803    1.937   .     S
Zn802  O813    1.931   .     S
Zn802  O809    1.933   .     S
Zn802  O804    1.943   .     S
Zn802  O803    1.931   .     S
O804   C816    1.262   .     A
O805   C817    1.271   .     A
O806   C818    1.276   .     A
O807   C819    1.269   .     A
O808   C820    1.275   .     A
O809   C821    1.283   .     A
O810   C820    1.277   .     A
O811   C821    1.292   .     A
O812   C818    1.278   .     A
O813   C819    1.274   .     A
O814   C816    1.268   .     A
O815   C817    1.287   .     A
C816   C839    1.430   .     S
C817   C838    1.458   .     S
C818   C841    1.434   .     S
C819   C840    1.453   .     S
C820   C824    1.452   .     S
C821   C836    1.489   .     S
C822   C835    1.394   .     A
H823   C309    1.081   1_556 S
C824   C835    1.401   .     A
C824   C834    1.389   .     A
C825   N849    1.434   .     S
C825   C836    1.417   .     A
C825   C826    1.399   .     A
C826   C314    1.399   1_556 S
C826   Br340   1.928   1_556 S
C827   Br852   1.939   .     S
C828   C829    1.421   .     A
C828   C314    1.425   1_556 S
C828   C317    1.419   1_556 S
C829   C836    1.420   .     A
C829   C833    1.419   .     A
C830   C834    1.402   .     A
C831   C832    1.408   .     A
C831   C317    1.420   1_556 S
C831   C309    1.409   1_556 S
C832   C833    1.401   .     A
C832   N846    1.437   .     S
C833   Br854   1.939   .     S
C834   H837    1.081   .     S
C835   Br843   1.917   .     S
C838   C725    1.353   1_655 S
C838   Br741   1.932   1_655 S
C840   C1012   1.335   .     S
C840   Br1016  1.930   .     S
H842   C1012   1.086   .     S
Br844  C725    1.933   1_655 S
N846   O848    1.300   .     A
N846   O847    1.301   .     A
N849   O850    1.301   .     A
N849   O851    1.302   .     A
Zn856  O869    1.927   .     S
Zn856  O860    1.959   .     S
Zn856  O868    1.919   .     S
Zn856  O862    1.935   .     S
Zn857  O871    1.936   .     S
Zn857  O860    1.944   .     S
Zn857  O865    1.924   .     S
Zn857  O863    1.935   .     S
Zn858  O872    1.946   .     S
Zn858  O864    1.928   .     S
Zn858  O867    1.927   .     S
Zn858  O860    1.937   .     S
Zn859  O870    1.931   .     S
Zn859  O866    1.933   .     S
Zn859  O861    1.943   .     S
Zn859  O860    1.931   .     S
O861   C873    1.262   .     A
O862   C874    1.271   .     A
O863   C875    1.276   .     A
O864   C876    1.269   .     A
O865   C877    1.275   .     A
O866   C878    1.283   .     A
O867   C877    1.277   .     A
O868   C878    1.292   .     A
O869   C875    1.278   .     A
O870   C876    1.274   .     A
O871   C873    1.268   .     A
O872   C874    1.287   .     A
C873   C896    1.430   .     S
C874   C895    1.458   .     S
C875   C898    1.434   .     S
C876   C897    1.453   .     S
C877   C881    1.452   .     S
C878   C893    1.489   .     S
C879   C892    1.394   .     A
H880   C366    1.081   1_556 S
C881   C892    1.401   .     A
C881   C891    1.389   .     A
C882   N906    1.434   .     S
C882   C893    1.417   .     A
C882   C883    1.399   .     A
C883   C371    1.399   1_556 S
C883   Br397   1.928   1_556 S
C884   Br909   1.939   .     S
C885   C886    1.421   .     A
C885   C371    1.425   1_556 S
C885   C374    1.419   1_556 S
C886   C893    1.420   .     A
C886   C890    1.419   .     A
C887   C891    1.402   .     A
C888   C889    1.408   .     A
C888   C374    1.420   1_556 S
C888   C366    1.409   1_556 S
C889   C890    1.401   .     A
C889   N903    1.437   .     S
C890   Br911   1.939   .     S
C891   H894    1.081   .     S
C892   Br900   1.917   .     S
C895   C953    1.353   .     S
C895   Br969   1.932   .     S
C896   C1009   1.353   1_455 S
C896   Br1015  1.933   1_455 S
C897   C556    1.335   1_565 S
C897   Br560   1.930   1_565 S
H899   C556    1.086   1_565 S
Br901  C953    1.933   .     S
N903   O905    1.300   .     A
N903   O904    1.301   .     A
N906   O907    1.301   .     A
N906   O908    1.302   .     A
Br912  C1009   1.932   1_455 S
Zn913  O926    1.927   .     S
Zn913  O917    1.959   .     S
Zn913  O925    1.919   .     S
Zn913  O919    1.935   .     S
Zn914  O928    1.936   .     S
Zn914  O917    1.944   .     S
Zn914  O922    1.924   .     S
Zn914  O920    1.935   .     S
Zn915  O929    1.946   .     S
Zn915  O921    1.928   .     S
Zn915  O924    1.927   .     S
Zn915  O917    1.937   .     S
Zn916  O927    1.931   .     S
Zn916  O923    1.933   .     S
Zn916  O918    1.943   .     S
Zn916  O917    1.931   .     S
O918   C930    1.262   .     A
O919   C931    1.271   .     A
O920   C932    1.276   .     A
O921   C933    1.269   .     A
O922   C934    1.275   .     A
O923   C935    1.283   .     A
O924   C934    1.277   .     A
O925   C935    1.292   .     A
O926   C932    1.278   .     A
O927   C933    1.274   .     A
O928   C930    1.268   .     A
O929   C931    1.287   .     A
C930   C953    1.430   .     S
C931   C952    1.458   .     S
C932   C955    1.434   .     S
C933   C954    1.453   .     S
C934   C938    1.452   .     S
C935   C950    1.489   .     S
C936   C949    1.394   .     A
H937   C423    1.081   1_556 S
C938   C949    1.401   .     A
C938   C948    1.389   .     A
C939   N963    1.434   .     S
C939   C950    1.417   .     A
C939   C940    1.399   .     A
C940   C428    1.399   1_556 S
C940   Br454   1.928   1_556 S
C941   Br966   1.939   .     S
C942   C943    1.421   .     A
C942   C428    1.425   1_556 S
C942   C431    1.419   1_556 S
C943   C950    1.420   .     A
C943   C947    1.419   .     A
C944   C948    1.402   .     A
C945   C946    1.408   .     A
C945   C431    1.420   1_556 S
C945   C423    1.409   1_556 S
C946   C947    1.401   .     A
C946   N960    1.437   .     S
C947   Br968   1.939   .     S
C948   H951    1.081   .     S
C949   Br957   1.917   .     S
C952   C1010   1.353   .     S
C952   Br1026  1.932   .     S
C954   C613    1.335   1_565 S
C954   Br617   1.930   1_565 S
H956   C613    1.086   1_565 S
Br958  C1010   1.933   .     S
N960   O962    1.300   .     A
N960   O961    1.301   .     A
N963   O964    1.301   .     A
N963   O965    1.302   .     A
Zn970  O983    1.927   .     S
Zn970  O974    1.959   .     S
Zn970  O982    1.919   .     S
Zn970  O976    1.935   .     S
Zn971  O985    1.936   .     S
Zn971  O974    1.944   .     S
Zn971  O979    1.924   .     S
Zn971  O977    1.935   .     S
Zn972  O986    1.946   .     S
Zn972  O978    1.928   .     S
Zn972  O981    1.927   .     S
Zn972  O974    1.937   .     S
Zn973  O984    1.931   .     S
Zn973  O980    1.933   .     S
Zn973  O975    1.943   .     S
Zn973  O974    1.931   .     S
O975   C987    1.262   .     A
O976   C988    1.271   .     A
O977   C989    1.276   .     A
O978   C990    1.269   .     A
O979   C991    1.275   .     A
O980   C992    1.283   .     A
O981   C991    1.277   .     A
O982   C992    1.292   .     A
O983   C989    1.278   .     A
O984   C990    1.274   .     A
O985   C987    1.268   .     A
O986   C988    1.287   .     A
C987   C1010   1.430   .     S
C988   C1009   1.458   .     S
C989   C1012   1.434   .     S
C990   C1011   1.453   .     S
C991   C995    1.452   .     S
C992   C1007   1.489   .     S
C993   C1006   1.394   .     A
H994   C480    1.081   1_556 S
C995   C1006   1.401   .     A
C995   C1005   1.389   .     A
C996   N1020   1.434   .     S
C996   C1007   1.417   .     A
C996   C997    1.399   .     A
C997   C485    1.399   1_556 S
C997   Br511   1.928   1_556 S
C998   Br1023  1.939   .     S
C999   C1000   1.421   .     A
C999   C485    1.425   1_556 S
C999   C488    1.419   1_556 S
C1000  C1007   1.420   .     A
C1000  C1004   1.419   .     A
C1001  C1005   1.402   .     A
C1002  C1003   1.408   .     A
C1002  C488    1.420   1_556 S
C1002  C480    1.409   1_556 S
C1003  C1004   1.401   .     A
C1003  N1017   1.437   .     S
C1004  Br1025  1.939   .     S
C1005  H1008   1.081   .     S
C1006  Br1014  1.917   .     S
C1009  C896    1.353   1_655 S
C1009  Br912   1.932   1_655 S
C1011  C670    1.335   1_565 S
C1011  Br674   1.930   1_565 S
H1013  C670    1.086   1_565 S
Br1015 C896    1.933   1_655 S
N1017  O1019   1.300   .     A
N1017  O1018   1.301   .     A
N1020  O1021   1.301   .     A
N1020  O1022   1.302   .     A
