data_str_m1_o10_o18_pcu_sym.77
_audit_creation_date              2020-01-03
_audit_creation_method            'Materials Studio'
_symmetry_space_group_name_H-M    'P1'
_symmetry_Int_Tables_number       1
_symmetry_cell_setting            triclinic
loop_
_symmetry_equiv_pos_as_xyz
  x,y,z
_cell_length_a                    32.5996
_cell_length_b                    32.5226
_cell_length_c                    35.7423
_cell_angle_alpha                 98.3944
_cell_angle_beta                  72.7391
_cell_angle_gamma                 98.7658
loop_
_atom_site_label
_atom_site_type_symbol
_atom_site_fract_x
_atom_site_fract_y
_atom_site_fract_z
_atom_site_U_iso_or_equiv
_atom_site_adp_type
_atom_site_occupancy
Zn1    Zn    0.19244   0.14090   0.28277   0.00000  Uiso   1.00
Zn2    Zn    0.13459   0.12378   0.22257   0.00000  Uiso   1.00
Zn3    Zn    0.21166   0.19664   0.21188   0.00000  Uiso   1.00
Zn4    Zn    0.12798   0.20535   0.28277   0.00000  Uiso   1.00
O5     O     0.16667   0.16667   0.25000   0.00000  Uiso   1.00
O6     O     0.06990   0.18960   0.27820   0.00000  Uiso   1.00
O7     O     0.25440   0.15277   0.26767   0.00000  Uiso   1.00
O8     O     0.13800   0.06903   0.23607   0.00000  Uiso   1.00
O9     O     0.20437   0.25527   0.21805   0.00000  Uiso   1.00
O10    O     0.15693   0.12393   0.16625   0.00000  Uiso   1.00
O11    O     0.12687   0.20646   0.33749   0.00000  Uiso   1.00
O12    O     0.21088   0.17493   0.15877   0.00000  Uiso   1.00
O13    O     0.17198   0.16135   0.33749   0.00000  Uiso   1.00
O14    O     0.17849   0.08101   0.27820   0.00000  Uiso   1.00
O15    O     0.14581   0.26136   0.26767   0.00000  Uiso   1.00
O16    O     0.07452   0.13251   0.23607   0.00000  Uiso   1.00
O17    O     0.26785   0.19179   0.21805   0.00000  Uiso   1.00
C18    C     0.05230   0.15968   0.25934   0.00000  Uiso   1.00
C19    C     0.28138   0.17237   0.23990   0.00000  Uiso   1.00
C20    C     0.15587   0.05612   0.25885   0.00000  Uiso   1.00
C21    C     0.17687   0.27770   0.24134   0.00000  Uiso   1.00
C22    C     0.18820   0.14517   0.14400   0.00000  Uiso   1.00
C23    C     0.14564   0.18811   0.35614   0.00000  Uiso   1.00
C24    C     0.13651   0.19764   0.39916   0.00000  Uiso   1.00
C25    C     0.19572   0.13628   0.10159   0.00000  Uiso   1.00
C26    C     0.10579   0.24044   0.45944   0.00000  Uiso   1.00
C27    C     0.11254   0.23043   0.41905   0.00000  Uiso   1.00
C28    C     0.15225   0.17412   0.42045   0.00000  Uiso   1.00
C29    C     0.14199   0.18078   0.46187   0.00000  Uiso   1.00
C30    C     0.12083   0.21634   0.48126   0.00000  Uiso   1.00
C31    C     0.15533   0.15481   0.48390   0.00000  Uiso   1.00
C32    C     0.15703   0.17035   0.02287   0.00000  Uiso   1.00
C33    C     0.13800   0.20724   0.04066   0.00000  Uiso   1.00
C34    C     0.11760   0.22846   0.02135   0.00000  Uiso   1.00
C35    C     0.16686   0.11384   0.46847   0.00000  Uiso   1.00
C36    C     0.18813   0.09348   0.48760   0.00000  Uiso   1.00
C37    C     0.19336   0.10993   0.02428   0.00000  Uiso   1.00
C38    C     0.17658   0.14781   0.04313   0.00000  Uiso   1.00
C39    C     0.21233   0.08684   0.04359   0.00000  Uiso   1.00
C40    C     0.21291   0.09965   0.08227   0.00000  Uiso   1.00
C41    C     0.17890   0.16077   0.08206   0.00000  Uiso   1.00
H42    H     0.16601   0.18844   0.09901   0.00000  Uiso   1.00
H43    H     0.22533   0.08025   0.09762   0.00000  Uiso   1.00
H44    H     0.19776   0.06280   0.47507   0.00000  Uiso   1.00
H45    H     0.08985   0.26790   0.47296   0.00000  Uiso   1.00
H46    H     0.10048   0.24954   0.40316   0.00000  Uiso   1.00
H47    H     0.17379   0.15148   0.40415   0.00000  Uiso   1.00
H48    H     0.13679   0.21978   0.07042   0.00000  Uiso   1.00
H49    H     0.22491   0.05775   0.02938   0.00000  Uiso   1.00
C50    C     0.32815   0.17111   0.23261   0.00000  Uiso   1.00
C51    C     0.00725   0.15952   0.26184   0.00000  Uiso   1.00
H52    H     0.31758   0.15399   0.29015   0.00000  Uiso   1.00
C53    C     0.18101   0.32221   0.23816   0.00000  Uiso   1.00
H54    H     0.20846   0.00291   0.21633   0.00000  Uiso   1.00
C55    C     0.15135   0.01205   0.26194   0.00000  Uiso   1.00
H56    H     0.12343   0.33208   0.28374   0.00000  Uiso   1.00
N57    N     0.09518   0.26328   0.04269   0.00000  Uiso   1.00
O58    O     0.11173   0.28972   0.06684   0.00000  Uiso   1.00
O59    O     0.05522   0.26441   0.04341   0.00000  Uiso   1.00
C60    C     0.02884   0.18145   0.19399   0.00000  Uiso   1.00
C61    C     0.01221   0.19082   0.16051   0.00000  Uiso   1.00
C62    C     0.04914   0.19590   0.12290   0.00000  Uiso   1.00
H63    H     0.07329   0.22246   0.12809   0.00000  Uiso   1.00
H64    H     0.06519   0.16685   0.11302   0.00000  Uiso   1.00
H65    H     0.03624   0.20241   0.09917   0.00000  Uiso   1.00
H66    H     0.32142   0.16473   0.15416   0.00000  Uiso   1.00
H67    H     0.33059   0.22055   0.16894   0.00000  Uiso   1.00
H68    H     0.05156   0.20873   0.20074   0.00000  Uiso   1.00
H69    H     0.04755   0.15421   0.18246   0.00000  Uiso   1.00
N70    N     0.15182   0.08987   0.43699   0.00000  Uiso   1.00
O71    O     0.11200   0.08973   0.43658   0.00000  Uiso   1.00
O72    O     0.17558   0.06354   0.41214   0.00000  Uiso   1.00
Zn73   Zn    0.52577   0.14090   0.28277   0.00000  Uiso   1.00
Zn74   Zn    0.46792   0.12378   0.22257   0.00000  Uiso   1.00
Zn75   Zn    0.54500   0.19664   0.21188   0.00000  Uiso   1.00
Zn76   Zn    0.46131   0.20535   0.28277   0.00000  Uiso   1.00
O77    O     0.50000   0.16667   0.25000   0.00000  Uiso   1.00
O78    O     0.40323   0.18960   0.27820   0.00000  Uiso   1.00
O79    O     0.58773   0.15277   0.26767   0.00000  Uiso   1.00
O80    O     0.47133   0.06903   0.23607   0.00000  Uiso   1.00
O81    O     0.53771   0.25527   0.21805   0.00000  Uiso   1.00
O82    O     0.49027   0.12393   0.16625   0.00000  Uiso   1.00
O83    O     0.46020   0.20646   0.33749   0.00000  Uiso   1.00
O84    O     0.54421   0.17493   0.15877   0.00000  Uiso   1.00
O85    O     0.50532   0.16135   0.33749   0.00000  Uiso   1.00
O86    O     0.51182   0.08101   0.27820   0.00000  Uiso   1.00
O87    O     0.47914   0.26136   0.26767   0.00000  Uiso   1.00
O88    O     0.40785   0.13251   0.23607   0.00000  Uiso   1.00
O89    O     0.60119   0.19179   0.21805   0.00000  Uiso   1.00
C90    C     0.38563   0.15968   0.25934   0.00000  Uiso   1.00
C91    C     0.61471   0.17237   0.23990   0.00000  Uiso   1.00
C92    C     0.48920   0.05612   0.25885   0.00000  Uiso   1.00
C93    C     0.51020   0.27770   0.24134   0.00000  Uiso   1.00
C94    C     0.52154   0.14517   0.14400   0.00000  Uiso   1.00
C95    C     0.47897   0.18811   0.35614   0.00000  Uiso   1.00
C96    C     0.46984   0.19764   0.39916   0.00000  Uiso   1.00
C97    C     0.52906   0.13628   0.10159   0.00000  Uiso   1.00
C98    C     0.43912   0.24044   0.45944   0.00000  Uiso   1.00
C99    C     0.44587   0.23043   0.41905   0.00000  Uiso   1.00
C100   C     0.48558   0.17412   0.42045   0.00000  Uiso   1.00
C101   C     0.47532   0.18078   0.46187   0.00000  Uiso   1.00
C102   C     0.45416   0.21634   0.48126   0.00000  Uiso   1.00
C103   C     0.48866   0.15481   0.48390   0.00000  Uiso   1.00
C104   C     0.49037   0.17035   0.02287   0.00000  Uiso   1.00
C105   C     0.47133   0.20724   0.04066   0.00000  Uiso   1.00
C106   C     0.45094   0.22846   0.02135   0.00000  Uiso   1.00
C107   C     0.50020   0.11384   0.46847   0.00000  Uiso   1.00
C108   C     0.52146   0.09348   0.48760   0.00000  Uiso   1.00
C109   C     0.52669   0.10993   0.02428   0.00000  Uiso   1.00
C110   C     0.50991   0.14781   0.04313   0.00000  Uiso   1.00
C111   C     0.54566   0.08684   0.04359   0.00000  Uiso   1.00
C112   C     0.54624   0.09965   0.08227   0.00000  Uiso   1.00
C113   C     0.51224   0.16077   0.08206   0.00000  Uiso   1.00
H114   H     0.49935   0.18844   0.09901   0.00000  Uiso   1.00
H115   H     0.55866   0.08025   0.09762   0.00000  Uiso   1.00
H116   H     0.53110   0.06280   0.47507   0.00000  Uiso   1.00
H117   H     0.42318   0.26790   0.47296   0.00000  Uiso   1.00
H118   H     0.43381   0.24954   0.40316   0.00000  Uiso   1.00
H119   H     0.50713   0.15148   0.40415   0.00000  Uiso   1.00
H120   H     0.47012   0.21978   0.07042   0.00000  Uiso   1.00
H121   H     0.55824   0.05775   0.02938   0.00000  Uiso   1.00
C122   C     0.66148   0.17111   0.23261   0.00000  Uiso   1.00
C123   C     0.34059   0.15952   0.26184   0.00000  Uiso   1.00
H124   H     0.65091   0.15399   0.29015   0.00000  Uiso   1.00
C125   C     0.51434   0.32221   0.23816   0.00000  Uiso   1.00
H126   H     0.54180   0.00291   0.21633   0.00000  Uiso   1.00
C127   C     0.48468   0.01205   0.26194   0.00000  Uiso   1.00
H128   H     0.45676   0.33208   0.28374   0.00000  Uiso   1.00
N129   N     0.42851   0.26328   0.04269   0.00000  Uiso   1.00
O130   O     0.44507   0.28972   0.06684   0.00000  Uiso   1.00
O131   O     0.38856   0.26441   0.04341   0.00000  Uiso   1.00
C132   C     0.36217   0.18145   0.19399   0.00000  Uiso   1.00
C133   C     0.34554   0.19082   0.16051   0.00000  Uiso   1.00
C134   C     0.38247   0.19590   0.12290   0.00000  Uiso   1.00
H135   H     0.40663   0.22246   0.12809   0.00000  Uiso   1.00
H136   H     0.39853   0.16685   0.11302   0.00000  Uiso   1.00
H137   H     0.36958   0.20241   0.09917   0.00000  Uiso   1.00
H138   H     0.65475   0.16473   0.15416   0.00000  Uiso   1.00
H139   H     0.66392   0.22055   0.16894   0.00000  Uiso   1.00
H140   H     0.38489   0.20873   0.20074   0.00000  Uiso   1.00
H141   H     0.38088   0.15421   0.18246   0.00000  Uiso   1.00
N142   N     0.48515   0.08987   0.43699   0.00000  Uiso   1.00
O143   O     0.44534   0.08973   0.43658   0.00000  Uiso   1.00
O144   O     0.50891   0.06354   0.41214   0.00000  Uiso   1.00
Zn145  Zn    0.85910   0.14090   0.28277   0.00000  Uiso   1.00
Zn146  Zn    0.80125   0.12378   0.22257   0.00000  Uiso   1.00
Zn147  Zn    0.87833   0.19664   0.21188   0.00000  Uiso   1.00
Zn148  Zn    0.79465   0.20535   0.28277   0.00000  Uiso   1.00
O149   O     0.83333   0.16667   0.25000   0.00000  Uiso   1.00
O150   O     0.73656   0.18960   0.27820   0.00000  Uiso   1.00
O151   O     0.92106   0.15277   0.26767   0.00000  Uiso   1.00
O152   O     0.80467   0.06903   0.23607   0.00000  Uiso   1.00
O153   O     0.87104   0.25527   0.21805   0.00000  Uiso   1.00
O154   O     0.82360   0.12393   0.16625   0.00000  Uiso   1.00
O155   O     0.79354   0.20646   0.33749   0.00000  Uiso   1.00
O156   O     0.87755   0.17493   0.15877   0.00000  Uiso   1.00
O157   O     0.83865   0.16135   0.33749   0.00000  Uiso   1.00
O158   O     0.84515   0.08101   0.27820   0.00000  Uiso   1.00
O159   O     0.81247   0.26136   0.26767   0.00000  Uiso   1.00
O160   O     0.74119   0.13251   0.23607   0.00000  Uiso   1.00
O161   O     0.93452   0.19179   0.21805   0.00000  Uiso   1.00
C162   C     0.71897   0.15968   0.25934   0.00000  Uiso   1.00
C163   C     0.94804   0.17237   0.23990   0.00000  Uiso   1.00
C164   C     0.82254   0.05612   0.25885   0.00000  Uiso   1.00
C165   C     0.84354   0.27770   0.24134   0.00000  Uiso   1.00
C166   C     0.85487   0.14517   0.14400   0.00000  Uiso   1.00
C167   C     0.81230   0.18811   0.35614   0.00000  Uiso   1.00
C168   C     0.80318   0.19764   0.39916   0.00000  Uiso   1.00
C169   C     0.86239   0.13628   0.10159   0.00000  Uiso   1.00
C170   C     0.77246   0.24044   0.45944   0.00000  Uiso   1.00
C171   C     0.77920   0.23043   0.41905   0.00000  Uiso   1.00
C172   C     0.81891   0.17412   0.42045   0.00000  Uiso   1.00
C173   C     0.80866   0.18078   0.46187   0.00000  Uiso   1.00
C174   C     0.78750   0.21634   0.48126   0.00000  Uiso   1.00
C175   C     0.82199   0.15481   0.48390   0.00000  Uiso   1.00
C176   C     0.82370   0.17035   0.02287   0.00000  Uiso   1.00
C177   C     0.80466   0.20724   0.04066   0.00000  Uiso   1.00
C178   C     0.78427   0.22846   0.02135   0.00000  Uiso   1.00
C179   C     0.83353   0.11384   0.46847   0.00000  Uiso   1.00
C180   C     0.85479   0.09348   0.48760   0.00000  Uiso   1.00
C181   C     0.86002   0.10993   0.02428   0.00000  Uiso   1.00
C182   C     0.84324   0.14781   0.04313   0.00000  Uiso   1.00
C183   C     0.87900   0.08684   0.04359   0.00000  Uiso   1.00
C184   C     0.87957   0.09965   0.08227   0.00000  Uiso   1.00
C185   C     0.84557   0.16077   0.08206   0.00000  Uiso   1.00
H186   H     0.83268   0.18844   0.09901   0.00000  Uiso   1.00
H187   H     0.89199   0.08025   0.09762   0.00000  Uiso   1.00
H188   H     0.86443   0.06280   0.47507   0.00000  Uiso   1.00
H189   H     0.75651   0.26790   0.47296   0.00000  Uiso   1.00
H190   H     0.76715   0.24954   0.40316   0.00000  Uiso   1.00
H191   H     0.84046   0.15148   0.40415   0.00000  Uiso   1.00
H192   H     0.80345   0.21978   0.07042   0.00000  Uiso   1.00
H193   H     0.89157   0.05775   0.02938   0.00000  Uiso   1.00
C194   C     0.99482   0.17111   0.23261   0.00000  Uiso   1.00
C195   C     0.67392   0.15952   0.26184   0.00000  Uiso   1.00
H196   H     0.98424   0.15399   0.29015   0.00000  Uiso   1.00
C197   C     0.84768   0.32221   0.23816   0.00000  Uiso   1.00
H198   H     0.87513   0.00291   0.21633   0.00000  Uiso   1.00
C199   C     0.81801   0.01205   0.26194   0.00000  Uiso   1.00
H200   H     0.79009   0.33208   0.28374   0.00000  Uiso   1.00
N201   N     0.76185   0.26328   0.04269   0.00000  Uiso   1.00
O202   O     0.77840   0.28972   0.06684   0.00000  Uiso   1.00
O203   O     0.72189   0.26441   0.04341   0.00000  Uiso   1.00
C204   C     0.69550   0.18145   0.19399   0.00000  Uiso   1.00
C205   C     0.67887   0.19082   0.16051   0.00000  Uiso   1.00
C206   C     0.71581   0.19590   0.12290   0.00000  Uiso   1.00
H207   H     0.73996   0.22246   0.12809   0.00000  Uiso   1.00
H208   H     0.73186   0.16685   0.11302   0.00000  Uiso   1.00
H209   H     0.70291   0.20241   0.09917   0.00000  Uiso   1.00
H210   H     0.98809   0.16473   0.15416   0.00000  Uiso   1.00
H211   H     0.99726   0.22055   0.16894   0.00000  Uiso   1.00
H212   H     0.71823   0.20873   0.20074   0.00000  Uiso   1.00
H213   H     0.71422   0.15421   0.18246   0.00000  Uiso   1.00
N214   N     0.81849   0.08987   0.43699   0.00000  Uiso   1.00
O215   O     0.77867   0.08973   0.43658   0.00000  Uiso   1.00
O216   O     0.84225   0.06354   0.41214   0.00000  Uiso   1.00
Zn217  Zn    0.19244   0.47423   0.28277   0.00000  Uiso   1.00
Zn218  Zn    0.13459   0.45711   0.22257   0.00000  Uiso   1.00
Zn219  Zn    0.21166   0.52997   0.21188   0.00000  Uiso   1.00
Zn220  Zn    0.12798   0.53868   0.28277   0.00000  Uiso   1.00
O221   O     0.16667   0.50000   0.25000   0.00000  Uiso   1.00
O222   O     0.06990   0.52293   0.27820   0.00000  Uiso   1.00
O223   O     0.25440   0.48610   0.26767   0.00000  Uiso   1.00
O224   O     0.13800   0.40236   0.23607   0.00000  Uiso   1.00
O225   O     0.20437   0.58860   0.21805   0.00000  Uiso   1.00
O226   O     0.15693   0.45726   0.16625   0.00000  Uiso   1.00
O227   O     0.12687   0.53979   0.33749   0.00000  Uiso   1.00
O228   O     0.21088   0.50826   0.15877   0.00000  Uiso   1.00
O229   O     0.17198   0.49468   0.33749   0.00000  Uiso   1.00
O230   O     0.17849   0.41434   0.27820   0.00000  Uiso   1.00
O231   O     0.14581   0.59469   0.26767   0.00000  Uiso   1.00
O232   O     0.07452   0.46584   0.23607   0.00000  Uiso   1.00
O233   O     0.26785   0.52512   0.21805   0.00000  Uiso   1.00
C234   C     0.05230   0.49301   0.25934   0.00000  Uiso   1.00
C235   C     0.28138   0.50571   0.23990   0.00000  Uiso   1.00
C236   C     0.15587   0.38946   0.25885   0.00000  Uiso   1.00
C237   C     0.17687   0.61104   0.24134   0.00000  Uiso   1.00
C238   C     0.18820   0.47850   0.14400   0.00000  Uiso   1.00
C239   C     0.14564   0.52144   0.35614   0.00000  Uiso   1.00
C240   C     0.13651   0.53097   0.39916   0.00000  Uiso   1.00
C241   C     0.19572   0.46962   0.10159   0.00000  Uiso   1.00
C242   C     0.10579   0.57377   0.45944   0.00000  Uiso   1.00
C243   C     0.11254   0.56377   0.41905   0.00000  Uiso   1.00
C244   C     0.15225   0.50745   0.42045   0.00000  Uiso   1.00
C245   C     0.14199   0.51412   0.46187   0.00000  Uiso   1.00
C246   C     0.12083   0.54967   0.48126   0.00000  Uiso   1.00
C247   C     0.15533   0.48814   0.48390   0.00000  Uiso   1.00
C248   C     0.15703   0.50369   0.02287   0.00000  Uiso   1.00
C249   C     0.13800   0.54057   0.04066   0.00000  Uiso   1.00
C250   C     0.11760   0.56179   0.02135   0.00000  Uiso   1.00
C251   C     0.16686   0.44717   0.46847   0.00000  Uiso   1.00
C252   C     0.18813   0.42681   0.48760   0.00000  Uiso   1.00
C253   C     0.19336   0.44326   0.02428   0.00000  Uiso   1.00
C254   C     0.17658   0.48115   0.04313   0.00000  Uiso   1.00
C255   C     0.21233   0.42017   0.04359   0.00000  Uiso   1.00
C256   C     0.21291   0.43299   0.08227   0.00000  Uiso   1.00
C257   C     0.17890   0.49410   0.08206   0.00000  Uiso   1.00
H258   H     0.16601   0.52177   0.09901   0.00000  Uiso   1.00
H259   H     0.22533   0.41358   0.09762   0.00000  Uiso   1.00
H260   H     0.19776   0.39613   0.47507   0.00000  Uiso   1.00
H261   H     0.08985   0.60124   0.47296   0.00000  Uiso   1.00
H262   H     0.10048   0.58287   0.40316   0.00000  Uiso   1.00
H263   H     0.17379   0.48481   0.40415   0.00000  Uiso   1.00
H264   H     0.13679   0.55312   0.07042   0.00000  Uiso   1.00
H265   H     0.22491   0.39109   0.02938   0.00000  Uiso   1.00
C266   C     0.32815   0.50444   0.23261   0.00000  Uiso   1.00
C267   C     0.00725   0.49286   0.26184   0.00000  Uiso   1.00
H268   H     0.31758   0.48732   0.29015   0.00000  Uiso   1.00
C269   C     0.18101   0.65554   0.23816   0.00000  Uiso   1.00
H270   H     0.20846   0.33624   0.21633   0.00000  Uiso   1.00
C271   C     0.15135   0.34538   0.26194   0.00000  Uiso   1.00
H272   H     0.12343   0.66541   0.28374   0.00000  Uiso   1.00
N273   N     0.09518   0.59661   0.04269   0.00000  Uiso   1.00
O274   O     0.11173   0.62305   0.06684   0.00000  Uiso   1.00
O275   O     0.05522   0.59775   0.04341   0.00000  Uiso   1.00
C276   C     0.02884   0.51478   0.19399   0.00000  Uiso   1.00
C277   C     0.01221   0.52416   0.16051   0.00000  Uiso   1.00
C278   C     0.04914   0.52923   0.12290   0.00000  Uiso   1.00
H279   H     0.07329   0.55580   0.12809   0.00000  Uiso   1.00
H280   H     0.06519   0.50018   0.11302   0.00000  Uiso   1.00
H281   H     0.03624   0.53575   0.09917   0.00000  Uiso   1.00
H282   H     0.32142   0.49806   0.15416   0.00000  Uiso   1.00
H283   H     0.33059   0.55388   0.16894   0.00000  Uiso   1.00
H284   H     0.05156   0.54206   0.20074   0.00000  Uiso   1.00
H285   H     0.04755   0.48754   0.18246   0.00000  Uiso   1.00
N286   N     0.15182   0.42321   0.43699   0.00000  Uiso   1.00
O287   O     0.11200   0.42306   0.43658   0.00000  Uiso   1.00
O288   O     0.17558   0.39687   0.41214   0.00000  Uiso   1.00
Zn289  Zn    0.52577   0.47423   0.28277   0.00000  Uiso   1.00
Zn290  Zn    0.46792   0.45711   0.22257   0.00000  Uiso   1.00
Zn291  Zn    0.54500   0.52997   0.21188   0.00000  Uiso   1.00
Zn292  Zn    0.46131   0.53868   0.28277   0.00000  Uiso   1.00
O293   O     0.50000   0.50000   0.25000   0.00000  Uiso   1.00
O294   O     0.40323   0.52293   0.27820   0.00000  Uiso   1.00
O295   O     0.58773   0.48610   0.26767   0.00000  Uiso   1.00
O296   O     0.47133   0.40236   0.23607   0.00000  Uiso   1.00
O297   O     0.53771   0.58860   0.21805   0.00000  Uiso   1.00
O298   O     0.49027   0.45726   0.16625   0.00000  Uiso   1.00
O299   O     0.46020   0.53979   0.33749   0.00000  Uiso   1.00
O300   O     0.54421   0.50826   0.15877   0.00000  Uiso   1.00
O301   O     0.50532   0.49468   0.33749   0.00000  Uiso   1.00
O302   O     0.51182   0.41434   0.27820   0.00000  Uiso   1.00
O303   O     0.47914   0.59469   0.26767   0.00000  Uiso   1.00
O304   O     0.40785   0.46584   0.23607   0.00000  Uiso   1.00
O305   O     0.60119   0.52512   0.21805   0.00000  Uiso   1.00
C306   C     0.38563   0.49301   0.25934   0.00000  Uiso   1.00
C307   C     0.61471   0.50571   0.23990   0.00000  Uiso   1.00
C308   C     0.48920   0.38946   0.25885   0.00000  Uiso   1.00
C309   C     0.51020   0.61104   0.24134   0.00000  Uiso   1.00
C310   C     0.52154   0.47850   0.14400   0.00000  Uiso   1.00
C311   C     0.47897   0.52144   0.35614   0.00000  Uiso   1.00
C312   C     0.46984   0.53097   0.39916   0.00000  Uiso   1.00
C313   C     0.52906   0.46962   0.10159   0.00000  Uiso   1.00
C314   C     0.43912   0.57377   0.45944   0.00000  Uiso   1.00
C315   C     0.44587   0.56377   0.41905   0.00000  Uiso   1.00
C316   C     0.48558   0.50745   0.42045   0.00000  Uiso   1.00
C317   C     0.47532   0.51412   0.46187   0.00000  Uiso   1.00
C318   C     0.45416   0.54967   0.48126   0.00000  Uiso   1.00
C319   C     0.48866   0.48814   0.48390   0.00000  Uiso   1.00
C320   C     0.49037   0.50369   0.02287   0.00000  Uiso   1.00
C321   C     0.47133   0.54057   0.04066   0.00000  Uiso   1.00
C322   C     0.45094   0.56179   0.02135   0.00000  Uiso   1.00
C323   C     0.50020   0.44717   0.46847   0.00000  Uiso   1.00
C324   C     0.52146   0.42681   0.48760   0.00000  Uiso   1.00
C325   C     0.52669   0.44326   0.02428   0.00000  Uiso   1.00
C326   C     0.50991   0.48115   0.04313   0.00000  Uiso   1.00
C327   C     0.54566   0.42017   0.04359   0.00000  Uiso   1.00
C328   C     0.54624   0.43299   0.08227   0.00000  Uiso   1.00
C329   C     0.51224   0.49410   0.08206   0.00000  Uiso   1.00
H330   H     0.49935   0.52177   0.09901   0.00000  Uiso   1.00
H331   H     0.55866   0.41358   0.09762   0.00000  Uiso   1.00
H332   H     0.53110   0.39613   0.47507   0.00000  Uiso   1.00
H333   H     0.42318   0.60124   0.47296   0.00000  Uiso   1.00
H334   H     0.43381   0.58287   0.40316   0.00000  Uiso   1.00
H335   H     0.50713   0.48481   0.40415   0.00000  Uiso   1.00
H336   H     0.47012   0.55312   0.07042   0.00000  Uiso   1.00
H337   H     0.55824   0.39109   0.02938   0.00000  Uiso   1.00
C338   C     0.66148   0.50444   0.23261   0.00000  Uiso   1.00
C339   C     0.34059   0.49286   0.26184   0.00000  Uiso   1.00
H340   H     0.65091   0.48732   0.29015   0.00000  Uiso   1.00
C341   C     0.51434   0.65554   0.23816   0.00000  Uiso   1.00
H342   H     0.54180   0.33624   0.21633   0.00000  Uiso   1.00
C343   C     0.48468   0.34538   0.26194   0.00000  Uiso   1.00
H344   H     0.45676   0.66541   0.28374   0.00000  Uiso   1.00
N345   N     0.42851   0.59661   0.04269   0.00000  Uiso   1.00
O346   O     0.44507   0.62305   0.06684   0.00000  Uiso   1.00
O347   O     0.38856   0.59775   0.04341   0.00000  Uiso   1.00
C348   C     0.36217   0.51478   0.19399   0.00000  Uiso   1.00
C349   C     0.34554   0.52416   0.16051   0.00000  Uiso   1.00
C350   C     0.38247   0.52923   0.12290   0.00000  Uiso   1.00
H351   H     0.40663   0.55580   0.12809   0.00000  Uiso   1.00
H352   H     0.39853   0.50018   0.11302   0.00000  Uiso   1.00
H353   H     0.36958   0.53575   0.09917   0.00000  Uiso   1.00
H354   H     0.65475   0.49806   0.15416   0.00000  Uiso   1.00
H355   H     0.66392   0.55388   0.16894   0.00000  Uiso   1.00
H356   H     0.38489   0.54206   0.20074   0.00000  Uiso   1.00
H357   H     0.38088   0.48754   0.18246   0.00000  Uiso   1.00
N358   N     0.48515   0.42321   0.43699   0.00000  Uiso   1.00
O359   O     0.44534   0.42306   0.43658   0.00000  Uiso   1.00
O360   O     0.50891   0.39687   0.41214   0.00000  Uiso   1.00
Zn361  Zn    0.85910   0.47423   0.28277   0.00000  Uiso   1.00
Zn362  Zn    0.80125   0.45711   0.22257   0.00000  Uiso   1.00
Zn363  Zn    0.87833   0.52997   0.21188   0.00000  Uiso   1.00
Zn364  Zn    0.79465   0.53868   0.28277   0.00000  Uiso   1.00
O365   O     0.83333   0.50000   0.25000   0.00000  Uiso   1.00
O366   O     0.73656   0.52293   0.27820   0.00000  Uiso   1.00
O367   O     0.92106   0.48610   0.26767   0.00000  Uiso   1.00
O368   O     0.80467   0.40236   0.23607   0.00000  Uiso   1.00
O369   O     0.87104   0.58860   0.21805   0.00000  Uiso   1.00
O370   O     0.82360   0.45726   0.16625   0.00000  Uiso   1.00
O371   O     0.79354   0.53979   0.33749   0.00000  Uiso   1.00
O372   O     0.87755   0.50826   0.15877   0.00000  Uiso   1.00
O373   O     0.83865   0.49468   0.33749   0.00000  Uiso   1.00
O374   O     0.84515   0.41434   0.27820   0.00000  Uiso   1.00
O375   O     0.81247   0.59469   0.26767   0.00000  Uiso   1.00
O376   O     0.74119   0.46584   0.23607   0.00000  Uiso   1.00
O377   O     0.93452   0.52512   0.21805   0.00000  Uiso   1.00
C378   C     0.71897   0.49301   0.25934   0.00000  Uiso   1.00
C379   C     0.94804   0.50571   0.23990   0.00000  Uiso   1.00
C380   C     0.82254   0.38946   0.25885   0.00000  Uiso   1.00
C381   C     0.84354   0.61104   0.24134   0.00000  Uiso   1.00
C382   C     0.85487   0.47850   0.14400   0.00000  Uiso   1.00
C383   C     0.81230   0.52144   0.35614   0.00000  Uiso   1.00
C384   C     0.80318   0.53097   0.39916   0.00000  Uiso   1.00
C385   C     0.86239   0.46962   0.10159   0.00000  Uiso   1.00
C386   C     0.77246   0.57377   0.45944   0.00000  Uiso   1.00
C387   C     0.77920   0.56377   0.41905   0.00000  Uiso   1.00
C388   C     0.81891   0.50745   0.42045   0.00000  Uiso   1.00
C389   C     0.80866   0.51412   0.46187   0.00000  Uiso   1.00
C390   C     0.78750   0.54967   0.48126   0.00000  Uiso   1.00
C391   C     0.82199   0.48814   0.48390   0.00000  Uiso   1.00
C392   C     0.82370   0.50369   0.02287   0.00000  Uiso   1.00
C393   C     0.80466   0.54057   0.04066   0.00000  Uiso   1.00
C394   C     0.78427   0.56179   0.02135   0.00000  Uiso   1.00
C395   C     0.83353   0.44717   0.46847   0.00000  Uiso   1.00
C396   C     0.85479   0.42681   0.48760   0.00000  Uiso   1.00
C397   C     0.86002   0.44326   0.02428   0.00000  Uiso   1.00
C398   C     0.84324   0.48115   0.04313   0.00000  Uiso   1.00
C399   C     0.87900   0.42017   0.04359   0.00000  Uiso   1.00
C400   C     0.87957   0.43299   0.08227   0.00000  Uiso   1.00
C401   C     0.84557   0.49410   0.08206   0.00000  Uiso   1.00
H402   H     0.83268   0.52177   0.09901   0.00000  Uiso   1.00
H403   H     0.89199   0.41358   0.09762   0.00000  Uiso   1.00
H404   H     0.86443   0.39613   0.47507   0.00000  Uiso   1.00
H405   H     0.75651   0.60124   0.47296   0.00000  Uiso   1.00
H406   H     0.76715   0.58287   0.40316   0.00000  Uiso   1.00
H407   H     0.84046   0.48481   0.40415   0.00000  Uiso   1.00
H408   H     0.80345   0.55312   0.07042   0.00000  Uiso   1.00
H409   H     0.89157   0.39109   0.02938   0.00000  Uiso   1.00
C410   C     0.99482   0.50444   0.23261   0.00000  Uiso   1.00
C411   C     0.67392   0.49286   0.26184   0.00000  Uiso   1.00
H412   H     0.98424   0.48732   0.29015   0.00000  Uiso   1.00
C413   C     0.84768   0.65554   0.23816   0.00000  Uiso   1.00
H414   H     0.87513   0.33624   0.21633   0.00000  Uiso   1.00
C415   C     0.81801   0.34538   0.26194   0.00000  Uiso   1.00
H416   H     0.79009   0.66541   0.28374   0.00000  Uiso   1.00
N417   N     0.76185   0.59661   0.04269   0.00000  Uiso   1.00
O418   O     0.77840   0.62305   0.06684   0.00000  Uiso   1.00
O419   O     0.72189   0.59775   0.04341   0.00000  Uiso   1.00
C420   C     0.69550   0.51478   0.19399   0.00000  Uiso   1.00
C421   C     0.67887   0.52416   0.16051   0.00000  Uiso   1.00
C422   C     0.71581   0.52923   0.12290   0.00000  Uiso   1.00
H423   H     0.73996   0.55580   0.12809   0.00000  Uiso   1.00
H424   H     0.73186   0.50018   0.11302   0.00000  Uiso   1.00
H425   H     0.70291   0.53575   0.09917   0.00000  Uiso   1.00
H426   H     0.98809   0.49806   0.15416   0.00000  Uiso   1.00
H427   H     0.99726   0.55388   0.16894   0.00000  Uiso   1.00
H428   H     0.71823   0.54206   0.20074   0.00000  Uiso   1.00
H429   H     0.71422   0.48754   0.18246   0.00000  Uiso   1.00
N430   N     0.81849   0.42321   0.43699   0.00000  Uiso   1.00
O431   O     0.77867   0.42306   0.43658   0.00000  Uiso   1.00
O432   O     0.84225   0.39687   0.41214   0.00000  Uiso   1.00
Zn433  Zn    0.19244   0.80756   0.28277   0.00000  Uiso   1.00
Zn434  Zn    0.13459   0.79044   0.22257   0.00000  Uiso   1.00
Zn435  Zn    0.21166   0.86331   0.21188   0.00000  Uiso   1.00
Zn436  Zn    0.12798   0.87202   0.28277   0.00000  Uiso   1.00
O437   O     0.16667   0.83333   0.25000   0.00000  Uiso   1.00
O438   O     0.06990   0.85627   0.27820   0.00000  Uiso   1.00
O439   O     0.25440   0.81944   0.26767   0.00000  Uiso   1.00
O440   O     0.13800   0.73570   0.23607   0.00000  Uiso   1.00
O441   O     0.20437   0.92193   0.21805   0.00000  Uiso   1.00
O442   O     0.15693   0.79060   0.16625   0.00000  Uiso   1.00
O443   O     0.12687   0.87313   0.33749   0.00000  Uiso   1.00
O444   O     0.21088   0.84159   0.15877   0.00000  Uiso   1.00
O445   O     0.17198   0.82802   0.33749   0.00000  Uiso   1.00
O446   O     0.17849   0.74768   0.27820   0.00000  Uiso   1.00
O447   O     0.14581   0.92803   0.26767   0.00000  Uiso   1.00
O448   O     0.07452   0.79917   0.23607   0.00000  Uiso   1.00
O449   O     0.26785   0.85845   0.21805   0.00000  Uiso   1.00
C450   C     0.05230   0.82635   0.25934   0.00000  Uiso   1.00
C451   C     0.28138   0.83904   0.23990   0.00000  Uiso   1.00
C452   C     0.15587   0.72279   0.25885   0.00000  Uiso   1.00
C453   C     0.17687   0.94437   0.24134   0.00000  Uiso   1.00
C454   C     0.18820   0.81183   0.14400   0.00000  Uiso   1.00
C455   C     0.14564   0.85477   0.35614   0.00000  Uiso   1.00
C456   C     0.13651   0.86431   0.39916   0.00000  Uiso   1.00
C457   C     0.19572   0.80295   0.10159   0.00000  Uiso   1.00
C458   C     0.10579   0.90711   0.45944   0.00000  Uiso   1.00
C459   C     0.11254   0.89710   0.41905   0.00000  Uiso   1.00
C460   C     0.15225   0.84078   0.42045   0.00000  Uiso   1.00
C461   C     0.14199   0.84745   0.46187   0.00000  Uiso   1.00
C462   C     0.12083   0.88301   0.48126   0.00000  Uiso   1.00
C463   C     0.15533   0.82147   0.48390   0.00000  Uiso   1.00
C464   C     0.15703   0.83702   0.02287   0.00000  Uiso   1.00
C465   C     0.13800   0.87391   0.04066   0.00000  Uiso   1.00
C466   C     0.11760   0.89513   0.02135   0.00000  Uiso   1.00
C467   C     0.16686   0.78051   0.46847   0.00000  Uiso   1.00
C468   C     0.18813   0.76014   0.48760   0.00000  Uiso   1.00
C469   C     0.19336   0.77660   0.02428   0.00000  Uiso   1.00
C470   C     0.17658   0.81448   0.04313   0.00000  Uiso   1.00
C471   C     0.21233   0.75350   0.04359   0.00000  Uiso   1.00
C472   C     0.21291   0.76632   0.08227   0.00000  Uiso   1.00
C473   C     0.17890   0.82743   0.08206   0.00000  Uiso   1.00
H474   H     0.16601   0.85510   0.09901   0.00000  Uiso   1.00
H475   H     0.22533   0.74692   0.09762   0.00000  Uiso   1.00
H476   H     0.19776   0.72946   0.47507   0.00000  Uiso   1.00
H477   H     0.08985   0.93457   0.47296   0.00000  Uiso   1.00
H478   H     0.10048   0.91620   0.40316   0.00000  Uiso   1.00
H479   H     0.17379   0.81814   0.40415   0.00000  Uiso   1.00
H480   H     0.13679   0.88645   0.07042   0.00000  Uiso   1.00
H481   H     0.22491   0.72442   0.02938   0.00000  Uiso   1.00
C482   C     0.32815   0.83778   0.23261   0.00000  Uiso   1.00
C483   C     0.00725   0.82619   0.26184   0.00000  Uiso   1.00
H484   H     0.31758   0.82065   0.29015   0.00000  Uiso   1.00
C485   C     0.18101   0.98888   0.23816   0.00000  Uiso   1.00
H486   H     0.20846   0.66957   0.21633   0.00000  Uiso   1.00
C487   C     0.15135   0.67872   0.26194   0.00000  Uiso   1.00
H488   H     0.12343   0.99875   0.28374   0.00000  Uiso   1.00
N489   N     0.09518   0.92995   0.04269   0.00000  Uiso   1.00
O490   O     0.11173   0.95638   0.06684   0.00000  Uiso   1.00
O491   O     0.05522   0.93108   0.04341   0.00000  Uiso   1.00
C492   C     0.02884   0.84812   0.19399   0.00000  Uiso   1.00
C493   C     0.01221   0.85749   0.16051   0.00000  Uiso   1.00
C494   C     0.04914   0.86256   0.12290   0.00000  Uiso   1.00
H495   H     0.07329   0.88913   0.12809   0.00000  Uiso   1.00
H496   H     0.06519   0.83351   0.11302   0.00000  Uiso   1.00
H497   H     0.03624   0.86908   0.09917   0.00000  Uiso   1.00
H498   H     0.32142   0.83140   0.15416   0.00000  Uiso   1.00
H499   H     0.33059   0.88722   0.16894   0.00000  Uiso   1.00
H500   H     0.05156   0.87540   0.20074   0.00000  Uiso   1.00
H501   H     0.04755   0.82087   0.18246   0.00000  Uiso   1.00
N502   N     0.15182   0.75654   0.43699   0.00000  Uiso   1.00
O503   O     0.11200   0.75640   0.43658   0.00000  Uiso   1.00
O504   O     0.17558   0.73020   0.41214   0.00000  Uiso   1.00
Zn505  Zn    0.52577   0.80756   0.28277   0.00000  Uiso   1.00
Zn506  Zn    0.46792   0.79044   0.22257   0.00000  Uiso   1.00
Zn507  Zn    0.54500   0.86331   0.21188   0.00000  Uiso   1.00
Zn508  Zn    0.46131   0.87202   0.28277   0.00000  Uiso   1.00
O509   O     0.50000   0.83333   0.25000   0.00000  Uiso   1.00
O510   O     0.40323   0.85627   0.27820   0.00000  Uiso   1.00
O511   O     0.58773   0.81944   0.26767   0.00000  Uiso   1.00
O512   O     0.47133   0.73570   0.23607   0.00000  Uiso   1.00
O513   O     0.53771   0.92193   0.21805   0.00000  Uiso   1.00
O514   O     0.49027   0.79060   0.16625   0.00000  Uiso   1.00
O515   O     0.46020   0.87313   0.33749   0.00000  Uiso   1.00
O516   O     0.54421   0.84159   0.15877   0.00000  Uiso   1.00
O517   O     0.50532   0.82802   0.33749   0.00000  Uiso   1.00
O518   O     0.51182   0.74768   0.27820   0.00000  Uiso   1.00
O519   O     0.47914   0.92803   0.26767   0.00000  Uiso   1.00
O520   O     0.40785   0.79917   0.23607   0.00000  Uiso   1.00
O521   O     0.60119   0.85845   0.21805   0.00000  Uiso   1.00
C522   C     0.38563   0.82635   0.25934   0.00000  Uiso   1.00
C523   C     0.61471   0.83904   0.23990   0.00000  Uiso   1.00
C524   C     0.48920   0.72279   0.25885   0.00000  Uiso   1.00
C525   C     0.51020   0.94437   0.24134   0.00000  Uiso   1.00
C526   C     0.52154   0.81183   0.14400   0.00000  Uiso   1.00
C527   C     0.47897   0.85477   0.35614   0.00000  Uiso   1.00
C528   C     0.46984   0.86431   0.39916   0.00000  Uiso   1.00
C529   C     0.52906   0.80295   0.10159   0.00000  Uiso   1.00
C530   C     0.43912   0.90711   0.45944   0.00000  Uiso   1.00
C531   C     0.44587   0.89710   0.41905   0.00000  Uiso   1.00
C532   C     0.48558   0.84078   0.42045   0.00000  Uiso   1.00
C533   C     0.47532   0.84745   0.46187   0.00000  Uiso   1.00
C534   C     0.45416   0.88301   0.48126   0.00000  Uiso   1.00
C535   C     0.48866   0.82147   0.48390   0.00000  Uiso   1.00
C536   C     0.49037   0.83702   0.02287   0.00000  Uiso   1.00
C537   C     0.47133   0.87391   0.04066   0.00000  Uiso   1.00
C538   C     0.45094   0.89513   0.02135   0.00000  Uiso   1.00
C539   C     0.50020   0.78051   0.46847   0.00000  Uiso   1.00
C540   C     0.52146   0.76014   0.48760   0.00000  Uiso   1.00
C541   C     0.52669   0.77660   0.02428   0.00000  Uiso   1.00
C542   C     0.50991   0.81448   0.04313   0.00000  Uiso   1.00
C543   C     0.54566   0.75350   0.04359   0.00000  Uiso   1.00
C544   C     0.54624   0.76632   0.08227   0.00000  Uiso   1.00
C545   C     0.51224   0.82743   0.08206   0.00000  Uiso   1.00
H546   H     0.49935   0.85510   0.09901   0.00000  Uiso   1.00
H547   H     0.55866   0.74692   0.09762   0.00000  Uiso   1.00
H548   H     0.53110   0.72946   0.47507   0.00000  Uiso   1.00
H549   H     0.42318   0.93457   0.47296   0.00000  Uiso   1.00
H550   H     0.43381   0.91620   0.40316   0.00000  Uiso   1.00
H551   H     0.50713   0.81814   0.40415   0.00000  Uiso   1.00
H552   H     0.47012   0.88645   0.07042   0.00000  Uiso   1.00
H553   H     0.55824   0.72442   0.02938   0.00000  Uiso   1.00
C554   C     0.66148   0.83778   0.23261   0.00000  Uiso   1.00
C555   C     0.34059   0.82619   0.26184   0.00000  Uiso   1.00
H556   H     0.65091   0.82065   0.29015   0.00000  Uiso   1.00
C557   C     0.51434   0.98888   0.23816   0.00000  Uiso   1.00
H558   H     0.54180   0.66957   0.21633   0.00000  Uiso   1.00
C559   C     0.48468   0.67872   0.26194   0.00000  Uiso   1.00
H560   H     0.45676   0.99875   0.28374   0.00000  Uiso   1.00
N561   N     0.42851   0.92995   0.04269   0.00000  Uiso   1.00
O562   O     0.44507   0.95638   0.06684   0.00000  Uiso   1.00
O563   O     0.38856   0.93108   0.04341   0.00000  Uiso   1.00
C564   C     0.36217   0.84812   0.19399   0.00000  Uiso   1.00
C565   C     0.34554   0.85749   0.16051   0.00000  Uiso   1.00
C566   C     0.38247   0.86256   0.12290   0.00000  Uiso   1.00
H567   H     0.40663   0.88913   0.12809   0.00000  Uiso   1.00
H568   H     0.39853   0.83351   0.11302   0.00000  Uiso   1.00
H569   H     0.36958   0.86908   0.09917   0.00000  Uiso   1.00
H570   H     0.65475   0.83140   0.15416   0.00000  Uiso   1.00
H571   H     0.66392   0.88722   0.16894   0.00000  Uiso   1.00
H572   H     0.38489   0.87540   0.20074   0.00000  Uiso   1.00
H573   H     0.38088   0.82087   0.18246   0.00000  Uiso   1.00
N574   N     0.48515   0.75654   0.43699   0.00000  Uiso   1.00
O575   O     0.44534   0.75640   0.43658   0.00000  Uiso   1.00
O576   O     0.50891   0.73020   0.41214   0.00000  Uiso   1.00
Zn577  Zn    0.85910   0.80756   0.28277   0.00000  Uiso   1.00
Zn578  Zn    0.80125   0.79044   0.22257   0.00000  Uiso   1.00
Zn579  Zn    0.87833   0.86331   0.21188   0.00000  Uiso   1.00
Zn580  Zn    0.79465   0.87202   0.28277   0.00000  Uiso   1.00
O581   O     0.83333   0.83333   0.25000   0.00000  Uiso   1.00
O582   O     0.73656   0.85627   0.27820   0.00000  Uiso   1.00
O583   O     0.92106   0.81944   0.26767   0.00000  Uiso   1.00
O584   O     0.80467   0.73570   0.23607   0.00000  Uiso   1.00
O585   O     0.87104   0.92193   0.21805   0.00000  Uiso   1.00
O586   O     0.82360   0.79060   0.16625   0.00000  Uiso   1.00
O587   O     0.79354   0.87313   0.33749   0.00000  Uiso   1.00
O588   O     0.87755   0.84159   0.15877   0.00000  Uiso   1.00
O589   O     0.83865   0.82802   0.33749   0.00000  Uiso   1.00
O590   O     0.84515   0.74768   0.27820   0.00000  Uiso   1.00
O591   O     0.81247   0.92803   0.26767   0.00000  Uiso   1.00
O592   O     0.74119   0.79917   0.23607   0.00000  Uiso   1.00
O593   O     0.93452   0.85845   0.21805   0.00000  Uiso   1.00
C594   C     0.71897   0.82635   0.25934   0.00000  Uiso   1.00
C595   C     0.94804   0.83904   0.23990   0.00000  Uiso   1.00
C596   C     0.82254   0.72279   0.25885   0.00000  Uiso   1.00
C597   C     0.84354   0.94437   0.24134   0.00000  Uiso   1.00
C598   C     0.85487   0.81183   0.14400   0.00000  Uiso   1.00
C599   C     0.81230   0.85477   0.35614   0.00000  Uiso   1.00
C600   C     0.80318   0.86431   0.39916   0.00000  Uiso   1.00
C601   C     0.86239   0.80295   0.10159   0.00000  Uiso   1.00
C602   C     0.77246   0.90711   0.45944   0.00000  Uiso   1.00
C603   C     0.77920   0.89710   0.41905   0.00000  Uiso   1.00
C604   C     0.81891   0.84078   0.42045   0.00000  Uiso   1.00
C605   C     0.80866   0.84745   0.46187   0.00000  Uiso   1.00
C606   C     0.78750   0.88301   0.48126   0.00000  Uiso   1.00
C607   C     0.82199   0.82147   0.48390   0.00000  Uiso   1.00
C608   C     0.82370   0.83702   0.02287   0.00000  Uiso   1.00
C609   C     0.80466   0.87391   0.04066   0.00000  Uiso   1.00
C610   C     0.78427   0.89513   0.02135   0.00000  Uiso   1.00
C611   C     0.83353   0.78051   0.46847   0.00000  Uiso   1.00
C612   C     0.85479   0.76014   0.48760   0.00000  Uiso   1.00
C613   C     0.86002   0.77660   0.02428   0.00000  Uiso   1.00
C614   C     0.84324   0.81448   0.04313   0.00000  Uiso   1.00
C615   C     0.87900   0.75350   0.04359   0.00000  Uiso   1.00
C616   C     0.87957   0.76632   0.08227   0.00000  Uiso   1.00
C617   C     0.84557   0.82743   0.08206   0.00000  Uiso   1.00
H618   H     0.83268   0.85510   0.09901   0.00000  Uiso   1.00
H619   H     0.89199   0.74692   0.09762   0.00000  Uiso   1.00
H620   H     0.86443   0.72946   0.47507   0.00000  Uiso   1.00
H621   H     0.75651   0.93457   0.47296   0.00000  Uiso   1.00
H622   H     0.76715   0.91620   0.40316   0.00000  Uiso   1.00
H623   H     0.84046   0.81814   0.40415   0.00000  Uiso   1.00
H624   H     0.80345   0.88645   0.07042   0.00000  Uiso   1.00
H625   H     0.89157   0.72442   0.02938   0.00000  Uiso   1.00
C626   C     0.99482   0.83778   0.23261   0.00000  Uiso   1.00
C627   C     0.67392   0.82619   0.26184   0.00000  Uiso   1.00
H628   H     0.98424   0.82065   0.29015   0.00000  Uiso   1.00
C629   C     0.84768   0.98888   0.23816   0.00000  Uiso   1.00
H630   H     0.87513   0.66957   0.21633   0.00000  Uiso   1.00
C631   C     0.81801   0.67872   0.26194   0.00000  Uiso   1.00
H632   H     0.79009   0.99875   0.28374   0.00000  Uiso   1.00
N633   N     0.76185   0.92995   0.04269   0.00000  Uiso   1.00
O634   O     0.77840   0.95638   0.06684   0.00000  Uiso   1.00
O635   O     0.72189   0.93108   0.04341   0.00000  Uiso   1.00
C636   C     0.69550   0.84812   0.19399   0.00000  Uiso   1.00
C637   C     0.67887   0.85749   0.16051   0.00000  Uiso   1.00
C638   C     0.71581   0.86256   0.12290   0.00000  Uiso   1.00
H639   H     0.73996   0.88913   0.12809   0.00000  Uiso   1.00
H640   H     0.73186   0.83351   0.11302   0.00000  Uiso   1.00
H641   H     0.70291   0.86908   0.09917   0.00000  Uiso   1.00
H642   H     0.98809   0.83140   0.15416   0.00000  Uiso   1.00
H643   H     0.99726   0.88722   0.16894   0.00000  Uiso   1.00
H644   H     0.71823   0.87540   0.20074   0.00000  Uiso   1.00
H645   H     0.71422   0.82087   0.18246   0.00000  Uiso   1.00
N646   N     0.81849   0.75654   0.43699   0.00000  Uiso   1.00
O647   O     0.77867   0.75640   0.43658   0.00000  Uiso   1.00
O648   O     0.84225   0.73020   0.41214   0.00000  Uiso   1.00
Zn649  Zn    0.19244   0.14090   0.78277   0.00000  Uiso   1.00
Zn650  Zn    0.13459   0.12378   0.72257   0.00000  Uiso   1.00
Zn651  Zn    0.21166   0.19664   0.71188   0.00000  Uiso   1.00
Zn652  Zn    0.12798   0.20535   0.78277   0.00000  Uiso   1.00
O653   O     0.16667   0.16667   0.75000   0.00000  Uiso   1.00
O654   O     0.06990   0.18960   0.77820   0.00000  Uiso   1.00
O655   O     0.25440   0.15277   0.76767   0.00000  Uiso   1.00
O656   O     0.13800   0.06903   0.73607   0.00000  Uiso   1.00
O657   O     0.20437   0.25527   0.71805   0.00000  Uiso   1.00
O658   O     0.15693   0.12393   0.66625   0.00000  Uiso   1.00
O659   O     0.12687   0.20646   0.83749   0.00000  Uiso   1.00
O660   O     0.21088   0.17493   0.65877   0.00000  Uiso   1.00
O661   O     0.17198   0.16135   0.83749   0.00000  Uiso   1.00
O662   O     0.17849   0.08101   0.77820   0.00000  Uiso   1.00
O663   O     0.14581   0.26136   0.76767   0.00000  Uiso   1.00
O664   O     0.07452   0.13251   0.73607   0.00000  Uiso   1.00
O665   O     0.26785   0.19179   0.71805   0.00000  Uiso   1.00
C666   C     0.05230   0.15968   0.75934   0.00000  Uiso   1.00
C667   C     0.28138   0.17237   0.73990   0.00000  Uiso   1.00
C668   C     0.15587   0.05612   0.75885   0.00000  Uiso   1.00
C669   C     0.17687   0.27770   0.74134   0.00000  Uiso   1.00
C670   C     0.18820   0.14517   0.64400   0.00000  Uiso   1.00
C671   C     0.14564   0.18811   0.85614   0.00000  Uiso   1.00
C672   C     0.13651   0.19764   0.89916   0.00000  Uiso   1.00
C673   C     0.19572   0.13628   0.60159   0.00000  Uiso   1.00
C674   C     0.10579   0.24044   0.95944   0.00000  Uiso   1.00
C675   C     0.11254   0.23043   0.91905   0.00000  Uiso   1.00
C676   C     0.15225   0.17412   0.92045   0.00000  Uiso   1.00
C677   C     0.14199   0.18078   0.96187   0.00000  Uiso   1.00
C678   C     0.12083   0.21634   0.98126   0.00000  Uiso   1.00
C679   C     0.15533   0.15481   0.98390   0.00000  Uiso   1.00
C680   C     0.15703   0.17035   0.52287   0.00000  Uiso   1.00
C681   C     0.13800   0.20724   0.54066   0.00000  Uiso   1.00
C682   C     0.11760   0.22846   0.52135   0.00000  Uiso   1.00
C683   C     0.16686   0.11384   0.96847   0.00000  Uiso   1.00
C684   C     0.18813   0.09348   0.98760   0.00000  Uiso   1.00
C685   C     0.19336   0.10993   0.52428   0.00000  Uiso   1.00
C686   C     0.17658   0.14781   0.54313   0.00000  Uiso   1.00
C687   C     0.21233   0.08684   0.54359   0.00000  Uiso   1.00
C688   C     0.21291   0.09965   0.58227   0.00000  Uiso   1.00
C689   C     0.17890   0.16077   0.58206   0.00000  Uiso   1.00
H690   H     0.16601   0.18844   0.59901   0.00000  Uiso   1.00
H691   H     0.22533   0.08025   0.59762   0.00000  Uiso   1.00
H692   H     0.19776   0.06280   0.97507   0.00000  Uiso   1.00
H693   H     0.08985   0.26790   0.97296   0.00000  Uiso   1.00
H694   H     0.10048   0.24954   0.90316   0.00000  Uiso   1.00
H695   H     0.17379   0.15148   0.90415   0.00000  Uiso   1.00
H696   H     0.13679   0.21978   0.57042   0.00000  Uiso   1.00
H697   H     0.22491   0.05775   0.52938   0.00000  Uiso   1.00
C698   C     0.32815   0.17111   0.73261   0.00000  Uiso   1.00
C699   C     0.00725   0.15952   0.76184   0.00000  Uiso   1.00
H700   H     0.31758   0.15399   0.79015   0.00000  Uiso   1.00
C701   C     0.18101   0.32221   0.73816   0.00000  Uiso   1.00
H702   H     0.20846   0.00291   0.71633   0.00000  Uiso   1.00
C703   C     0.15135   0.01205   0.76194   0.00000  Uiso   1.00
H704   H     0.12343   0.33208   0.78374   0.00000  Uiso   1.00
N705   N     0.09518   0.26328   0.54269   0.00000  Uiso   1.00
O706   O     0.11173   0.28972   0.56684   0.00000  Uiso   1.00
O707   O     0.05522   0.26441   0.54341   0.00000  Uiso   1.00
C708   C     0.02884   0.18145   0.69399   0.00000  Uiso   1.00
C709   C     0.01221   0.19082   0.66051   0.00000  Uiso   1.00
C710   C     0.04914   0.19590   0.62290   0.00000  Uiso   1.00
H711   H     0.07329   0.22246   0.62809   0.00000  Uiso   1.00
H712   H     0.06519   0.16685   0.61302   0.00000  Uiso   1.00
H713   H     0.03624   0.20241   0.59917   0.00000  Uiso   1.00
H714   H     0.32142   0.16473   0.65416   0.00000  Uiso   1.00
H715   H     0.33059   0.22055   0.66894   0.00000  Uiso   1.00
H716   H     0.05156   0.20873   0.70074   0.00000  Uiso   1.00
H717   H     0.04755   0.15421   0.68246   0.00000  Uiso   1.00
N718   N     0.15182   0.08987   0.93699   0.00000  Uiso   1.00
O719   O     0.11200   0.08973   0.93658   0.00000  Uiso   1.00
O720   O     0.17558   0.06354   0.91214   0.00000  Uiso   1.00
Zn721  Zn    0.52577   0.14090   0.78277   0.00000  Uiso   1.00
Zn722  Zn    0.46792   0.12378   0.72257   0.00000  Uiso   1.00
Zn723  Zn    0.54500   0.19664   0.71188   0.00000  Uiso   1.00
Zn724  Zn    0.46131   0.20535   0.78277   0.00000  Uiso   1.00
O725   O     0.50000   0.16667   0.75000   0.00000  Uiso   1.00
O726   O     0.40323   0.18960   0.77820   0.00000  Uiso   1.00
O727   O     0.58773   0.15277   0.76767   0.00000  Uiso   1.00
O728   O     0.47133   0.06903   0.73607   0.00000  Uiso   1.00
O729   O     0.53771   0.25527   0.71805   0.00000  Uiso   1.00
O730   O     0.49027   0.12393   0.66625   0.00000  Uiso   1.00
O731   O     0.46020   0.20646   0.83749   0.00000  Uiso   1.00
O732   O     0.54421   0.17493   0.65877   0.00000  Uiso   1.00
O733   O     0.50532   0.16135   0.83749   0.00000  Uiso   1.00
O734   O     0.51182   0.08101   0.77820   0.00000  Uiso   1.00
O735   O     0.47914   0.26136   0.76767   0.00000  Uiso   1.00
O736   O     0.40785   0.13251   0.73607   0.00000  Uiso   1.00
O737   O     0.60119   0.19179   0.71805   0.00000  Uiso   1.00
C738   C     0.38563   0.15968   0.75934   0.00000  Uiso   1.00
C739   C     0.61471   0.17237   0.73990   0.00000  Uiso   1.00
C740   C     0.48920   0.05612   0.75885   0.00000  Uiso   1.00
C741   C     0.51020   0.27770   0.74134   0.00000  Uiso   1.00
C742   C     0.52154   0.14517   0.64400   0.00000  Uiso   1.00
C743   C     0.47897   0.18811   0.85614   0.00000  Uiso   1.00
C744   C     0.46984   0.19764   0.89916   0.00000  Uiso   1.00
C745   C     0.52906   0.13628   0.60159   0.00000  Uiso   1.00
C746   C     0.43912   0.24044   0.95944   0.00000  Uiso   1.00
C747   C     0.44587   0.23043   0.91905   0.00000  Uiso   1.00
C748   C     0.48558   0.17412   0.92045   0.00000  Uiso   1.00
C749   C     0.47532   0.18078   0.96187   0.00000  Uiso   1.00
C750   C     0.45416   0.21634   0.98126   0.00000  Uiso   1.00
C751   C     0.48866   0.15481   0.98390   0.00000  Uiso   1.00
C752   C     0.49037   0.17035   0.52287   0.00000  Uiso   1.00
C753   C     0.47133   0.20724   0.54066   0.00000  Uiso   1.00
C754   C     0.45094   0.22846   0.52135   0.00000  Uiso   1.00
C755   C     0.50020   0.11384   0.96847   0.00000  Uiso   1.00
C756   C     0.52146   0.09348   0.98760   0.00000  Uiso   1.00
C757   C     0.52669   0.10993   0.52428   0.00000  Uiso   1.00
C758   C     0.50991   0.14781   0.54313   0.00000  Uiso   1.00
C759   C     0.54566   0.08684   0.54359   0.00000  Uiso   1.00
C760   C     0.54624   0.09965   0.58227   0.00000  Uiso   1.00
C761   C     0.51224   0.16077   0.58206   0.00000  Uiso   1.00
H762   H     0.49935   0.18844   0.59901   0.00000  Uiso   1.00
H763   H     0.55866   0.08025   0.59762   0.00000  Uiso   1.00
H764   H     0.53110   0.06280   0.97507   0.00000  Uiso   1.00
H765   H     0.42318   0.26790   0.97296   0.00000  Uiso   1.00
H766   H     0.43381   0.24954   0.90316   0.00000  Uiso   1.00
H767   H     0.50713   0.15148   0.90415   0.00000  Uiso   1.00
H768   H     0.47012   0.21978   0.57042   0.00000  Uiso   1.00
H769   H     0.55824   0.05775   0.52938   0.00000  Uiso   1.00
C770   C     0.66148   0.17111   0.73261   0.00000  Uiso   1.00
C771   C     0.34059   0.15952   0.76184   0.00000  Uiso   1.00
H772   H     0.65091   0.15399   0.79015   0.00000  Uiso   1.00
C773   C     0.51434   0.32221   0.73816   0.00000  Uiso   1.00
H774   H     0.54180   0.00291   0.71633   0.00000  Uiso   1.00
C775   C     0.48468   0.01205   0.76194   0.00000  Uiso   1.00
H776   H     0.45676   0.33208   0.78374   0.00000  Uiso   1.00
N777   N     0.42851   0.26328   0.54269   0.00000  Uiso   1.00
O778   O     0.44507   0.28972   0.56684   0.00000  Uiso   1.00
O779   O     0.38856   0.26441   0.54341   0.00000  Uiso   1.00
C780   C     0.36217   0.18145   0.69399   0.00000  Uiso   1.00
C781   C     0.34554   0.19082   0.66051   0.00000  Uiso   1.00
C782   C     0.38247   0.19590   0.62290   0.00000  Uiso   1.00
H783   H     0.40663   0.22246   0.62809   0.00000  Uiso   1.00
H784   H     0.39853   0.16685   0.61302   0.00000  Uiso   1.00
H785   H     0.36958   0.20241   0.59917   0.00000  Uiso   1.00
H786   H     0.65475   0.16473   0.65416   0.00000  Uiso   1.00
H787   H     0.66392   0.22055   0.66894   0.00000  Uiso   1.00
H788   H     0.38489   0.20873   0.70074   0.00000  Uiso   1.00
H789   H     0.38088   0.15421   0.68246   0.00000  Uiso   1.00
N790   N     0.48515   0.08987   0.93699   0.00000  Uiso   1.00
O791   O     0.44534   0.08973   0.93658   0.00000  Uiso   1.00
O792   O     0.50891   0.06354   0.91214   0.00000  Uiso   1.00
Zn793  Zn    0.85910   0.14090   0.78277   0.00000  Uiso   1.00
Zn794  Zn    0.80125   0.12378   0.72257   0.00000  Uiso   1.00
Zn795  Zn    0.87833   0.19664   0.71188   0.00000  Uiso   1.00
Zn796  Zn    0.79465   0.20535   0.78277   0.00000  Uiso   1.00
O797   O     0.83333   0.16667   0.75000   0.00000  Uiso   1.00
O798   O     0.73656   0.18960   0.77820   0.00000  Uiso   1.00
O799   O     0.92106   0.15277   0.76767   0.00000  Uiso   1.00
O800   O     0.80467   0.06903   0.73607   0.00000  Uiso   1.00
O801   O     0.87104   0.25527   0.71805   0.00000  Uiso   1.00
O802   O     0.82360   0.12393   0.66625   0.00000  Uiso   1.00
O803   O     0.79354   0.20646   0.83749   0.00000  Uiso   1.00
O804   O     0.87755   0.17493   0.65877   0.00000  Uiso   1.00
O805   O     0.83865   0.16135   0.83749   0.00000  Uiso   1.00
O806   O     0.84515   0.08101   0.77820   0.00000  Uiso   1.00
O807   O     0.81247   0.26136   0.76767   0.00000  Uiso   1.00
O808   O     0.74119   0.13251   0.73607   0.00000  Uiso   1.00
O809   O     0.93452   0.19179   0.71805   0.00000  Uiso   1.00
C810   C     0.71897   0.15968   0.75934   0.00000  Uiso   1.00
C811   C     0.94804   0.17237   0.73990   0.00000  Uiso   1.00
C812   C     0.82254   0.05612   0.75885   0.00000  Uiso   1.00
C813   C     0.84354   0.27770   0.74134   0.00000  Uiso   1.00
C814   C     0.85487   0.14517   0.64400   0.00000  Uiso   1.00
C815   C     0.81230   0.18811   0.85614   0.00000  Uiso   1.00
C816   C     0.80318   0.19764   0.89916   0.00000  Uiso   1.00
C817   C     0.86239   0.13628   0.60159   0.00000  Uiso   1.00
C818   C     0.77246   0.24044   0.95944   0.00000  Uiso   1.00
C819   C     0.77920   0.23043   0.91905   0.00000  Uiso   1.00
C820   C     0.81891   0.17412   0.92045   0.00000  Uiso   1.00
C821   C     0.80866   0.18078   0.96187   0.00000  Uiso   1.00
C822   C     0.78750   0.21634   0.98126   0.00000  Uiso   1.00
C823   C     0.82199   0.15481   0.98390   0.00000  Uiso   1.00
C824   C     0.82370   0.17035   0.52287   0.00000  Uiso   1.00
C825   C     0.80466   0.20724   0.54066   0.00000  Uiso   1.00
C826   C     0.78427   0.22846   0.52135   0.00000  Uiso   1.00
C827   C     0.83353   0.11384   0.96847   0.00000  Uiso   1.00
C828   C     0.85479   0.09348   0.98760   0.00000  Uiso   1.00
C829   C     0.86002   0.10993   0.52428   0.00000  Uiso   1.00
C830   C     0.84324   0.14781   0.54313   0.00000  Uiso   1.00
C831   C     0.87900   0.08684   0.54359   0.00000  Uiso   1.00
C832   C     0.87957   0.09965   0.58227   0.00000  Uiso   1.00
C833   C     0.84557   0.16077   0.58206   0.00000  Uiso   1.00
H834   H     0.83268   0.18844   0.59901   0.00000  Uiso   1.00
H835   H     0.89199   0.08025   0.59762   0.00000  Uiso   1.00
H836   H     0.86443   0.06280   0.97507   0.00000  Uiso   1.00
H837   H     0.75651   0.26790   0.97296   0.00000  Uiso   1.00
H838   H     0.76715   0.24954   0.90316   0.00000  Uiso   1.00
H839   H     0.84046   0.15148   0.90415   0.00000  Uiso   1.00
H840   H     0.80345   0.21978   0.57042   0.00000  Uiso   1.00
H841   H     0.89157   0.05775   0.52938   0.00000  Uiso   1.00
C842   C     0.99482   0.17111   0.73261   0.00000  Uiso   1.00
C843   C     0.67392   0.15952   0.76184   0.00000  Uiso   1.00
H844   H     0.98424   0.15399   0.79015   0.00000  Uiso   1.00
C845   C     0.84768   0.32221   0.73816   0.00000  Uiso   1.00
H846   H     0.87513   0.00291   0.71633   0.00000  Uiso   1.00
C847   C     0.81801   0.01205   0.76194   0.00000  Uiso   1.00
H848   H     0.79009   0.33208   0.78374   0.00000  Uiso   1.00
N849   N     0.76185   0.26328   0.54269   0.00000  Uiso   1.00
O850   O     0.77840   0.28972   0.56684   0.00000  Uiso   1.00
O851   O     0.72189   0.26441   0.54341   0.00000  Uiso   1.00
C852   C     0.69550   0.18145   0.69399   0.00000  Uiso   1.00
C853   C     0.67887   0.19082   0.66051   0.00000  Uiso   1.00
C854   C     0.71581   0.19590   0.62290   0.00000  Uiso   1.00
H855   H     0.73996   0.22246   0.62809   0.00000  Uiso   1.00
H856   H     0.73186   0.16685   0.61302   0.00000  Uiso   1.00
H857   H     0.70291   0.20241   0.59917   0.00000  Uiso   1.00
H858   H     0.98809   0.16473   0.65416   0.00000  Uiso   1.00
H859   H     0.99726   0.22055   0.66894   0.00000  Uiso   1.00
H860   H     0.71823   0.20873   0.70074   0.00000  Uiso   1.00
H861   H     0.71422   0.15421   0.68246   0.00000  Uiso   1.00
N862   N     0.81849   0.08987   0.93699   0.00000  Uiso   1.00
O863   O     0.77867   0.08973   0.93658   0.00000  Uiso   1.00
O864   O     0.84225   0.06354   0.91214   0.00000  Uiso   1.00
Zn865  Zn    0.19244   0.47423   0.78277   0.00000  Uiso   1.00
Zn866  Zn    0.13459   0.45711   0.72257   0.00000  Uiso   1.00
Zn867  Zn    0.21166   0.52997   0.71188   0.00000  Uiso   1.00
Zn868  Zn    0.12798   0.53868   0.78277   0.00000  Uiso   1.00
O869   O     0.16667   0.50000   0.75000   0.00000  Uiso   1.00
O870   O     0.06990   0.52293   0.77820   0.00000  Uiso   1.00
O871   O     0.25440   0.48610   0.76767   0.00000  Uiso   1.00
O872   O     0.13800   0.40236   0.73607   0.00000  Uiso   1.00
O873   O     0.20437   0.58860   0.71805   0.00000  Uiso   1.00
O874   O     0.15693   0.45726   0.66625   0.00000  Uiso   1.00
O875   O     0.12687   0.53979   0.83749   0.00000  Uiso   1.00
O876   O     0.21088   0.50826   0.65877   0.00000  Uiso   1.00
O877   O     0.17198   0.49468   0.83749   0.00000  Uiso   1.00
O878   O     0.17849   0.41434   0.77820   0.00000  Uiso   1.00
O879   O     0.14581   0.59469   0.76767   0.00000  Uiso   1.00
O880   O     0.07452   0.46584   0.73607   0.00000  Uiso   1.00
O881   O     0.26785   0.52512   0.71805   0.00000  Uiso   1.00
C882   C     0.05230   0.49301   0.75934   0.00000  Uiso   1.00
C883   C     0.28138   0.50571   0.73990   0.00000  Uiso   1.00
C884   C     0.15587   0.38946   0.75885   0.00000  Uiso   1.00
C885   C     0.17687   0.61104   0.74134   0.00000  Uiso   1.00
C886   C     0.18820   0.47850   0.64400   0.00000  Uiso   1.00
C887   C     0.14564   0.52144   0.85614   0.00000  Uiso   1.00
C888   C     0.13651   0.53097   0.89916   0.00000  Uiso   1.00
C889   C     0.19572   0.46962   0.60159   0.00000  Uiso   1.00
C890   C     0.10579   0.57377   0.95944   0.00000  Uiso   1.00
C891   C     0.11254   0.56377   0.91905   0.00000  Uiso   1.00
C892   C     0.15225   0.50745   0.92045   0.00000  Uiso   1.00
C893   C     0.14199   0.51412   0.96187   0.00000  Uiso   1.00
C894   C     0.12083   0.54967   0.98126   0.00000  Uiso   1.00
C895   C     0.15533   0.48814   0.98390   0.00000  Uiso   1.00
C896   C     0.15703   0.50369   0.52287   0.00000  Uiso   1.00
C897   C     0.13800   0.54057   0.54066   0.00000  Uiso   1.00
C898   C     0.11760   0.56179   0.52135   0.00000  Uiso   1.00
C899   C     0.16686   0.44717   0.96847   0.00000  Uiso   1.00
C900   C     0.18813   0.42681   0.98760   0.00000  Uiso   1.00
C901   C     0.19336   0.44326   0.52428   0.00000  Uiso   1.00
C902   C     0.17658   0.48115   0.54313   0.00000  Uiso   1.00
C903   C     0.21233   0.42017   0.54359   0.00000  Uiso   1.00
C904   C     0.21291   0.43299   0.58227   0.00000  Uiso   1.00
C905   C     0.17890   0.49410   0.58206   0.00000  Uiso   1.00
H906   H     0.16601   0.52177   0.59901   0.00000  Uiso   1.00
H907   H     0.22533   0.41358   0.59762   0.00000  Uiso   1.00
H908   H     0.19776   0.39613   0.97507   0.00000  Uiso   1.00
H909   H     0.08985   0.60124   0.97296   0.00000  Uiso   1.00
H910   H     0.10048   0.58287   0.90316   0.00000  Uiso   1.00
H911   H     0.17379   0.48481   0.90415   0.00000  Uiso   1.00
H912   H     0.13679   0.55312   0.57042   0.00000  Uiso   1.00
H913   H     0.22491   0.39109   0.52938   0.00000  Uiso   1.00
C914   C     0.32815   0.50444   0.73261   0.00000  Uiso   1.00
C915   C     0.00725   0.49286   0.76184   0.00000  Uiso   1.00
H916   H     0.31758   0.48732   0.79015   0.00000  Uiso   1.00
C917   C     0.18101   0.65554   0.73816   0.00000  Uiso   1.00
H918   H     0.20846   0.33624   0.71633   0.00000  Uiso   1.00
C919   C     0.15135   0.34538   0.76194   0.00000  Uiso   1.00
H920   H     0.12343   0.66541   0.78374   0.00000  Uiso   1.00
N921   N     0.09518   0.59661   0.54269   0.00000  Uiso   1.00
O922   O     0.11173   0.62305   0.56684   0.00000  Uiso   1.00
O923   O     0.05522   0.59775   0.54341   0.00000  Uiso   1.00
C924   C     0.02884   0.51478   0.69399   0.00000  Uiso   1.00
C925   C     0.01221   0.52416   0.66051   0.00000  Uiso   1.00
C926   C     0.04914   0.52923   0.62290   0.00000  Uiso   1.00
H927   H     0.07329   0.55580   0.62809   0.00000  Uiso   1.00
H928   H     0.06519   0.50018   0.61302   0.00000  Uiso   1.00
H929   H     0.03624   0.53575   0.59917   0.00000  Uiso   1.00
H930   H     0.32142   0.49806   0.65416   0.00000  Uiso   1.00
H931   H     0.33059   0.55388   0.66894   0.00000  Uiso   1.00
H932   H     0.05156   0.54206   0.70074   0.00000  Uiso   1.00
H933   H     0.04755   0.48754   0.68246   0.00000  Uiso   1.00
N934   N     0.15182   0.42321   0.93699   0.00000  Uiso   1.00
O935   O     0.11200   0.42306   0.93658   0.00000  Uiso   1.00
O936   O     0.17558   0.39687   0.91214   0.00000  Uiso   1.00
Zn937  Zn    0.52577   0.47423   0.78277   0.00000  Uiso   1.00
Zn938  Zn    0.46792   0.45711   0.72257   0.00000  Uiso   1.00
Zn939  Zn    0.54500   0.52997   0.71188   0.00000  Uiso   1.00
Zn940  Zn    0.46131   0.53868   0.78277   0.00000  Uiso   1.00
O941   O     0.50000   0.50000   0.75000   0.00000  Uiso   1.00
O942   O     0.40323   0.52293   0.77820   0.00000  Uiso   1.00
O943   O     0.58773   0.48610   0.76767   0.00000  Uiso   1.00
O944   O     0.47133   0.40236   0.73607   0.00000  Uiso   1.00
O945   O     0.53771   0.58860   0.71805   0.00000  Uiso   1.00
O946   O     0.49027   0.45726   0.66625   0.00000  Uiso   1.00
O947   O     0.46020   0.53979   0.83749   0.00000  Uiso   1.00
O948   O     0.54421   0.50826   0.65877   0.00000  Uiso   1.00
O949   O     0.50532   0.49468   0.83749   0.00000  Uiso   1.00
O950   O     0.51182   0.41434   0.77820   0.00000  Uiso   1.00
O951   O     0.47914   0.59469   0.76767   0.00000  Uiso   1.00
O952   O     0.40785   0.46584   0.73607   0.00000  Uiso   1.00
O953   O     0.60119   0.52512   0.71805   0.00000  Uiso   1.00
C954   C     0.38563   0.49301   0.75934   0.00000  Uiso   1.00
C955   C     0.61471   0.50571   0.73990   0.00000  Uiso   1.00
C956   C     0.48920   0.38946   0.75885   0.00000  Uiso   1.00
C957   C     0.51020   0.61104   0.74134   0.00000  Uiso   1.00
C958   C     0.52154   0.47850   0.64400   0.00000  Uiso   1.00
C959   C     0.47897   0.52144   0.85614   0.00000  Uiso   1.00
C960   C     0.46984   0.53097   0.89916   0.00000  Uiso   1.00
C961   C     0.52906   0.46962   0.60159   0.00000  Uiso   1.00
C962   C     0.43912   0.57377   0.95944   0.00000  Uiso   1.00
C963   C     0.44587   0.56377   0.91905   0.00000  Uiso   1.00
C964   C     0.48558   0.50745   0.92045   0.00000  Uiso   1.00
C965   C     0.47532   0.51412   0.96187   0.00000  Uiso   1.00
C966   C     0.45416   0.54967   0.98126   0.00000  Uiso   1.00
C967   C     0.48866   0.48814   0.98390   0.00000  Uiso   1.00
C968   C     0.49037   0.50369   0.52287   0.00000  Uiso   1.00
C969   C     0.47133   0.54057   0.54066   0.00000  Uiso   1.00
C970   C     0.45094   0.56179   0.52135   0.00000  Uiso   1.00
C971   C     0.50020   0.44717   0.96847   0.00000  Uiso   1.00
C972   C     0.52146   0.42681   0.98760   0.00000  Uiso   1.00
C973   C     0.52669   0.44326   0.52428   0.00000  Uiso   1.00
C974   C     0.50991   0.48115   0.54313   0.00000  Uiso   1.00
C975   C     0.54566   0.42017   0.54359   0.00000  Uiso   1.00
C976   C     0.54624   0.43299   0.58227   0.00000  Uiso   1.00
C977   C     0.51224   0.49410   0.58206   0.00000  Uiso   1.00
H978   H     0.49935   0.52177   0.59901   0.00000  Uiso   1.00
H979   H     0.55866   0.41358   0.59762   0.00000  Uiso   1.00
H980   H     0.53110   0.39613   0.97507   0.00000  Uiso   1.00
H981   H     0.42318   0.60124   0.97296   0.00000  Uiso   1.00
H982   H     0.43381   0.58287   0.90316   0.00000  Uiso   1.00
H983   H     0.50713   0.48481   0.90415   0.00000  Uiso   1.00
H984   H     0.47012   0.55312   0.57042   0.00000  Uiso   1.00
H985   H     0.55824   0.39109   0.52938   0.00000  Uiso   1.00
C986   C     0.66148   0.50444   0.73261   0.00000  Uiso   1.00
C987   C     0.34059   0.49286   0.76184   0.00000  Uiso   1.00
H988   H     0.65091   0.48732   0.79015   0.00000  Uiso   1.00
C989   C     0.51434   0.65554   0.73816   0.00000  Uiso   1.00
H990   H     0.54180   0.33624   0.71633   0.00000  Uiso   1.00
C991   C     0.48468   0.34538   0.76194   0.00000  Uiso   1.00
H992   H     0.45676   0.66541   0.78374   0.00000  Uiso   1.00
N993   N     0.42851   0.59661   0.54269   0.00000  Uiso   1.00
O994   O     0.44507   0.62305   0.56684   0.00000  Uiso   1.00
O995   O     0.38856   0.59775   0.54341   0.00000  Uiso   1.00
C996   C     0.36217   0.51478   0.69399   0.00000  Uiso   1.00
C997   C     0.34554   0.52416   0.66051   0.00000  Uiso   1.00
C998   C     0.38247   0.52923   0.62290   0.00000  Uiso   1.00
H999   H     0.40663   0.55580   0.62809   0.00000  Uiso   1.00
H1000  H     0.39853   0.50018   0.61302   0.00000  Uiso   1.00
H1001  H     0.36958   0.53575   0.59917   0.00000  Uiso   1.00
H1002  H     0.65475   0.49806   0.65416   0.00000  Uiso   1.00
H1003  H     0.66392   0.55388   0.66894   0.00000  Uiso   1.00
H1004  H     0.38489   0.54206   0.70074   0.00000  Uiso   1.00
H1005  H     0.38088   0.48754   0.68246   0.00000  Uiso   1.00
N1006  N     0.48515   0.42321   0.93699   0.00000  Uiso   1.00
O1007  O     0.44534   0.42306   0.93658   0.00000  Uiso   1.00
O1008  O     0.50891   0.39687   0.91214   0.00000  Uiso   1.00
Zn1009 Zn    0.85910   0.47423   0.78277   0.00000  Uiso   1.00
Zn1010 Zn    0.80125   0.45711   0.72257   0.00000  Uiso   1.00
Zn1011 Zn    0.87833   0.52997   0.71188   0.00000  Uiso   1.00
Zn1012 Zn    0.79465   0.53868   0.78277   0.00000  Uiso   1.00
O1013  O     0.83333   0.50000   0.75000   0.00000  Uiso   1.00
O1014  O     0.73656   0.52293   0.77820   0.00000  Uiso   1.00
O1015  O     0.92106   0.48610   0.76767   0.00000  Uiso   1.00
O1016  O     0.80467   0.40236   0.73607   0.00000  Uiso   1.00
O1017  O     0.87104   0.58860   0.71805   0.00000  Uiso   1.00
O1018  O     0.82360   0.45726   0.66625   0.00000  Uiso   1.00
O1019  O     0.79354   0.53979   0.83749   0.00000  Uiso   1.00
O1020  O     0.87755   0.50826   0.65877   0.00000  Uiso   1.00
O1021  O     0.83865   0.49468   0.83749   0.00000  Uiso   1.00
O1022  O     0.84515   0.41434   0.77820   0.00000  Uiso   1.00
O1023  O     0.81247   0.59469   0.76767   0.00000  Uiso   1.00
O1024  O     0.74119   0.46584   0.73607   0.00000  Uiso   1.00
O1025  O     0.93452   0.52512   0.71805   0.00000  Uiso   1.00
C1026  C     0.71897   0.49301   0.75934   0.00000  Uiso   1.00
C1027  C     0.94804   0.50571   0.73990   0.00000  Uiso   1.00
C1028  C     0.82254   0.38946   0.75885   0.00000  Uiso   1.00
C1029  C     0.84354   0.61104   0.74134   0.00000  Uiso   1.00
C1030  C     0.85487   0.47850   0.64400   0.00000  Uiso   1.00
C1031  C     0.81230   0.52144   0.85614   0.00000  Uiso   1.00
C1032  C     0.80318   0.53097   0.89916   0.00000  Uiso   1.00
C1033  C     0.86239   0.46962   0.60159   0.00000  Uiso   1.00
C1034  C     0.77246   0.57377   0.95944   0.00000  Uiso   1.00
C1035  C     0.77920   0.56377   0.91905   0.00000  Uiso   1.00
C1036  C     0.81891   0.50745   0.92045   0.00000  Uiso   1.00
C1037  C     0.80866   0.51412   0.96187   0.00000  Uiso   1.00
C1038  C     0.78750   0.54967   0.98126   0.00000  Uiso   1.00
C1039  C     0.82199   0.48814   0.98390   0.00000  Uiso   1.00
C1040  C     0.82370   0.50369   0.52287   0.00000  Uiso   1.00
C1041  C     0.80466   0.54057   0.54066   0.00000  Uiso   1.00
C1042  C     0.78427   0.56179   0.52135   0.00000  Uiso   1.00
C1043  C     0.83353   0.44717   0.96847   0.00000  Uiso   1.00
C1044  C     0.85479   0.42681   0.98760   0.00000  Uiso   1.00
C1045  C     0.86002   0.44326   0.52428   0.00000  Uiso   1.00
C1046  C     0.84324   0.48115   0.54313   0.00000  Uiso   1.00
C1047  C     0.87900   0.42017   0.54359   0.00000  Uiso   1.00
C1048  C     0.87957   0.43299   0.58227   0.00000  Uiso   1.00
C1049  C     0.84557   0.49410   0.58206   0.00000  Uiso   1.00
H1050  H     0.83268   0.52177   0.59901   0.00000  Uiso   1.00
H1051  H     0.89199   0.41358   0.59762   0.00000  Uiso   1.00
H1052  H     0.86443   0.39613   0.97507   0.00000  Uiso   1.00
H1053  H     0.75651   0.60124   0.97296   0.00000  Uiso   1.00
H1054  H     0.76715   0.58287   0.90316   0.00000  Uiso   1.00
H1055  H     0.84046   0.48481   0.90415   0.00000  Uiso   1.00
H1056  H     0.80345   0.55312   0.57042   0.00000  Uiso   1.00
H1057  H     0.89157   0.39109   0.52938   0.00000  Uiso   1.00
C1058  C     0.99482   0.50444   0.73261   0.00000  Uiso   1.00
C1059  C     0.67392   0.49286   0.76184   0.00000  Uiso   1.00
H1060  H     0.98424   0.48732   0.79015   0.00000  Uiso   1.00
C1061  C     0.84768   0.65554   0.73816   0.00000  Uiso   1.00
H1062  H     0.87513   0.33624   0.71633   0.00000  Uiso   1.00
C1063  C     0.81801   0.34538   0.76194   0.00000  Uiso   1.00
H1064  H     0.79009   0.66541   0.78374   0.00000  Uiso   1.00
N1065  N     0.76185   0.59661   0.54269   0.00000  Uiso   1.00
O1066  O     0.77840   0.62305   0.56684   0.00000  Uiso   1.00
O1067  O     0.72189   0.59775   0.54341   0.00000  Uiso   1.00
C1068  C     0.69550   0.51478   0.69399   0.00000  Uiso   1.00
C1069  C     0.67887   0.52416   0.66051   0.00000  Uiso   1.00
C1070  C     0.71581   0.52923   0.62290   0.00000  Uiso   1.00
H1071  H     0.73996   0.55580   0.62809   0.00000  Uiso   1.00
H1072  H     0.73186   0.50018   0.61302   0.00000  Uiso   1.00
H1073  H     0.70291   0.53575   0.59917   0.00000  Uiso   1.00
H1074  H     0.98809   0.49806   0.65416   0.00000  Uiso   1.00
H1075  H     0.99726   0.55388   0.66894   0.00000  Uiso   1.00
H1076  H     0.71823   0.54206   0.70074   0.00000  Uiso   1.00
H1077  H     0.71422   0.48754   0.68246   0.00000  Uiso   1.00
N1078  N     0.81849   0.42321   0.93699   0.00000  Uiso   1.00
O1079  O     0.77867   0.42306   0.93658   0.00000  Uiso   1.00
O1080  O     0.84225   0.39687   0.91214   0.00000  Uiso   1.00
Zn1081 Zn    0.19244   0.80756   0.78277   0.00000  Uiso   1.00
Zn1082 Zn    0.13459   0.79044   0.72257   0.00000  Uiso   1.00
Zn1083 Zn    0.21166   0.86331   0.71188   0.00000  Uiso   1.00
Zn1084 Zn    0.12798   0.87202   0.78277   0.00000  Uiso   1.00
O1085  O     0.16667   0.83333   0.75000   0.00000  Uiso   1.00
O1086  O     0.06990   0.85627   0.77820   0.00000  Uiso   1.00
O1087  O     0.25440   0.81944   0.76767   0.00000  Uiso   1.00
O1088  O     0.13800   0.73570   0.73607   0.00000  Uiso   1.00
O1089  O     0.20437   0.92193   0.71805   0.00000  Uiso   1.00
O1090  O     0.15693   0.79060   0.66625   0.00000  Uiso   1.00
O1091  O     0.12687   0.87313   0.83749   0.00000  Uiso   1.00
O1092  O     0.21088   0.84159   0.65877   0.00000  Uiso   1.00
O1093  O     0.17198   0.82802   0.83749   0.00000  Uiso   1.00
O1094  O     0.17849   0.74768   0.77820   0.00000  Uiso   1.00
O1095  O     0.14581   0.92803   0.76767   0.00000  Uiso   1.00
O1096  O     0.07452   0.79917   0.73607   0.00000  Uiso   1.00
O1097  O     0.26785   0.85845   0.71805   0.00000  Uiso   1.00
C1098  C     0.05230   0.82635   0.75934   0.00000  Uiso   1.00
C1099  C     0.28138   0.83904   0.73990   0.00000  Uiso   1.00
C1100  C     0.15587   0.72279   0.75885   0.00000  Uiso   1.00
C1101  C     0.17687   0.94437   0.74134   0.00000  Uiso   1.00
C1102  C     0.18820   0.81183   0.64400   0.00000  Uiso   1.00
C1103  C     0.14564   0.85477   0.85614   0.00000  Uiso   1.00
C1104  C     0.13651   0.86431   0.89916   0.00000  Uiso   1.00
C1105  C     0.19572   0.80295   0.60159   0.00000  Uiso   1.00
C1106  C     0.10579   0.90711   0.95944   0.00000  Uiso   1.00
C1107  C     0.11254   0.89710   0.91905   0.00000  Uiso   1.00
C1108  C     0.15225   0.84078   0.92045   0.00000  Uiso   1.00
C1109  C     0.14199   0.84745   0.96187   0.00000  Uiso   1.00
C1110  C     0.12083   0.88301   0.98126   0.00000  Uiso   1.00
C1111  C     0.15533   0.82147   0.98390   0.00000  Uiso   1.00
C1112  C     0.15703   0.83702   0.52287   0.00000  Uiso   1.00
C1113  C     0.13800   0.87391   0.54066   0.00000  Uiso   1.00
C1114  C     0.11760   0.89513   0.52135   0.00000  Uiso   1.00
C1115  C     0.16686   0.78051   0.96847   0.00000  Uiso   1.00
C1116  C     0.18813   0.76014   0.98760   0.00000  Uiso   1.00
C1117  C     0.19336   0.77660   0.52428   0.00000  Uiso   1.00
C1118  C     0.17658   0.81448   0.54313   0.00000  Uiso   1.00
C1119  C     0.21233   0.75350   0.54359   0.00000  Uiso   1.00
C1120  C     0.21291   0.76632   0.58227   0.00000  Uiso   1.00
C1121  C     0.17890   0.82743   0.58206   0.00000  Uiso   1.00
H1122  H     0.16601   0.85510   0.59901   0.00000  Uiso   1.00
H1123  H     0.22533   0.74692   0.59762   0.00000  Uiso   1.00
H1124  H     0.19776   0.72946   0.97507   0.00000  Uiso   1.00
H1125  H     0.08985   0.93457   0.97296   0.00000  Uiso   1.00
H1126  H     0.10048   0.91620   0.90316   0.00000  Uiso   1.00
H1127  H     0.17379   0.81814   0.90415   0.00000  Uiso   1.00
H1128  H     0.13679   0.88645   0.57042   0.00000  Uiso   1.00
H1129  H     0.22491   0.72442   0.52938   0.00000  Uiso   1.00
C1130  C     0.32815   0.83778   0.73261   0.00000  Uiso   1.00
C1131  C     0.00725   0.82619   0.76184   0.00000  Uiso   1.00
H1132  H     0.31758   0.82065   0.79015   0.00000  Uiso   1.00
C1133  C     0.18101   0.98888   0.73816   0.00000  Uiso   1.00
H1134  H     0.20846   0.66957   0.71633   0.00000  Uiso   1.00
C1135  C     0.15135   0.67872   0.76194   0.00000  Uiso   1.00
H1136  H     0.12343   0.99875   0.78374   0.00000  Uiso   1.00
N1137  N     0.09518   0.92995   0.54269   0.00000  Uiso   1.00
O1138  O     0.11173   0.95638   0.56684   0.00000  Uiso   1.00
O1139  O     0.05522   0.93108   0.54341   0.00000  Uiso   1.00
C1140  C     0.02884   0.84812   0.69399   0.00000  Uiso   1.00
C1141  C     0.01221   0.85749   0.66051   0.00000  Uiso   1.00
C1142  C     0.04914   0.86256   0.62290   0.00000  Uiso   1.00
H1143  H     0.07329   0.88913   0.62809   0.00000  Uiso   1.00
H1144  H     0.06519   0.83351   0.61302   0.00000  Uiso   1.00
H1145  H     0.03624   0.86908   0.59917   0.00000  Uiso   1.00
H1146  H     0.32142   0.83140   0.65416   0.00000  Uiso   1.00
H1147  H     0.33059   0.88722   0.66894   0.00000  Uiso   1.00
H1148  H     0.05156   0.87540   0.70074   0.00000  Uiso   1.00
H1149  H     0.04755   0.82087   0.68246   0.00000  Uiso   1.00
N1150  N     0.15182   0.75654   0.93699   0.00000  Uiso   1.00
O1151  O     0.11200   0.75640   0.93658   0.00000  Uiso   1.00
O1152  O     0.17558   0.73020   0.91214   0.00000  Uiso   1.00
Zn1153 Zn    0.52577   0.80756   0.78277   0.00000  Uiso   1.00
Zn1154 Zn    0.46792   0.79044   0.72257   0.00000  Uiso   1.00
Zn1155 Zn    0.54500   0.86331   0.71188   0.00000  Uiso   1.00
Zn1156 Zn    0.46131   0.87202   0.78277   0.00000  Uiso   1.00
O1157  O     0.50000   0.83333   0.75000   0.00000  Uiso   1.00
O1158  O     0.40323   0.85627   0.77820   0.00000  Uiso   1.00
O1159  O     0.58773   0.81944   0.76767   0.00000  Uiso   1.00
O1160  O     0.47133   0.73570   0.73607   0.00000  Uiso   1.00
O1161  O     0.53771   0.92193   0.71805   0.00000  Uiso   1.00
O1162  O     0.49027   0.79060   0.66625   0.00000  Uiso   1.00
O1163  O     0.46020   0.87313   0.83749   0.00000  Uiso   1.00
O1164  O     0.54421   0.84159   0.65877   0.00000  Uiso   1.00
O1165  O     0.50532   0.82802   0.83749   0.00000  Uiso   1.00
O1166  O     0.51182   0.74768   0.77820   0.00000  Uiso   1.00
O1167  O     0.47914   0.92803   0.76767   0.00000  Uiso   1.00
O1168  O     0.40785   0.79917   0.73607   0.00000  Uiso   1.00
O1169  O     0.60119   0.85845   0.71805   0.00000  Uiso   1.00
C1170  C     0.38563   0.82635   0.75934   0.00000  Uiso   1.00
C1171  C     0.61471   0.83904   0.73990   0.00000  Uiso   1.00
C1172  C     0.48920   0.72279   0.75885   0.00000  Uiso   1.00
C1173  C     0.51020   0.94437   0.74134   0.00000  Uiso   1.00
C1174  C     0.52154   0.81183   0.64400   0.00000  Uiso   1.00
C1175  C     0.47897   0.85477   0.85614   0.00000  Uiso   1.00
C1176  C     0.46984   0.86431   0.89916   0.00000  Uiso   1.00
C1177  C     0.52906   0.80295   0.60159   0.00000  Uiso   1.00
C1178  C     0.43912   0.90711   0.95944   0.00000  Uiso   1.00
C1179  C     0.44587   0.89710   0.91905   0.00000  Uiso   1.00
C1180  C     0.48558   0.84078   0.92045   0.00000  Uiso   1.00
C1181  C     0.47532   0.84745   0.96187   0.00000  Uiso   1.00
C1182  C     0.45416   0.88301   0.98126   0.00000  Uiso   1.00
C1183  C     0.48866   0.82147   0.98390   0.00000  Uiso   1.00
C1184  C     0.49037   0.83702   0.52287   0.00000  Uiso   1.00
C1185  C     0.47133   0.87391   0.54066   0.00000  Uiso   1.00
C1186  C     0.45094   0.89513   0.52135   0.00000  Uiso   1.00
C1187  C     0.50020   0.78051   0.96847   0.00000  Uiso   1.00
C1188  C     0.52146   0.76014   0.98760   0.00000  Uiso   1.00
C1189  C     0.52669   0.77660   0.52428   0.00000  Uiso   1.00
C1190  C     0.50991   0.81448   0.54313   0.00000  Uiso   1.00
C1191  C     0.54566   0.75350   0.54359   0.00000  Uiso   1.00
C1192  C     0.54624   0.76632   0.58227   0.00000  Uiso   1.00
C1193  C     0.51224   0.82743   0.58206   0.00000  Uiso   1.00
H1194  H     0.49935   0.85510   0.59901   0.00000  Uiso   1.00
H1195  H     0.55866   0.74692   0.59762   0.00000  Uiso   1.00
H1196  H     0.53110   0.72946   0.97507   0.00000  Uiso   1.00
H1197  H     0.42318   0.93457   0.97296   0.00000  Uiso   1.00
H1198  H     0.43381   0.91620   0.90316   0.00000  Uiso   1.00
H1199  H     0.50713   0.81814   0.90415   0.00000  Uiso   1.00
H1200  H     0.47012   0.88645   0.57042   0.00000  Uiso   1.00
H1201  H     0.55824   0.72442   0.52938   0.00000  Uiso   1.00
C1202  C     0.66148   0.83778   0.73261   0.00000  Uiso   1.00
C1203  C     0.34059   0.82619   0.76184   0.00000  Uiso   1.00
H1204  H     0.65091   0.82065   0.79015   0.00000  Uiso   1.00
C1205  C     0.51434   0.98888   0.73816   0.00000  Uiso   1.00
H1206  H     0.54180   0.66957   0.71633   0.00000  Uiso   1.00
C1207  C     0.48468   0.67872   0.76194   0.00000  Uiso   1.00
H1208  H     0.45676   0.99875   0.78374   0.00000  Uiso   1.00
N1209  N     0.42851   0.92995   0.54269   0.00000  Uiso   1.00
O1210  O     0.44507   0.95638   0.56684   0.00000  Uiso   1.00
O1211  O     0.38856   0.93108   0.54341   0.00000  Uiso   1.00
C1212  C     0.36217   0.84812   0.69399   0.00000  Uiso   1.00
C1213  C     0.34554   0.85749   0.66051   0.00000  Uiso   1.00
C1214  C     0.38247   0.86256   0.62290   0.00000  Uiso   1.00
H1215  H     0.40663   0.88913   0.62809   0.00000  Uiso   1.00
H1216  H     0.39853   0.83351   0.61302   0.00000  Uiso   1.00
H1217  H     0.36958   0.86908   0.59917   0.00000  Uiso   1.00
H1218  H     0.65475   0.83140   0.65416   0.00000  Uiso   1.00
H1219  H     0.66392   0.88722   0.66894   0.00000  Uiso   1.00
H1220  H     0.38489   0.87540   0.70074   0.00000  Uiso   1.00
H1221  H     0.38088   0.82087   0.68246   0.00000  Uiso   1.00
N1222  N     0.48515   0.75654   0.93699   0.00000  Uiso   1.00
O1223  O     0.44534   0.75640   0.93658   0.00000  Uiso   1.00
O1224  O     0.50891   0.73020   0.91214   0.00000  Uiso   1.00
Zn1225 Zn    0.85910   0.80756   0.78277   0.00000  Uiso   1.00
Zn1226 Zn    0.80125   0.79044   0.72257   0.00000  Uiso   1.00
Zn1227 Zn    0.87833   0.86331   0.71188   0.00000  Uiso   1.00
Zn1228 Zn    0.79465   0.87202   0.78277   0.00000  Uiso   1.00
O1229  O     0.83333   0.83333   0.75000   0.00000  Uiso   1.00
O1230  O     0.73656   0.85627   0.77820   0.00000  Uiso   1.00
O1231  O     0.92106   0.81944   0.76767   0.00000  Uiso   1.00
O1232  O     0.80467   0.73570   0.73607   0.00000  Uiso   1.00
O1233  O     0.87104   0.92193   0.71805   0.00000  Uiso   1.00
O1234  O     0.82360   0.79060   0.66625   0.00000  Uiso   1.00
O1235  O     0.79354   0.87313   0.83749   0.00000  Uiso   1.00
O1236  O     0.87755   0.84159   0.65877   0.00000  Uiso   1.00
O1237  O     0.83865   0.82802   0.83749   0.00000  Uiso   1.00
O1238  O     0.84515   0.74768   0.77820   0.00000  Uiso   1.00
O1239  O     0.81247   0.92803   0.76767   0.00000  Uiso   1.00
O1240  O     0.74119   0.79917   0.73607   0.00000  Uiso   1.00
O1241  O     0.93452   0.85845   0.71805   0.00000  Uiso   1.00
C1242  C     0.71897   0.82635   0.75934   0.00000  Uiso   1.00
C1243  C     0.94804   0.83904   0.73990   0.00000  Uiso   1.00
C1244  C     0.82254   0.72279   0.75885   0.00000  Uiso   1.00
C1245  C     0.84354   0.94437   0.74134   0.00000  Uiso   1.00
C1246  C     0.85487   0.81183   0.64400   0.00000  Uiso   1.00
C1247  C     0.81230   0.85477   0.85614   0.00000  Uiso   1.00
C1248  C     0.80318   0.86431   0.89916   0.00000  Uiso   1.00
C1249  C     0.86239   0.80295   0.60159   0.00000  Uiso   1.00
C1250  C     0.77246   0.90711   0.95944   0.00000  Uiso   1.00
C1251  C     0.77920   0.89710   0.91905   0.00000  Uiso   1.00
C1252  C     0.81891   0.84078   0.92045   0.00000  Uiso   1.00
C1253  C     0.80866   0.84745   0.96187   0.00000  Uiso   1.00
C1254  C     0.78750   0.88301   0.98126   0.00000  Uiso   1.00
C1255  C     0.82199   0.82147   0.98390   0.00000  Uiso   1.00
C1256  C     0.82370   0.83702   0.52287   0.00000  Uiso   1.00
C1257  C     0.80466   0.87391   0.54066   0.00000  Uiso   1.00
C1258  C     0.78427   0.89513   0.52135   0.00000  Uiso   1.00
C1259  C     0.83353   0.78051   0.96847   0.00000  Uiso   1.00
C1260  C     0.85479   0.76014   0.98760   0.00000  Uiso   1.00
C1261  C     0.86002   0.77660   0.52428   0.00000  Uiso   1.00
C1262  C     0.84324   0.81448   0.54313   0.00000  Uiso   1.00
C1263  C     0.87900   0.75350   0.54359   0.00000  Uiso   1.00
C1264  C     0.87957   0.76632   0.58227   0.00000  Uiso   1.00
C1265  C     0.84557   0.82743   0.58206   0.00000  Uiso   1.00
H1266  H     0.83268   0.85510   0.59901   0.00000  Uiso   1.00
H1267  H     0.89199   0.74692   0.59762   0.00000  Uiso   1.00
H1268  H     0.86443   0.72946   0.97507   0.00000  Uiso   1.00
H1269  H     0.75651   0.93457   0.97296   0.00000  Uiso   1.00
H1270  H     0.76715   0.91620   0.90316   0.00000  Uiso   1.00
H1271  H     0.84046   0.81814   0.90415   0.00000  Uiso   1.00
H1272  H     0.80345   0.88645   0.57042   0.00000  Uiso   1.00
H1273  H     0.89157   0.72442   0.52938   0.00000  Uiso   1.00
C1274  C     0.99482   0.83778   0.73261   0.00000  Uiso   1.00
C1275  C     0.67392   0.82619   0.76184   0.00000  Uiso   1.00
H1276  H     0.98424   0.82065   0.79015   0.00000  Uiso   1.00
C1277  C     0.84768   0.98888   0.73816   0.00000  Uiso   1.00
H1278  H     0.87513   0.66957   0.71633   0.00000  Uiso   1.00
C1279  C     0.81801   0.67872   0.76194   0.00000  Uiso   1.00
H1280  H     0.79009   0.99875   0.78374   0.00000  Uiso   1.00
N1281  N     0.76185   0.92995   0.54269   0.00000  Uiso   1.00
O1282  O     0.77840   0.95638   0.56684   0.00000  Uiso   1.00
O1283  O     0.72189   0.93108   0.54341   0.00000  Uiso   1.00
C1284  C     0.69550   0.84812   0.69399   0.00000  Uiso   1.00
C1285  C     0.67887   0.85749   0.66051   0.00000  Uiso   1.00
C1286  C     0.71581   0.86256   0.62290   0.00000  Uiso   1.00
H1287  H     0.73996   0.88913   0.62809   0.00000  Uiso   1.00
H1288  H     0.73186   0.83351   0.61302   0.00000  Uiso   1.00
H1289  H     0.70291   0.86908   0.59917   0.00000  Uiso   1.00
H1290  H     0.98809   0.83140   0.65416   0.00000  Uiso   1.00
H1291  H     0.99726   0.88722   0.66894   0.00000  Uiso   1.00
H1292  H     0.71823   0.87540   0.70074   0.00000  Uiso   1.00
H1293  H     0.71422   0.82087   0.68246   0.00000  Uiso   1.00
N1294  N     0.81849   0.75654   0.93699   0.00000  Uiso   1.00
O1295  O     0.77867   0.75640   0.93658   0.00000  Uiso   1.00
O1296  O     0.84225   0.73020   0.91214   0.00000  Uiso   1.00
loop_
_geom_bond_atom_site_label_1
_geom_bond_atom_site_label_2
_geom_bond_distance
_geom_bond_site_symmetry_2
_ccdc_geom_bond_type
Zn1    O14     1.926   .     S
Zn1    O5      1.966   .     S
Zn1    O13     1.922   .     S
Zn1    O7      1.923   .     S
Zn2    O16     1.928   .     S
Zn2    O5      1.940   .     S
Zn2    O10     1.927   .     S
Zn2    O8      1.939   .     S
Zn3    O9      1.930   .     S
Zn3    O17     1.941   .     S
Zn3    O12     1.933   .     S
Zn3    O5      1.930   .     S
Zn4    O15     1.930   .     S
Zn4    O11     1.941   .     S
Zn4    O5      1.929   .     S
Zn4    O6      1.933   .     S
O6     C18     1.264   .     A
O7     C19     1.289   .     A
O8     C20     1.278   .     A
O9     C21     1.268   .     A
O10    C22     1.270   .     A
O11    C23     1.282   .     A
O12    C22     1.275   .     A
O13    C23     1.288   .     A
O14    C20     1.279   .     A
O15    C21     1.269   .     A
O16    C18     1.273   .     A
O17    C19     1.279   .     A
C18    C51     1.444   .     S
C19    C50     1.475   .     S
C20    C55     1.436   .     S
C21    C53     1.451   .     S
C22    C25     1.454   .     S
C23    C24     1.472   .     S
C24    C27     1.399   .     A
C24    C28     1.396   .     A
C25    C40     1.394   .     A
C25    C41     1.394   .     A
C26    C30     1.409   .     A
C26    C27     1.391   .     A
C26    H45     1.081   .     S
C27    H46     1.083   .     S
C28    H47     1.079   .     S
C28    C29     1.409   .     A
C29    C30     1.421   .     A
C29    C31     1.425   .     A
C30    C682    1.406   .     S
C31    C35     1.427   .     A
C31    C680    1.425   .     S
C32    C38     1.428   .     A
C32    C33     1.414   .     A
C32    C679    1.425   1_554 S
C33    C34     1.395   .     A
C33    H48     1.073   .     S
C34    N57     1.438   .     S
C34    C678    1.406   1_554 S
C35    C36     1.393   .     A
C35    N70     1.438   .     S
C36    H44     1.085   .     S
C36    C685    1.391   .     S
C37    C39     1.403   .     A
C37    C38     1.420   .     A
C37    C684    1.391   1_554 S
C38    C41     1.415   .     A
C39    H49     1.084   .     S
C39    C40     1.389   .     A
C40    H43     1.084   .     S
C41    H42     1.076   .     S
C50    C123    1.345   .     S
C50    C132    1.537   .     S
C51    C194    1.345   1_455 S
C51    H196    1.087   1_455 S
H52    C123    1.087   .     S
C53    H270    1.088   .     S
C53    C271    1.331   .     S
H54    C485    1.088   1_545 S
C55    C485    1.331   1_545 S
C55    H488    1.086   1_545 S
H56    C271    1.086   .     S
N57    O58     1.301   .     A
N57    O59     1.301   .     A
C60    H69     1.112   .     S
C60    H68     1.112   .     S
C60    C61     1.536   .     S
C60    C194    1.537   1_455 S
C61    C62     1.526   .     S
C61    H210    1.112   1_455 S
C61    H211    1.111   1_455 S
C62    H63     1.111   .     S
C62    H65     1.110   .     S
C62    H64     1.111   .     S
H66    C133    1.112   .     S
H67    C133    1.111   .     S
N70    O72     1.302   .     A
N70    O71     1.302   .     A
Zn73   O86     1.926   .     S
Zn73   O77     1.966   .     S
Zn73   O85     1.922   .     S
Zn73   O79     1.923   .     S
Zn74   O88     1.928   .     S
Zn74   O77     1.940   .     S
Zn74   O82     1.927   .     S
Zn74   O80     1.939   .     S
Zn75   O81     1.930   .     S
Zn75   O89     1.941   .     S
Zn75   O84     1.933   .     S
Zn75   O77     1.930   .     S
Zn76   O87     1.930   .     S
Zn76   O83     1.941   .     S
Zn76   O77     1.929   .     S
Zn76   O78     1.933   .     S
O78    C90     1.264   .     A
O79    C91     1.289   .     A
O80    C92     1.278   .     A
O81    C93     1.268   .     A
O82    C94     1.270   .     A
O83    C95     1.282   .     A
O84    C94     1.275   .     A
O85    C95     1.288   .     A
O86    C92     1.279   .     A
O87    C93     1.269   .     A
O88    C90     1.273   .     A
O89    C91     1.279   .     A
C90    C123    1.444   .     S
C91    C122    1.475   .     S
C92    C127    1.436   .     S
C93    C125    1.451   .     S
C94    C97     1.454   .     S
C95    C96     1.472   .     S
C96    C99     1.399   .     A
C96    C100    1.396   .     A
C97    C112    1.394   .     A
C97    C113    1.394   .     A
C98    C102    1.409   .     A
C98    C99     1.391   .     A
C98    H117    1.081   .     S
C99    H118    1.083   .     S
C100   H119    1.079   .     S
C100   C101    1.409   .     A
C101   C102    1.421   .     A
C101   C103    1.425   .     A
C102   C754    1.406   .     S
C103   C107    1.427   .     A
C103   C752    1.425   .     S
C104   C110    1.428   .     A
C104   C105    1.414   .     A
C104   C751    1.425   1_554 S
C105   C106    1.395   .     A
C105   H120    1.073   .     S
C106   N129    1.438   .     S
C106   C750    1.406   1_554 S
C107   C108    1.393   .     A
C107   N142    1.438   .     S
C108   H116    1.085   .     S
C108   C757    1.391   .     S
C109   C111    1.403   .     A
C109   C110    1.420   .     A
C109   C756    1.391   1_554 S
C110   C113    1.415   .     A
C111   H121    1.084   .     S
C111   C112    1.389   .     A
C112   H115    1.084   .     S
C113   H114    1.076   .     S
C122   C195    1.345   .     S
C122   C204    1.537   .     S
H124   C195    1.087   .     S
C125   H342    1.088   .     S
C125   C343    1.331   .     S
H126   C557    1.088   1_545 S
C127   C557    1.331   1_545 S
C127   H560    1.086   1_545 S
H128   C343    1.086   .     S
N129   O130    1.301   .     A
N129   O131    1.301   .     A
C132   H141    1.112   .     S
C132   H140    1.112   .     S
C132   C133    1.536   .     S
C133   C134    1.526   .     S
C134   H135    1.111   .     S
C134   H137    1.110   .     S
C134   H136    1.111   .     S
H138   C205    1.112   .     S
H139   C205    1.111   .     S
N142   O144    1.302   .     A
N142   O143    1.302   .     A
Zn145  O158    1.926   .     S
Zn145  O149    1.966   .     S
Zn145  O157    1.922   .     S
Zn145  O151    1.923   .     S
Zn146  O160    1.928   .     S
Zn146  O149    1.940   .     S
Zn146  O154    1.927   .     S
Zn146  O152    1.939   .     S
Zn147  O153    1.930   .     S
Zn147  O161    1.941   .     S
Zn147  O156    1.933   .     S
Zn147  O149    1.930   .     S
Zn148  O159    1.930   .     S
Zn148  O155    1.941   .     S
Zn148  O149    1.929   .     S
Zn148  O150    1.933   .     S
O150   C162    1.264   .     A
O151   C163    1.289   .     A
O152   C164    1.278   .     A
O153   C165    1.268   .     A
O154   C166    1.270   .     A
O155   C167    1.282   .     A
O156   C166    1.275   .     A
O157   C167    1.288   .     A
O158   C164    1.279   .     A
O159   C165    1.269   .     A
O160   C162    1.273   .     A
O161   C163    1.279   .     A
C162   C195    1.444   .     S
C163   C194    1.475   .     S
C164   C199    1.436   .     S
C165   C197    1.451   .     S
C166   C169    1.454   .     S
C167   C168    1.472   .     S
C168   C171    1.399   .     A
C168   C172    1.396   .     A
C169   C184    1.394   .     A
C169   C185    1.394   .     A
C170   C174    1.409   .     A
C170   C171    1.391   .     A
C170   H189    1.081   .     S
C171   H190    1.083   .     S
C172   H191    1.079   .     S
C172   C173    1.409   .     A
C173   C174    1.421   .     A
C173   C175    1.425   .     A
C174   C826    1.406   .     S
C175   C179    1.427   .     A
C175   C824    1.425   .     S
C176   C182    1.428   .     A
C176   C177    1.414   .     A
C176   C823    1.425   1_554 S
C177   C178    1.395   .     A
C177   H192    1.073   .     S
C178   N201    1.438   .     S
C178   C822    1.406   1_554 S
C179   C180    1.393   .     A
C179   N214    1.438   .     S
C180   H188    1.085   .     S
C180   C829    1.391   .     S
C181   C183    1.403   .     A
C181   C182    1.420   .     A
C181   C828    1.391   1_554 S
C182   C185    1.415   .     A
C183   H193    1.084   .     S
C183   C184    1.389   .     A
C184   H187    1.084   .     S
C185   H186    1.076   .     S
C194   C51     1.345   1_655 S
C194   C60     1.537   1_655 S
H196   C51     1.087   1_655 S
C197   H414    1.088   .     S
C197   C415    1.331   .     S
H198   C629    1.088   1_545 S
C199   C629    1.331   1_545 S
C199   H632    1.086   1_545 S
H200   C415    1.086   .     S
N201   O202    1.301   .     A
N201   O203    1.301   .     A
C204   H213    1.112   .     S
C204   H212    1.112   .     S
C204   C205    1.536   .     S
C205   C206    1.526   .     S
C206   H207    1.111   .     S
C206   H209    1.110   .     S
C206   H208    1.111   .     S
H210   C61     1.112   1_655 S
H211   C61     1.111   1_655 S
N214   O216    1.302   .     A
N214   O215    1.302   .     A
Zn217  O230    1.926   .     S
Zn217  O221    1.966   .     S
Zn217  O229    1.922   .     S
Zn217  O223    1.923   .     S
Zn218  O232    1.928   .     S
Zn218  O221    1.940   .     S
Zn218  O226    1.927   .     S
Zn218  O224    1.939   .     S
Zn219  O225    1.930   .     S
Zn219  O233    1.941   .     S
Zn219  O228    1.933   .     S
Zn219  O221    1.930   .     S
Zn220  O231    1.930   .     S
Zn220  O227    1.941   .     S
Zn220  O221    1.929   .     S
Zn220  O222    1.933   .     S
O222   C234    1.264   .     A
O223   C235    1.289   .     A
O224   C236    1.278   .     A
O225   C237    1.268   .     A
O226   C238    1.270   .     A
O227   C239    1.282   .     A
O228   C238    1.275   .     A
O229   C239    1.288   .     A
O230   C236    1.279   .     A
O231   C237    1.269   .     A
O232   C234    1.273   .     A
O233   C235    1.279   .     A
C234   C267    1.444   .     S
C235   C266    1.475   .     S
C236   C271    1.436   .     S
C237   C269    1.451   .     S
C238   C241    1.454   .     S
C239   C240    1.472   .     S
C240   C243    1.399   .     A
C240   C244    1.396   .     A
C241   C256    1.394   .     A
C241   C257    1.394   .     A
C242   C246    1.409   .     A
C242   C243    1.391   .     A
C242   H261    1.081   .     S
C243   H262    1.083   .     S
C244   H263    1.079   .     S
C244   C245    1.409   .     A
C245   C246    1.421   .     A
C245   C247    1.425   .     A
C246   C898    1.406   .     S
C247   C251    1.427   .     A
C247   C896    1.425   .     S
C248   C254    1.428   .     A
C248   C249    1.414   .     A
C248   C895    1.425   1_554 S
C249   C250    1.395   .     A
C249   H264    1.073   .     S
C250   N273    1.438   .     S
C250   C894    1.406   1_554 S
C251   C252    1.393   .     A
C251   N286    1.438   .     S
C252   H260    1.085   .     S
C252   C901    1.391   .     S
C253   C255    1.403   .     A
C253   C254    1.420   .     A
C253   C900    1.391   1_554 S
C254   C257    1.415   .     A
C255   H265    1.084   .     S
C255   C256    1.389   .     A
C256   H259    1.084   .     S
C257   H258    1.076   .     S
C266   C339    1.345   .     S
C266   C348    1.537   .     S
C267   C410    1.345   1_455 S
C267   H412    1.087   1_455 S
H268   C339    1.087   .     S
C269   H486    1.088   .     S
C269   C487    1.331   .     S
H272   C487    1.086   .     S
N273   O274    1.301   .     A
N273   O275    1.301   .     A
C276   H285    1.112   .     S
C276   H284    1.112   .     S
C276   C277    1.536   .     S
C276   C410    1.537   1_455 S
C277   C278    1.526   .     S
C277   H426    1.112   1_455 S
C277   H427    1.111   1_455 S
C278   H279    1.111   .     S
C278   H281    1.110   .     S
C278   H280    1.111   .     S
H282   C349    1.112   .     S
H283   C349    1.111   .     S
N286   O288    1.302   .     A
N286   O287    1.302   .     A
Zn289  O302    1.926   .     S
Zn289  O293    1.966   .     S
Zn289  O301    1.922   .     S
Zn289  O295    1.923   .     S
Zn290  O304    1.928   .     S
Zn290  O293    1.940   .     S
Zn290  O298    1.927   .     S
Zn290  O296    1.939   .     S
Zn291  O297    1.930   .     S
Zn291  O305    1.941   .     S
Zn291  O300    1.933   .     S
Zn291  O293    1.930   .     S
Zn292  O303    1.930   .     S
Zn292  O299    1.941   .     S
Zn292  O293    1.929   .     S
Zn292  O294    1.933   .     S
O294   C306    1.264   .     A
O295   C307    1.289   .     A
O296   C308    1.278   .     A
O297   C309    1.268   .     A
O298   C310    1.270   .     A
O299   C311    1.282   .     A
O300   C310    1.275   .     A
O301   C311    1.288   .     A
O302   C308    1.279   .     A
O303   C309    1.269   .     A
O304   C306    1.273   .     A
O305   C307    1.279   .     A
C306   C339    1.444   .     S
C307   C338    1.475   .     S
C308   C343    1.436   .     S
C309   C341    1.451   .     S
C310   C313    1.454   .     S
C311   C312    1.472   .     S
C312   C315    1.399   .     A
C312   C316    1.396   .     A
C313   C328    1.394   .     A
C313   C329    1.394   .     A
C314   C318    1.409   .     A
C314   C315    1.391   .     A
C314   H333    1.081   .     S
C315   H334    1.083   .     S
C316   H335    1.079   .     S
C316   C317    1.409   .     A
C317   C318    1.421   .     A
C317   C319    1.425   .     A
C318   C970    1.406   .     S
C319   C323    1.427   .     A
C319   C968    1.425   .     S
C320   C326    1.428   .     A
C320   C321    1.414   .     A
C320   C967    1.425   1_554 S
C321   C322    1.395   .     A
C321   H336    1.073   .     S
C322   N345    1.438   .     S
C322   C966    1.406   1_554 S
C323   C324    1.393   .     A
C323   N358    1.438   .     S
C324   H332    1.085   .     S
C324   C973    1.391   .     S
C325   C327    1.403   .     A
C325   C326    1.420   .     A
C325   C972    1.391   1_554 S
C326   C329    1.415   .     A
C327   H337    1.084   .     S
C327   C328    1.389   .     A
C328   H331    1.084   .     S
C329   H330    1.076   .     S
C338   C411    1.345   .     S
C338   C420    1.537   .     S
H340   C411    1.087   .     S
C341   H558    1.088   .     S
C341   C559    1.331   .     S
H344   C559    1.086   .     S
N345   O346    1.301   .     A
N345   O347    1.301   .     A
C348   H357    1.112   .     S
C348   H356    1.112   .     S
C348   C349    1.536   .     S
C349   C350    1.526   .     S
C350   H351    1.111   .     S
C350   H353    1.110   .     S
C350   H352    1.111   .     S
H354   C421    1.112   .     S
H355   C421    1.111   .     S
N358   O360    1.302   .     A
N358   O359    1.302   .     A
Zn361  O374    1.926   .     S
Zn361  O365    1.966   .     S
Zn361  O373    1.922   .     S
Zn361  O367    1.923   .     S
Zn362  O376    1.928   .     S
Zn362  O365    1.940   .     S
Zn362  O370    1.927   .     S
Zn362  O368    1.939   .     S
Zn363  O369    1.930   .     S
Zn363  O377    1.941   .     S
Zn363  O372    1.933   .     S
Zn363  O365    1.930   .     S
Zn364  O375    1.930   .     S
Zn364  O371    1.941   .     S
Zn364  O365    1.929   .     S
Zn364  O366    1.933   .     S
O366   C378    1.264   .     A
O367   C379    1.289   .     A
O368   C380    1.278   .     A
O369   C381    1.268   .     A
O370   C382    1.270   .     A
O371   C383    1.282   .     A
O372   C382    1.275   .     A
O373   C383    1.288   .     A
O374   C380    1.279   .     A
O375   C381    1.269   .     A
O376   C378    1.273   .     A
O377   C379    1.279   .     A
C378   C411    1.444   .     S
C379   C410    1.475   .     S
C380   C415    1.436   .     S
C381   C413    1.451   .     S
C382   C385    1.454   .     S
C383   C384    1.472   .     S
C384   C387    1.399   .     A
C384   C388    1.396   .     A
C385   C400    1.394   .     A
C385   C401    1.394   .     A
C386   C390    1.409   .     A
C386   C387    1.391   .     A
C386   H405    1.081   .     S
C387   H406    1.083   .     S
C388   H407    1.079   .     S
C388   C389    1.409   .     A
C389   C390    1.421   .     A
C389   C391    1.425   .     A
C390   C1042   1.406   .     S
C391   C395    1.427   .     A
C391   C1040   1.425   .     S
C392   C398    1.428   .     A
C392   C393    1.414   .     A
C392   C1039   1.425   1_554 S
C393   C394    1.395   .     A
C393   H408    1.073   .     S
C394   N417    1.438   .     S
C394   C1038   1.406   1_554 S
C395   C396    1.393   .     A
C395   N430    1.438   .     S
C396   H404    1.085   .     S
C396   C1045   1.391   .     S
C397   C399    1.403   .     A
C397   C398    1.420   .     A
C397   C1044   1.391   1_554 S
C398   C401    1.415   .     A
C399   H409    1.084   .     S
C399   C400    1.389   .     A
C400   H403    1.084   .     S
C401   H402    1.076   .     S
C410   C267    1.345   1_655 S
C410   C276    1.537   1_655 S
H412   C267    1.087   1_655 S
C413   H630    1.088   .     S
C413   C631    1.331   .     S
H416   C631    1.086   .     S
N417   O418    1.301   .     A
N417   O419    1.301   .     A
C420   H429    1.112   .     S
C420   H428    1.112   .     S
C420   C421    1.536   .     S
C421   C422    1.526   .     S
C422   H423    1.111   .     S
C422   H425    1.110   .     S
C422   H424    1.111   .     S
H426   C277    1.112   1_655 S
H427   C277    1.111   1_655 S
N430   O432    1.302   .     A
N430   O431    1.302   .     A
Zn433  O446    1.926   .     S
Zn433  O437    1.966   .     S
Zn433  O445    1.922   .     S
Zn433  O439    1.923   .     S
Zn434  O448    1.928   .     S
Zn434  O437    1.940   .     S
Zn434  O442    1.927   .     S
Zn434  O440    1.939   .     S
Zn435  O441    1.930   .     S
Zn435  O449    1.941   .     S
Zn435  O444    1.933   .     S
Zn435  O437    1.930   .     S
Zn436  O447    1.930   .     S
Zn436  O443    1.941   .     S
Zn436  O437    1.929   .     S
Zn436  O438    1.933   .     S
O438   C450    1.264   .     A
O439   C451    1.289   .     A
O440   C452    1.278   .     A
O441   C453    1.268   .     A
O442   C454    1.270   .     A
O443   C455    1.282   .     A
O444   C454    1.275   .     A
O445   C455    1.288   .     A
O446   C452    1.279   .     A
O447   C453    1.269   .     A
O448   C450    1.273   .     A
O449   C451    1.279   .     A
C450   C483    1.444   .     S
C451   C482    1.475   .     S
C452   C487    1.436   .     S
C453   C485    1.451   .     S
C454   C457    1.454   .     S
C455   C456    1.472   .     S
C456   C459    1.399   .     A
C456   C460    1.396   .     A
C457   C472    1.394   .     A
C457   C473    1.394   .     A
C458   C462    1.409   .     A
C458   C459    1.391   .     A
C458   H477    1.081   .     S
C459   H478    1.083   .     S
C460   H479    1.079   .     S
C460   C461    1.409   .     A
C461   C462    1.421   .     A
C461   C463    1.425   .     A
C462   C1114   1.406   .     S
C463   C467    1.427   .     A
C463   C1112   1.425   .     S
C464   C470    1.428   .     A
C464   C465    1.414   .     A
C464   C1111   1.425   1_554 S
C465   C466    1.395   .     A
C465   H480    1.073   .     S
C466   N489    1.438   .     S
C466   C1110   1.406   1_554 S
C467   C468    1.393   .     A
C467   N502    1.438   .     S
C468   H476    1.085   .     S
C468   C1117   1.391   .     S
C469   C471    1.403   .     A
C469   C470    1.420   .     A
C469   C1116   1.391   1_554 S
C470   C473    1.415   .     A
C471   H481    1.084   .     S
C471   C472    1.389   .     A
C472   H475    1.084   .     S
C473   H474    1.076   .     S
C482   C555    1.345   .     S
C482   C564    1.537   .     S
C483   C626    1.345   1_455 S
C483   H628    1.087   1_455 S
H484   C555    1.087   .     S
C485   H54     1.088   1_565 S
C485   C55     1.331   1_565 S
H488   C55     1.086   1_565 S
N489   O490    1.301   .     A
N489   O491    1.301   .     A
C492   H501    1.112   .     S
C492   H500    1.112   .     S
C492   C493    1.536   .     S
C492   C626    1.537   1_455 S
C493   C494    1.526   .     S
C493   H642    1.112   1_455 S
C493   H643    1.111   1_455 S
C494   H495    1.111   .     S
C494   H497    1.110   .     S
C494   H496    1.111   .     S
H498   C565    1.112   .     S
H499   C565    1.111   .     S
N502   O504    1.302   .     A
N502   O503    1.302   .     A
Zn505  O518    1.926   .     S
Zn505  O509    1.966   .     S
Zn505  O517    1.922   .     S
Zn505  O511    1.923   .     S
Zn506  O520    1.928   .     S
Zn506  O509    1.940   .     S
Zn506  O514    1.927   .     S
Zn506  O512    1.939   .     S
Zn507  O513    1.930   .     S
Zn507  O521    1.941   .     S
Zn507  O516    1.933   .     S
Zn507  O509    1.930   .     S
Zn508  O519    1.930   .     S
Zn508  O515    1.941   .     S
Zn508  O509    1.929   .     S
Zn508  O510    1.933   .     S
O510   C522    1.264   .     A
O511   C523    1.289   .     A
O512   C524    1.278   .     A
O513   C525    1.268   .     A
O514   C526    1.270   .     A
O515   C527    1.282   .     A
O516   C526    1.275   .     A
O517   C527    1.288   .     A
O518   C524    1.279   .     A
O519   C525    1.269   .     A
O520   C522    1.273   .     A
O521   C523    1.279   .     A
C522   C555    1.444   .     S
C523   C554    1.475   .     S
C524   C559    1.436   .     S
C525   C557    1.451   .     S
C526   C529    1.454   .     S
C527   C528    1.472   .     S
C528   C531    1.399   .     A
C528   C532    1.396   .     A
C529   C544    1.394   .     A
C529   C545    1.394   .     A
C530   C534    1.409   .     A
C530   C531    1.391   .     A
C530   H549    1.081   .     S
C531   H550    1.083   .     S
C532   H551    1.079   .     S
C532   C533    1.409   .     A
C533   C534    1.421   .     A
C533   C535    1.425   .     A
C534   C1186   1.406   .     S
C535   C539    1.427   .     A
C535   C1184   1.425   .     S
C536   C542    1.428   .     A
C536   C537    1.414   .     A
C536   C1183   1.425   1_554 S
C537   C538    1.395   .     A
C537   H552    1.073   .     S
C538   N561    1.438   .     S
C538   C1182   1.406   1_554 S
C539   C540    1.393   .     A
C539   N574    1.438   .     S
C540   H548    1.085   .     S
C540   C1189   1.391   .     S
C541   C543    1.403   .     A
C541   C542    1.420   .     A
C541   C1188   1.391   1_554 S
C542   C545    1.415   .     A
C543   H553    1.084   .     S
C543   C544    1.389   .     A
C544   H547    1.084   .     S
C545   H546    1.076   .     S
C554   C627    1.345   .     S
C554   C636    1.537   .     S
H556   C627    1.087   .     S
C557   H126    1.088   1_565 S
C557   C127    1.331   1_565 S
H560   C127    1.086   1_565 S
N561   O562    1.301   .     A
N561   O563    1.301   .     A
C564   H573    1.112   .     S
C564   H572    1.112   .     S
C564   C565    1.536   .     S
C565   C566    1.526   .     S
C566   H567    1.111   .     S
C566   H569    1.110   .     S
C566   H568    1.111   .     S
H570   C637    1.112   .     S
H571   C637    1.111   .     S
N574   O576    1.302   .     A
N574   O575    1.302   .     A
Zn577  O590    1.926   .     S
Zn577  O581    1.966   .     S
Zn577  O589    1.922   .     S
Zn577  O583    1.923   .     S
Zn578  O592    1.928   .     S
Zn578  O581    1.940   .     S
Zn578  O586    1.927   .     S
Zn578  O584    1.939   .     S
Zn579  O585    1.930   .     S
Zn579  O593    1.941   .     S
Zn579  O588    1.933   .     S
Zn579  O581    1.930   .     S
Zn580  O591    1.930   .     S
Zn580  O587    1.941   .     S
Zn580  O581    1.929   .     S
Zn580  O582    1.933   .     S
O582   C594    1.264   .     A
O583   C595    1.289   .     A
O584   C596    1.278   .     A
O585   C597    1.268   .     A
O586   C598    1.270   .     A
O587   C599    1.282   .     A
O588   C598    1.275   .     A
O589   C599    1.288   .     A
O590   C596    1.279   .     A
O591   C597    1.269   .     A
O592   C594    1.273   .     A
O593   C595    1.279   .     A
C594   C627    1.444   .     S
C595   C626    1.475   .     S
C596   C631    1.436   .     S
C597   C629    1.451   .     S
C598   C601    1.454   .     S
C599   C600    1.472   .     S
C600   C603    1.399   .     A
C600   C604    1.396   .     A
C601   C616    1.394   .     A
C601   C617    1.394   .     A
C602   C606    1.409   .     A
C602   C603    1.391   .     A
C602   H621    1.081   .     S
C603   H622    1.083   .     S
C604   H623    1.079   .     S
C604   C605    1.409   .     A
C605   C606    1.421   .     A
C605   C607    1.425   .     A
C606   C1258   1.406   .     S
C607   C611    1.427   .     A
C607   C1256   1.425   .     S
C608   C614    1.428   .     A
C608   C609    1.414   .     A
C608   C1255   1.425   1_554 S
C609   C610    1.395   .     A
C609   H624    1.073   .     S
C610   N633    1.438   .     S
C610   C1254   1.406   1_554 S
C611   C612    1.393   .     A
C611   N646    1.438   .     S
C612   H620    1.085   .     S
C612   C1261   1.391   .     S
C613   C615    1.403   .     A
C613   C614    1.420   .     A
C613   C1260   1.391   1_554 S
C614   C617    1.415   .     A
C615   H625    1.084   .     S
C615   C616    1.389   .     A
C616   H619    1.084   .     S
C617   H618    1.076   .     S
C626   C483    1.345   1_655 S
C626   C492    1.537   1_655 S
H628   C483    1.087   1_655 S
C629   H198    1.088   1_565 S
C629   C199    1.331   1_565 S
H632   C199    1.086   1_565 S
N633   O634    1.301   .     A
N633   O635    1.301   .     A
C636   H645    1.112   .     S
C636   H644    1.112   .     S
C636   C637    1.536   .     S
C637   C638    1.526   .     S
C638   H639    1.111   .     S
C638   H641    1.110   .     S
C638   H640    1.111   .     S
H642   C493    1.112   1_655 S
H643   C493    1.111   1_655 S
N646   O648    1.302   .     A
N646   O647    1.302   .     A
Zn649  O662    1.926   .     S
Zn649  O653    1.966   .     S
Zn649  O661    1.922   .     S
Zn649  O655    1.923   .     S
Zn650  O664    1.928   .     S
Zn650  O653    1.940   .     S
Zn650  O658    1.927   .     S
Zn650  O656    1.939   .     S
Zn651  O657    1.930   .     S
Zn651  O665    1.941   .     S
Zn651  O660    1.933   .     S
Zn651  O653    1.930   .     S
Zn652  O663    1.930   .     S
Zn652  O659    1.941   .     S
Zn652  O653    1.929   .     S
Zn652  O654    1.933   .     S
O654   C666    1.264   .     A
O655   C667    1.289   .     A
O656   C668    1.278   .     A
O657   C669    1.268   .     A
O658   C670    1.270   .     A
O659   C671    1.282   .     A
O660   C670    1.275   .     A
O661   C671    1.288   .     A
O662   C668    1.279   .     A
O663   C669    1.269   .     A
O664   C666    1.273   .     A
O665   C667    1.279   .     A
C666   C699    1.444   .     S
C667   C698    1.475   .     S
C668   C703    1.436   .     S
C669   C701    1.451   .     S
C670   C673    1.454   .     S
C671   C672    1.472   .     S
C672   C675    1.399   .     A
C672   C676    1.396   .     A
C673   C688    1.394   .     A
C673   C689    1.394   .     A
C674   C678    1.409   .     A
C674   C675    1.391   .     A
C674   H693    1.081   .     S
C675   H694    1.083   .     S
C676   H695    1.079   .     S
C676   C677    1.409   .     A
C677   C678    1.421   .     A
C677   C679    1.425   .     A
C678   C34     1.406   1_556 S
C679   C683    1.427   .     A
C679   C32     1.425   1_556 S
C680   C686    1.428   .     A
C680   C681    1.414   .     A
C681   C682    1.395   .     A
C681   H696    1.073   .     S
C682   N705    1.438   .     S
C683   C684    1.393   .     A
C683   N718    1.438   .     S
C684   H692    1.085   .     S
C684   C37     1.391   1_556 S
C685   C687    1.403   .     A
C685   C686    1.420   .     A
C686   C689    1.415   .     A
C687   H697    1.084   .     S
C687   C688    1.389   .     A
C688   H691    1.084   .     S
C689   H690    1.076   .     S
C698   C771    1.345   .     S
C698   C780    1.537   .     S
C699   C842    1.345   1_455 S
C699   H844    1.087   1_455 S
H700   C771    1.087   .     S
C701   H918    1.088   .     S
C701   C919    1.331   .     S
H702   C1133   1.088   1_545 S
C703   C1133   1.331   1_545 S
C703   H1136   1.086   1_545 S
H704   C919    1.086   .     S
N705   O706    1.301   .     A
N705   O707    1.301   .     A
C708   H717    1.112   .     S
C708   H716    1.112   .     S
C708   C709    1.536   .     S
C708   C842    1.537   1_455 S
C709   C710    1.526   .     S
C709   H858    1.112   1_455 S
C709   H859    1.111   1_455 S
C710   H711    1.111   .     S
C710   H713    1.110   .     S
C710   H712    1.111   .     S
H714   C781    1.112   .     S
H715   C781    1.111   .     S
N718   O720    1.302   .     A
N718   O719    1.302   .     A
Zn721  O734    1.926   .     S
Zn721  O725    1.966   .     S
Zn721  O733    1.922   .     S
Zn721  O727    1.923   .     S
Zn722  O736    1.928   .     S
Zn722  O725    1.940   .     S
Zn722  O730    1.927   .     S
Zn722  O728    1.939   .     S
Zn723  O729    1.930   .     S
Zn723  O737    1.941   .     S
Zn723  O732    1.933   .     S
Zn723  O725    1.930   .     S
Zn724  O735    1.930   .     S
Zn724  O731    1.941   .     S
Zn724  O725    1.929   .     S
Zn724  O726    1.933   .     S
O726   C738    1.264   .     A
O727   C739    1.289   .     A
O728   C740    1.278   .     A
O729   C741    1.268   .     A
O730   C742    1.270   .     A
O731   C743    1.282   .     A
O732   C742    1.275   .     A
O733   C743    1.288   .     A
O734   C740    1.279   .     A
O735   C741    1.269   .     A
O736   C738    1.273   .     A
O737   C739    1.279   .     A
C738   C771    1.444   .     S
C739   C770    1.475   .     S
C740   C775    1.436   .     S
C741   C773    1.451   .     S
C742   C745    1.454   .     S
C743   C744    1.472   .     S
C744   C747    1.399   .     A
C744   C748    1.396   .     A
C745   C760    1.394   .     A
C745   C761    1.394   .     A
C746   C750    1.409   .     A
C746   C747    1.391   .     A
C746   H765    1.081   .     S
C747   H766    1.083   .     S
C748   H767    1.079   .     S
C748   C749    1.409   .     A
C749   C750    1.421   .     A
C749   C751    1.425   .     A
C750   C106    1.406   1_556 S
C751   C755    1.427   .     A
C751   C104    1.425   1_556 S
C752   C758    1.428   .     A
C752   C753    1.414   .     A
C753   C754    1.395   .     A
C753   H768    1.073   .     S
C754   N777    1.438   .     S
C755   C756    1.393   .     A
C755   N790    1.438   .     S
C756   H764    1.085   .     S
C756   C109    1.391   1_556 S
C757   C759    1.403   .     A
C757   C758    1.420   .     A
C758   C761    1.415   .     A
C759   H769    1.084   .     S
C759   C760    1.389   .     A
C760   H763    1.084   .     S
C761   H762    1.076   .     S
C770   C843    1.345   .     S
C770   C852    1.537   .     S
H772   C843    1.087   .     S
C773   H990    1.088   .     S
C773   C991    1.331   .     S
H774   C1205   1.088   1_545 S
C775   C1205   1.331   1_545 S
C775   H1208   1.086   1_545 S
H776   C991    1.086   .     S
N777   O778    1.301   .     A
N777   O779    1.301   .     A
C780   H789    1.112   .     S
C780   H788    1.112   .     S
C780   C781    1.536   .     S
C781   C782    1.526   .     S
C782   H783    1.111   .     S
C782   H785    1.110   .     S
C782   H784    1.111   .     S
H786   C853    1.112   .     S
H787   C853    1.111   .     S
N790   O792    1.302   .     A
N790   O791    1.302   .     A
Zn793  O806    1.926   .     S
Zn793  O797    1.966   .     S
Zn793  O805    1.922   .     S
Zn793  O799    1.923   .     S
Zn794  O808    1.928   .     S
Zn794  O797    1.940   .     S
Zn794  O802    1.927   .     S
Zn794  O800    1.939   .     S
Zn795  O801    1.930   .     S
Zn795  O809    1.941   .     S
Zn795  O804    1.933   .     S
Zn795  O797    1.930   .     S
Zn796  O807    1.930   .     S
Zn796  O803    1.941   .     S
Zn796  O797    1.929   .     S
Zn796  O798    1.933   .     S
O798   C810    1.264   .     A
O799   C811    1.289   .     A
O800   C812    1.278   .     A
O801   C813    1.268   .     A
O802   C814    1.270   .     A
O803   C815    1.282   .     A
O804   C814    1.275   .     A
O805   C815    1.288   .     A
O806   C812    1.279   .     A
O807   C813    1.269   .     A
O808   C810    1.273   .     A
O809   C811    1.279   .     A
C810   C843    1.444   .     S
C811   C842    1.475   .     S
C812   C847    1.436   .     S
C813   C845    1.451   .     S
C814   C817    1.454   .     S
C815   C816    1.472   .     S
C816   C819    1.399   .     A
C816   C820    1.396   .     A
C817   C832    1.394   .     A
C817   C833    1.394   .     A
C818   C822    1.409   .     A
C818   C819    1.391   .     A
C818   H837    1.081   .     S
C819   H838    1.083   .     S
C820   H839    1.079   .     S
C820   C821    1.409   .     A
C821   C822    1.421   .     A
C821   C823    1.425   .     A
C822   C178    1.406   1_556 S
C823   C827    1.427   .     A
C823   C176    1.425   1_556 S
C824   C830    1.428   .     A
C824   C825    1.414   .     A
C825   C826    1.395   .     A
C825   H840    1.073   .     S
C826   N849    1.438   .     S
C827   C828    1.393   .     A
C827   N862    1.438   .     S
C828   H836    1.085   .     S
C828   C181    1.391   1_556 S
C829   C831    1.403   .     A
C829   C830    1.420   .     A
C830   C833    1.415   .     A
C831   H841    1.084   .     S
C831   C832    1.389   .     A
C832   H835    1.084   .     S
C833   H834    1.076   .     S
C842   C699    1.345   1_655 S
C842   C708    1.537   1_655 S
H844   C699    1.087   1_655 S
C845   H1062   1.088   .     S
C845   C1063   1.331   .     S
H846   C1277   1.088   1_545 S
C847   C1277   1.331   1_545 S
C847   H1280   1.086   1_545 S
H848   C1063   1.086   .     S
N849   O850    1.301   .     A
N849   O851    1.301   .     A
C852   H861    1.112   .     S
C852   H860    1.112   .     S
C852   C853    1.536   .     S
C853   C854    1.526   .     S
C854   H855    1.111   .     S
C854   H857    1.110   .     S
C854   H856    1.111   .     S
H858   C709    1.112   1_655 S
H859   C709    1.111   1_655 S
N862   O864    1.302   .     A
N862   O863    1.302   .     A
Zn865  O878    1.926   .     S
Zn865  O869    1.966   .     S
Zn865  O877    1.922   .     S
Zn865  O871    1.923   .     S
Zn866  O880    1.928   .     S
Zn866  O869    1.940   .     S
Zn866  O874    1.927   .     S
Zn866  O872    1.939   .     S
Zn867  O873    1.930   .     S
Zn867  O881    1.941   .     S
Zn867  O876    1.933   .     S
Zn867  O869    1.930   .     S
Zn868  O879    1.930   .     S
Zn868  O875    1.941   .     S
Zn868  O869    1.929   .     S
Zn868  O870    1.933   .     S
O870   C882    1.264   .     A
O871   C883    1.289   .     A
O872   C884    1.278   .     A
O873   C885    1.268   .     A
O874   C886    1.270   .     A
O875   C887    1.282   .     A
O876   C886    1.275   .     A
O877   C887    1.288   .     A
O878   C884    1.279   .     A
O879   C885    1.269   .     A
O880   C882    1.273   .     A
O881   C883    1.279   .     A
C882   C915    1.444   .     S
C883   C914    1.475   .     S
C884   C919    1.436   .     S
C885   C917    1.451   .     S
C886   C889    1.454   .     S
C887   C888    1.472   .     S
C888   C891    1.399   .     A
C888   C892    1.396   .     A
C889   C904    1.394   .     A
C889   C905    1.394   .     A
C890   C894    1.409   .     A
C890   C891    1.391   .     A
C890   H909    1.081   .     S
C891   H910    1.083   .     S
C892   H911    1.079   .     S
C892   C893    1.409   .     A
C893   C894    1.421   .     A
C893   C895    1.425   .     A
C894   C250    1.406   1_556 S
C895   C899    1.427   .     A
C895   C248    1.425   1_556 S
C896   C902    1.428   .     A
C896   C897    1.414   .     A
C897   C898    1.395   .     A
C897   H912    1.073   .     S
C898   N921    1.438   .     S
C899   C900    1.393   .     A
C899   N934    1.438   .     S
C900   H908    1.085   .     S
C900   C253    1.391   1_556 S
C901   C903    1.403   .     A
C901   C902    1.420   .     A
C902   C905    1.415   .     A
C903   H913    1.084   .     S
C903   C904    1.389   .     A
C904   H907    1.084   .     S
C905   H906    1.076   .     S
C914   C987    1.345   .     S
C914   C996    1.537   .     S
C915   C1058   1.345   1_455 S
C915   H1060   1.087   1_455 S
H916   C987    1.087   .     S
C917   H1134   1.088   .     S
C917   C1135   1.331   .     S
H920   C1135   1.086   .     S
N921   O922    1.301   .     A
N921   O923    1.301   .     A
C924   H933    1.112   .     S
C924   H932    1.112   .     S
C924   C925    1.536   .     S
C924   C1058   1.537   1_455 S
C925   C926    1.526   .     S
C925   H1074   1.112   1_455 S
C925   H1075   1.111   1_455 S
C926   H927    1.111   .     S
C926   H929    1.110   .     S
C926   H928    1.111   .     S
H930   C997    1.112   .     S
H931   C997    1.111   .     S
N934   O936    1.302   .     A
N934   O935    1.302   .     A
Zn937  O950    1.926   .     S
Zn937  O941    1.966   .     S
Zn937  O949    1.922   .     S
Zn937  O943    1.923   .     S
Zn938  O952    1.928   .     S
Zn938  O941    1.940   .     S
Zn938  O946    1.927   .     S
Zn938  O944    1.939   .     S
Zn939  O945    1.930   .     S
Zn939  O953    1.941   .     S
Zn939  O948    1.933   .     S
Zn939  O941    1.930   .     S
Zn940  O951    1.930   .     S
Zn940  O947    1.941   .     S
Zn940  O941    1.929   .     S
Zn940  O942    1.933   .     S
O942   C954    1.264   .     A
O943   C955    1.289   .     A
O944   C956    1.278   .     A
O945   C957    1.268   .     A
O946   C958    1.270   .     A
O947   C959    1.282   .     A
O948   C958    1.275   .     A
O949   C959    1.288   .     A
O950   C956    1.279   .     A
O951   C957    1.269   .     A
O952   C954    1.273   .     A
O953   C955    1.279   .     A
C954   C987    1.444   .     S
C955   C986    1.475   .     S
C956   C991    1.436   .     S
C957   C989    1.451   .     S
C958   C961    1.454   .     S
C959   C960    1.472   .     S
C960   C963    1.399   .     A
C960   C964    1.396   .     A
C961   C976    1.394   .     A
C961   C977    1.394   .     A
C962   C966    1.409   .     A
C962   C963    1.391   .     A
C962   H981    1.081   .     S
C963   H982    1.083   .     S
C964   H983    1.079   .     S
C964   C965    1.409   .     A
C965   C966    1.421   .     A
C965   C967    1.425   .     A
C966   C322    1.406   1_556 S
C967   C971    1.427   .     A
C967   C320    1.425   1_556 S
C968   C974    1.428   .     A
C968   C969    1.414   .     A
C969   C970    1.395   .     A
C969   H984    1.073   .     S
C970   N993    1.438   .     S
C971   C972    1.393   .     A
C971   N1006   1.438   .     S
C972   H980    1.085   .     S
C972   C325    1.391   1_556 S
C973   C975    1.403   .     A
C973   C974    1.420   .     A
C974   C977    1.415   .     A
C975   H985    1.084   .     S
C975   C976    1.389   .     A
C976   H979    1.084   .     S
C977   H978    1.076   .     S
C986   C1059   1.345   .     S
C986   C1068   1.537   .     S
H988   C1059   1.087   .     S
C989   H1206   1.088   .     S
C989   C1207   1.331   .     S
H992   C1207   1.086   .     S
N993   O994    1.301   .     A
N993   O995    1.301   .     A
C996   H1005   1.112   .     S
C996   H1004   1.112   .     S
C996   C997    1.536   .     S
C997   C998    1.526   .     S
C998   H999    1.111   .     S
C998   H1001   1.110   .     S
C998   H1000   1.111   .     S
H1002  C1069   1.112   .     S
H1003  C1069   1.111   .     S
N1006  O1008   1.302   .     A
N1006  O1007   1.302   .     A
Zn1009 O1022   1.926   .     S
Zn1009 O1013   1.966   .     S
Zn1009 O1021   1.922   .     S
Zn1009 O1015   1.923   .     S
Zn1010 O1024   1.928   .     S
Zn1010 O1013   1.940   .     S
Zn1010 O1018   1.927   .     S
Zn1010 O1016   1.939   .     S
Zn1011 O1017   1.930   .     S
Zn1011 O1025   1.941   .     S
Zn1011 O1020   1.933   .     S
Zn1011 O1013   1.930   .     S
Zn1012 O1023   1.930   .     S
Zn1012 O1019   1.941   .     S
Zn1012 O1013   1.929   .     S
Zn1012 O1014   1.933   .     S
O1014  C1026   1.264   .     A
O1015  C1027   1.289   .     A
O1016  C1028   1.278   .     A
O1017  C1029   1.268   .     A
O1018  C1030   1.270   .     A
O1019  C1031   1.282   .     A
O1020  C1030   1.275   .     A
O1021  C1031   1.288   .     A
O1022  C1028   1.279   .     A
O1023  C1029   1.269   .     A
O1024  C1026   1.273   .     A
O1025  C1027   1.279   .     A
C1026  C1059   1.444   .     S
C1027  C1058   1.475   .     S
C1028  C1063   1.436   .     S
C1029  C1061   1.451   .     S
C1030  C1033   1.454   .     S
C1031  C1032   1.472   .     S
C1032  C1035   1.399   .     A
C1032  C1036   1.396   .     A
C1033  C1048   1.394   .     A
C1033  C1049   1.394   .     A
C1034  C1038   1.409   .     A
C1034  C1035   1.391   .     A
C1034  H1053   1.081   .     S
C1035  H1054   1.083   .     S
C1036  H1055   1.079   .     S
C1036  C1037   1.409   .     A
C1037  C1038   1.421   .     A
C1037  C1039   1.425   .     A
C1038  C394    1.406   1_556 S
C1039  C1043   1.427   .     A
C1039  C392    1.425   1_556 S
C1040  C1046   1.428   .     A
C1040  C1041   1.414   .     A
C1041  C1042   1.395   .     A
C1041  H1056   1.073   .     S
C1042  N1065   1.438   .     S
C1043  C1044   1.393   .     A
C1043  N1078   1.438   .     S
C1044  H1052   1.085   .     S
C1044  C397    1.391   1_556 S
C1045  C1047   1.403   .     A
C1045  C1046   1.420   .     A
C1046  C1049   1.415   .     A
C1047  H1057   1.084   .     S
C1047  C1048   1.389   .     A
C1048  H1051   1.084   .     S
C1049  H1050   1.076   .     S
C1058  C915    1.345   1_655 S
C1058  C924    1.537   1_655 S
H1060  C915    1.087   1_655 S
C1061  H1278   1.088   .     S
C1061  C1279   1.331   .     S
H1064  C1279   1.086   .     S
N1065  O1066   1.301   .     A
N1065  O1067   1.301   .     A
C1068  H1077   1.112   .     S
C1068  H1076   1.112   .     S
C1068  C1069   1.536   .     S
C1069  C1070   1.526   .     S
C1070  H1071   1.111   .     S
C1070  H1073   1.110   .     S
C1070  H1072   1.111   .     S
H1074  C925    1.112   1_655 S
H1075  C925    1.111   1_655 S
N1078  O1080   1.302   .     A
N1078  O1079   1.302   .     A
Zn1081 O1094   1.926   .     S
Zn1081 O1085   1.966   .     S
Zn1081 O1093   1.922   .     S
Zn1081 O1087   1.923   .     S
Zn1082 O1096   1.928   .     S
Zn1082 O1085   1.940   .     S
Zn1082 O1090   1.927   .     S
Zn1082 O1088   1.939   .     S
Zn1083 O1089   1.930   .     S
Zn1083 O1097   1.941   .     S
Zn1083 O1092   1.933   .     S
Zn1083 O1085   1.930   .     S
Zn1084 O1095   1.930   .     S
Zn1084 O1091   1.941   .     S
Zn1084 O1085   1.929   .     S
Zn1084 O1086   1.933   .     S
O1086  C1098   1.264   .     A
O1087  C1099   1.289   .     A
O1088  C1100   1.278   .     A
O1089  C1101   1.268   .     A
O1090  C1102   1.270   .     A
O1091  C1103   1.282   .     A
O1092  C1102   1.275   .     A
O1093  C1103   1.288   .     A
O1094  C1100   1.279   .     A
O1095  C1101   1.269   .     A
O1096  C1098   1.273   .     A
O1097  C1099   1.279   .     A
C1098  C1131   1.444   .     S
C1099  C1130   1.475   .     S
C1100  C1135   1.436   .     S
C1101  C1133   1.451   .     S
C1102  C1105   1.454   .     S
C1103  C1104   1.472   .     S
C1104  C1107   1.399   .     A
C1104  C1108   1.396   .     A
C1105  C1120   1.394   .     A
C1105  C1121   1.394   .     A
C1106  C1110   1.409   .     A
C1106  C1107   1.391   .     A
C1106  H1125   1.081   .     S
C1107  H1126   1.083   .     S
C1108  H1127   1.079   .     S
C1108  C1109   1.409   .     A
C1109  C1110   1.421   .     A
C1109  C1111   1.425   .     A
C1110  C466    1.406   1_556 S
C1111  C1115   1.427   .     A
C1111  C464    1.425   1_556 S
C1112  C1118   1.428   .     A
C1112  C1113   1.414   .     A
C1113  C1114   1.395   .     A
C1113  H1128   1.073   .     S
C1114  N1137   1.438   .     S
C1115  C1116   1.393   .     A
C1115  N1150   1.438   .     S
C1116  H1124   1.085   .     S
C1116  C469    1.391   1_556 S
C1117  C1119   1.403   .     A
C1117  C1118   1.420   .     A
C1118  C1121   1.415   .     A
C1119  H1129   1.084   .     S
C1119  C1120   1.389   .     A
C1120  H1123   1.084   .     S
C1121  H1122   1.076   .     S
C1130  C1203   1.345   .     S
C1130  C1212   1.537   .     S
C1131  C1274   1.345   1_455 S
C1131  H1276   1.087   1_455 S
H1132  C1203   1.087   .     S
C1133  H702    1.088   1_565 S
C1133  C703    1.331   1_565 S
H1136  C703    1.086   1_565 S
N1137  O1138   1.301   .     A
N1137  O1139   1.301   .     A
C1140  H1149   1.112   .     S
C1140  H1148   1.112   .     S
C1140  C1141   1.536   .     S
C1140  C1274   1.537   1_455 S
C1141  C1142   1.526   .     S
C1141  H1290   1.112   1_455 S
C1141  H1291   1.111   1_455 S
C1142  H1143   1.111   .     S
C1142  H1145   1.110   .     S
C1142  H1144   1.111   .     S
H1146  C1213   1.112   .     S
H1147  C1213   1.111   .     S
N1150  O1152   1.302   .     A
N1150  O1151   1.302   .     A
Zn1153 O1166   1.926   .     S
Zn1153 O1157   1.966   .     S
Zn1153 O1165   1.922   .     S
Zn1153 O1159   1.923   .     S
Zn1154 O1168   1.928   .     S
Zn1154 O1157   1.940   .     S
Zn1154 O1162   1.927   .     S
Zn1154 O1160   1.939   .     S
Zn1155 O1161   1.930   .     S
Zn1155 O1169   1.941   .     S
Zn1155 O1164   1.933   .     S
Zn1155 O1157   1.930   .     S
Zn1156 O1167   1.930   .     S
Zn1156 O1163   1.941   .     S
Zn1156 O1157   1.929   .     S
Zn1156 O1158   1.933   .     S
O1158  C1170   1.264   .     A
O1159  C1171   1.289   .     A
O1160  C1172   1.278   .     A
O1161  C1173   1.268   .     A
O1162  C1174   1.270   .     A
O1163  C1175   1.282   .     A
O1164  C1174   1.275   .     A
O1165  C1175   1.288   .     A
O1166  C1172   1.279   .     A
O1167  C1173   1.269   .     A
O1168  C1170   1.273   .     A
O1169  C1171   1.279   .     A
C1170  C1203   1.444   .     S
C1171  C1202   1.475   .     S
C1172  C1207   1.436   .     S
C1173  C1205   1.451   .     S
C1174  C1177   1.454   .     S
C1175  C1176   1.472   .     S
C1176  C1179   1.399   .     A
C1176  C1180   1.396   .     A
C1177  C1192   1.394   .     A
C1177  C1193   1.394   .     A
C1178  C1182   1.409   .     A
C1178  C1179   1.391   .     A
C1178  H1197   1.081   .     S
C1179  H1198   1.083   .     S
C1180  H1199   1.079   .     S
C1180  C1181   1.409   .     A
C1181  C1182   1.421   .     A
C1181  C1183   1.425   .     A
C1182  C538    1.406   1_556 S
C1183  C1187   1.427   .     A
C1183  C536    1.425   1_556 S
C1184  C1190   1.428   .     A
C1184  C1185   1.414   .     A
C1185  C1186   1.395   .     A
C1185  H1200   1.073   .     S
C1186  N1209   1.438   .     S
C1187  C1188   1.393   .     A
C1187  N1222   1.438   .     S
C1188  H1196   1.085   .     S
C1188  C541    1.391   1_556 S
C1189  C1191   1.403   .     A
C1189  C1190   1.420   .     A
C1190  C1193   1.415   .     A
C1191  H1201   1.084   .     S
C1191  C1192   1.389   .     A
C1192  H1195   1.084   .     S
C1193  H1194   1.076   .     S
C1202  C1275   1.345   .     S
C1202  C1284   1.537   .     S
H1204  C1275   1.087   .     S
C1205  H774    1.088   1_565 S
C1205  C775    1.331   1_565 S
H1208  C775    1.086   1_565 S
N1209  O1210   1.301   .     A
N1209  O1211   1.301   .     A
C1212  H1221   1.112   .     S
C1212  H1220   1.112   .     S
C1212  C1213   1.536   .     S
C1213  C1214   1.526   .     S
C1214  H1215   1.111   .     S
C1214  H1217   1.110   .     S
C1214  H1216   1.111   .     S
H1218  C1285   1.112   .     S
H1219  C1285   1.111   .     S
N1222  O1224   1.302   .     A
N1222  O1223   1.302   .     A
Zn1225 O1238   1.926   .     S
Zn1225 O1229   1.966   .     S
Zn1225 O1237   1.922   .     S
Zn1225 O1231   1.923   .     S
Zn1226 O1240   1.928   .     S
Zn1226 O1229   1.940   .     S
Zn1226 O1234   1.927   .     S
Zn1226 O1232   1.939   .     S
Zn1227 O1233   1.930   .     S
Zn1227 O1241   1.941   .     S
Zn1227 O1236   1.933   .     S
Zn1227 O1229   1.930   .     S
Zn1228 O1239   1.930   .     S
Zn1228 O1235   1.941   .     S
Zn1228 O1229   1.929   .     S
Zn1228 O1230   1.933   .     S
O1230  C1242   1.264   .     A
O1231  C1243   1.289   .     A
O1232  C1244   1.278   .     A
O1233  C1245   1.268   .     A
O1234  C1246   1.270   .     A
O1235  C1247   1.282   .     A
O1236  C1246   1.275   .     A
O1237  C1247   1.288   .     A
O1238  C1244   1.279   .     A
O1239  C1245   1.269   .     A
O1240  C1242   1.273   .     A
O1241  C1243   1.279   .     A
C1242  C1275   1.444   .     S
C1243  C1274   1.475   .     S
C1244  C1279   1.436   .     S
C1245  C1277   1.451   .     S
C1246  C1249   1.454   .     S
C1247  C1248   1.472   .     S
C1248  C1251   1.399   .     A
C1248  C1252   1.396   .     A
C1249  C1264   1.394   .     A
C1249  C1265   1.394   .     A
C1250  C1254   1.409   .     A
C1250  C1251   1.391   .     A
C1250  H1269   1.081   .     S
C1251  H1270   1.083   .     S
C1252  H1271   1.079   .     S
C1252  C1253   1.409   .     A
C1253  C1254   1.421   .     A
C1253  C1255   1.425   .     A
C1254  C610    1.406   1_556 S
C1255  C1259   1.427   .     A
C1255  C608    1.425   1_556 S
C1256  C1262   1.428   .     A
C1256  C1257   1.414   .     A
C1257  C1258   1.395   .     A
C1257  H1272   1.073   .     S
C1258  N1281   1.438   .     S
C1259  C1260   1.393   .     A
C1259  N1294   1.438   .     S
C1260  H1268   1.085   .     S
C1260  C613    1.391   1_556 S
C1261  C1263   1.403   .     A
C1261  C1262   1.420   .     A
C1262  C1265   1.415   .     A
C1263  H1273   1.084   .     S
C1263  C1264   1.389   .     A
C1264  H1267   1.084   .     S
C1265  H1266   1.076   .     S
C1274  C1131   1.345   1_655 S
C1274  C1140   1.537   1_655 S
H1276  C1131   1.087   1_655 S
C1277  H846    1.088   1_565 S
C1277  C847    1.331   1_565 S
H1280  C847    1.086   1_565 S
N1281  O1282   1.301   .     A
N1281  O1283   1.301   .     A
C1284  H1293   1.112   .     S
C1284  H1292   1.112   .     S
C1284  C1285   1.536   .     S
C1285  C1286   1.526   .     S
C1286  H1287   1.111   .     S
C1286  H1289   1.110   .     S
C1286  H1288   1.111   .     S
H1290  C1141   1.112   1_655 S
H1291  C1141   1.111   1_655 S
N1294  O1296   1.302   .     A
N1294  O1295   1.302   .     A
