data_str_m1_o1_o2_pcu_sym.29
_audit_creation_date              2020-01-03
_audit_creation_method            'Materials Studio'
_symmetry_space_group_name_H-M    'P1'
_symmetry_Int_Tables_number       1
_symmetry_cell_setting            triclinic
loop_
_symmetry_equiv_pos_as_xyz
  x,y,z
_cell_length_a                    36.6621
_cell_length_b                    36.6622
_cell_length_c                    34.5899
_cell_angle_alpha                 90.0003
_cell_angle_beta                  90.0002
_cell_angle_gamma                 90.0009
loop_
_atom_site_label
_atom_site_type_symbol
_atom_site_fract_x
_atom_site_fract_y
_atom_site_fract_z
_atom_site_U_iso_or_equiv
_atom_site_adp_type
_atom_site_occupancy
C1     C     0.21961   0.01117   0.04110   0.00000  Uiso   1.00
C2     C     0.02998   0.23445   0.45837   0.00000  Uiso   1.00
C3     C     0.34813   0.40187   0.75000   0.00000  Uiso   1.00
C4     C     0.40188   0.15185   0.25004   0.00000  Uiso   1.00
C5     C     0.09822   0.34805   0.75013   0.00000  Uiso   1.00
C6     C     0.34813   0.40187   0.25000   0.00000  Uiso   1.00
C7     C     0.15186   0.09814   0.75000   0.00000  Uiso   1.00
C8     C     0.09813   0.15187   0.75000   0.00000  Uiso   1.00
C9     C     0.40186   0.34814   0.25000   0.00000  Uiso   1.00
C10    C     0.15195   0.40178   0.75013   0.00000  Uiso   1.00
C11    C     0.34815   0.09812   0.25004   0.00000  Uiso   1.00
C12    C     0.40186   0.34814   0.75000   0.00000  Uiso   1.00
C13    C     0.23898   0.46956   0.54108   0.00000  Uiso   1.00
C14    C     0.09813   0.15187   0.25000   0.00000  Uiso   1.00
C15    C     0.34822   0.09805   0.74987   0.00000  Uiso   1.00
C16    C     0.15188   0.40185   0.24996   0.00000  Uiso   1.00
C17    C     0.24980   0.49891   0.10222   0.00000  Uiso   1.00
C18    C     0.25019   0.49891   0.89778   0.00000  Uiso   1.00
C19    C     0.00110   0.25020   0.10222   0.00000  Uiso   1.00
C20    C     0.00108   0.24981   0.89777   0.00000  Uiso   1.00
C21    C     0.00020   0.24890   0.60222   0.00000  Uiso   1.00
C22    C     0.49980   0.24892   0.39778   0.00000  Uiso   1.00
C23    C     0.25110   0.49981   0.60222   0.00000  Uiso   1.00
C24    C     0.23871   0.03034   0.45890   0.00000  Uiso   1.00
C25    C     0.25109   0.00020   0.39777   0.00000  Uiso   1.00
C26    C     0.15907   0.00465   0.09727   0.00000  Uiso   1.00
C27    C     0.34093   0.00460   0.90273   0.00000  Uiso   1.00
C28    C     0.06609   0.19224   0.10516   0.00000  Uiso   1.00
C29    C     0.06664   0.30711   0.89479   0.00000  Uiso   1.00
C30    C     0.30741   0.43364   0.10522   0.00000  Uiso   1.00
C31    C     0.19256   0.43363   0.89481   0.00000  Uiso   1.00
C32    C     0.49590   0.34094   0.09730   0.00000  Uiso   1.00
C33    C     0.49487   0.15908   0.90275   0.00000  Uiso   1.00
C34    C     0.44251   0.18367   0.60518   0.00000  Uiso   1.00
C35    C     0.03039   0.26114   0.54109   0.00000  Uiso   1.00
C36    C     0.05737   0.18359   0.39481   0.00000  Uiso   1.00
C37    C     0.24586   0.40906   0.59729   0.00000  Uiso   1.00
C38    C     0.24498   0.09092   0.40273   0.00000  Uiso   1.00
C39    C     0.09093   0.25452   0.59728   0.00000  Uiso   1.00
C40    C     0.40907   0.25472   0.40273   0.00000  Uiso   1.00
C41    C     0.31612   0.05780   0.60508   0.00000  Uiso   1.00
C42    C     0.31658   0.44294   0.39463   0.00000  Uiso   1.00
C43    C     0.46962   0.26120   0.45890   0.00000  Uiso   1.00
C44    C     0.26540   0.03007   0.54162   0.00000  Uiso   1.00
C45    C     0.26566   0.47007   0.45836   0.00000  Uiso   1.00
C46    C     0.21900   0.01144   0.08150   0.00000  Uiso   1.00
C47    C     0.28100   0.01142   0.91850   0.00000  Uiso   1.00
C48    C     0.01535   0.21989   0.08193   0.00000  Uiso   1.00
C49    C     0.28038   0.01116   0.95891   0.00000  Uiso   1.00
C50    C     0.01563   0.27998   0.91804   0.00000  Uiso   1.00
C51    C     0.28004   0.48451   0.08194   0.00000  Uiso   1.00
C52    C     0.21995   0.48450   0.91806   0.00000  Uiso   1.00
C53    C     0.48873   0.28106   0.08149   0.00000  Uiso   1.00
C54    C     0.48841   0.21906   0.91849   0.00000  Uiso   1.00
C55    C     0.46994   0.23452   0.58194   0.00000  Uiso   1.00
C56    C     0.03003   0.23449   0.41806   0.00000  Uiso   1.00
C57    C     0.23872   0.46895   0.58149   0.00000  Uiso   1.00
C58    C     0.23844   0.03095   0.41849   0.00000  Uiso   1.00
C59    C     0.03101   0.26140   0.58150   0.00000  Uiso   1.00
C60    C     0.01538   0.21993   0.04161   0.00000  Uiso   1.00
C61    C     0.46901   0.26146   0.41850   0.00000  Uiso   1.00
C62    C     0.26537   0.03011   0.58193   0.00000  Uiso   1.00
C63    C     0.26562   0.47002   0.41805   0.00000  Uiso   1.00
C64    C     0.24985   0.49759   0.02117   0.00000  Uiso   1.00
C65    C     0.25014   0.49759   0.97883   0.00000  Uiso   1.00
C66    C     0.00241   0.25014   0.02116   0.00000  Uiso   1.00
C67    C     0.00241   0.24986   0.97882   0.00000  Uiso   1.00
C68    C     0.00014   0.24759   0.52117   0.00000  Uiso   1.00
C69    C     0.49985   0.24759   0.47883   0.00000  Uiso   1.00
C70    C     0.25242   0.49987   0.52116   0.00000  Uiso   1.00
C71    C     0.01567   0.27993   0.95836   0.00000  Uiso   1.00
C72    C     0.25242   0.00015   0.47882   0.00000  Uiso   1.00
C73    C     0.25006   0.00003   0.35526   0.00000  Uiso   1.00
C74    C     0.25007   0.49997   0.64474   0.00000  Uiso   1.00
C75    C     0.49997   0.24994   0.35526   0.00000  Uiso   1.00
C76    C     0.00003   0.24993   0.64474   0.00000  Uiso   1.00
C77    C     0.00006   0.24997   0.85526   0.00000  Uiso   1.00
C78    C     0.00007   0.25003   0.14474   0.00000  Uiso   1.00
C79    C     0.25003   0.49993   0.85526   0.00000  Uiso   1.00
C80    C     0.24997   0.49994   0.14474   0.00000  Uiso   1.00
C81    C     0.17993   0.07007   0.25000   0.00000  Uiso   1.00
C82    C     0.27999   0.48447   0.04163   0.00000  Uiso   1.00
C83    C     0.32007   0.42993   0.75000   0.00000  Uiso   1.00
C84    C     0.42994   0.17992   0.25001   0.00000  Uiso   1.00
C85    C     0.07009   0.32005   0.75004   0.00000  Uiso   1.00
C86    C     0.32007   0.42993   0.25000   0.00000  Uiso   1.00
C87    C     0.17993   0.07007   0.75000   0.00000  Uiso   1.00
C88    C     0.07008   0.32006   0.24999   0.00000  Uiso   1.00
C89    C     0.42995   0.17991   0.74996   0.00000  Uiso   1.00
C90    C     0.17995   0.42991   0.75004   0.00000  Uiso   1.00
C91    C     0.32008   0.07006   0.25001   0.00000  Uiso   1.00
C92    C     0.42993   0.32007   0.75000   0.00000  Uiso   1.00
C93    C     0.22000   0.48447   0.95837   0.00000  Uiso   1.00
C94    C     0.07007   0.17993   0.25000   0.00000  Uiso   1.00
C95    C     0.32009   0.07005   0.74996   0.00000  Uiso   1.00
C96    C     0.17994   0.42992   0.24999   0.00000  Uiso   1.00
C97    C     0.07007   0.17993   0.75000   0.00000  Uiso   1.00
C98    C     0.42993   0.32007   0.25000   0.00000  Uiso   1.00
C99    C     0.12201   0.40473   0.22486   0.00000  Uiso   1.00
C100   C     0.37721   0.09606   0.77620   0.00000  Uiso   1.00
C101   C     0.09616   0.12290   0.22363   0.00000  Uiso   1.00
C102   C     0.40475   0.37802   0.77509   0.00000  Uiso   1.00
C103   C     0.37804   0.09522   0.22496   0.00000  Uiso   1.00
C104   C     0.48899   0.28045   0.04109   0.00000  Uiso   1.00
C105   C     0.12301   0.40373   0.77653   0.00000  Uiso   1.00
C106   C     0.40384   0.37712   0.22365   0.00000  Uiso   1.00
C107   C     0.09525   0.12198   0.77509   0.00000  Uiso   1.00
C108   C     0.12198   0.09525   0.77509   0.00000  Uiso   1.00
C109   C     0.37710   0.40384   0.22364   0.00000  Uiso   1.00
C110   C     0.09627   0.37699   0.77653   0.00000  Uiso   1.00
C111   C     0.40478   0.12195   0.22496   0.00000  Uiso   1.00
C112   C     0.37801   0.40475   0.77509   0.00000  Uiso   1.00
C113   C     0.12289   0.09616   0.22364   0.00000  Uiso   1.00
C114   C     0.40394   0.12279   0.77620   0.00000  Uiso   1.00
C115   C     0.48868   0.21968   0.95890   0.00000  Uiso   1.00
C116   C     0.09527   0.37799   0.22486   0.00000  Uiso   1.00
C117   C     0.37301   0.15372   0.72346   0.00000  Uiso   1.00
C118   C     0.12804   0.34523   0.27504   0.00000  Uiso   1.00
C119   C     0.34525   0.37199   0.72491   0.00000  Uiso   1.00
C120   C     0.15384   0.12711   0.27636   0.00000  Uiso   1.00
C121   C     0.12722   0.34605   0.72381   0.00000  Uiso   1.00
C122   C     0.37200   0.15473   0.27514   0.00000  Uiso   1.00
C123   C     0.15475   0.12802   0.72491   0.00000  Uiso   1.00
C124   C     0.34616   0.37290   0.27636   0.00000  Uiso   1.00
C125   C     0.37288   0.34616   0.27635   0.00000  Uiso   1.00
C126   C     0.46999   0.23449   0.54162   0.00000  Uiso   1.00
C127   C     0.12802   0.15475   0.72491   0.00000  Uiso   1.00
C128   C     0.34527   0.12800   0.27514   0.00000  Uiso   1.00
C129   C     0.15395   0.37278   0.72381   0.00000  Uiso   1.00
C130   C     0.12710   0.15384   0.27637   0.00000  Uiso   1.00
C131   C     0.37198   0.34525   0.72491   0.00000  Uiso   1.00
C132   C     0.15477   0.37196   0.27504   0.00000  Uiso   1.00
C133   C     0.34628   0.12698   0.72346   0.00000  Uiso   1.00
C134   C     0.09815   0.34812   0.24996   0.00000  Uiso   1.00
C135   C     0.40195   0.15178   0.74987   0.00000  Uiso   1.00
C136   C     0.15186   0.09814   0.25000   0.00000  Uiso   1.00
H137   H     0.19679   0.02249   0.02522   0.00000  Uiso   1.00
H138   H     0.05346   0.22377   0.47368   0.00000  Uiso   1.00
H139   H     0.22778   0.44668   0.52521   0.00000  Uiso   1.00
H140   H     0.22730   0.05311   0.47477   0.00000  Uiso   1.00
H141   H     0.05323   0.27243   0.52522   0.00000  Uiso   1.00
H142   H     0.44681   0.27253   0.47478   0.00000  Uiso   1.00
H143   H     0.27595   0.05360   0.52630   0.00000  Uiso   1.00
H144   H     0.27642   0.44663   0.47367   0.00000  Uiso   1.00
H145   H     0.11925   0.42758   0.20523   0.00000  Uiso   1.00
H146   H     0.37922   0.07395   0.79687   0.00000  Uiso   1.00
H147   H     0.07407   0.12091   0.20295   0.00000  Uiso   1.00
H148   H     0.30321   0.02247   0.97478   0.00000  Uiso   1.00
H149   H     0.42760   0.38078   0.79472   0.00000  Uiso   1.00
H150   H     0.38081   0.07237   0.20534   0.00000  Uiso   1.00
H151   H     0.12102   0.42583   0.79721   0.00000  Uiso   1.00
H152   H     0.42596   0.37913   0.20299   0.00000  Uiso   1.00
H153   H     0.07239   0.11923   0.79472   0.00000  Uiso   1.00
H154   H     0.11921   0.07239   0.79471   0.00000  Uiso   1.00
H155   H     0.37910   0.42594   0.20297   0.00000  Uiso   1.00
H156   H     0.07417   0.37899   0.79720   0.00000  Uiso   1.00
H157   H     0.42763   0.11919   0.20534   0.00000  Uiso   1.00
H158   H     0.38077   0.42760   0.79472   0.00000  Uiso   1.00
H159   H     0.02591   0.19640   0.02630   0.00000  Uiso   1.00
H160   H     0.12088   0.07405   0.20298   0.00000  Uiso   1.00
H161   H     0.42605   0.12078   0.79687   0.00000  Uiso   1.00
H162   H     0.07242   0.38075   0.20523   0.00000  Uiso   1.00
H163   H     0.37103   0.17581   0.70278   0.00000  Uiso   1.00
H164   H     0.13080   0.32237   0.29467   0.00000  Uiso   1.00
H165   H     0.32240   0.36923   0.70528   0.00000  Uiso   1.00
H166   H     0.17595   0.12912   0.29702   0.00000  Uiso   1.00
H167   H     0.12923   0.32393   0.70315   0.00000  Uiso   1.00
H168   H     0.36925   0.17758   0.29477   0.00000  Uiso   1.00
H169   H     0.17761   0.13078   0.70529   0.00000  Uiso   1.00
H170   H     0.02644   0.30336   0.97367   0.00000  Uiso   1.00
H171   H     0.32406   0.37090   0.29704   0.00000  Uiso   1.00
H172   H     0.37087   0.32404   0.29701   0.00000  Uiso   1.00
H173   H     0.13077   0.17761   0.70528   0.00000  Uiso   1.00
H174   H     0.32242   0.13075   0.29477   0.00000  Uiso   1.00
H175   H     0.17607   0.37077   0.70315   0.00000  Uiso   1.00
H176   H     0.12909   0.17593   0.29705   0.00000  Uiso   1.00
H177   H     0.36922   0.32240   0.70528   0.00000  Uiso   1.00
H178   H     0.17763   0.36920   0.29467   0.00000  Uiso   1.00
H179   H     0.32418   0.12897   0.70278   0.00000  Uiso   1.00
H180   H     0.13727   0.01546   0.11634   0.00000  Uiso   1.00
H181   H     0.30348   0.47381   0.02631   0.00000  Uiso   1.00
H182   H     0.16504   0.47625   0.10686   0.00000  Uiso   1.00
H183   H     0.14830   0.00466   0.06723   0.00000  Uiso   1.00
H184   H     0.36273   0.01541   0.88367   0.00000  Uiso   1.00
H185   H     0.33493   0.47621   0.89311   0.00000  Uiso   1.00
H186   H     0.35168   0.00459   0.93277   0.00000  Uiso   1.00
H187   H     0.07606   0.16839   0.12184   0.00000  Uiso   1.00
H188   H     0.07391   0.21724   0.12147   0.00000  Uiso   1.00
H189   H     0.07981   0.19179   0.07646   0.00000  Uiso   1.00
H190   H     0.07684   0.33086   0.87811   0.00000  Uiso   1.00
H191   H     0.07421   0.28204   0.87847   0.00000  Uiso   1.00
H192   H     0.19651   0.47382   0.97368   0.00000  Uiso   1.00
H193   H     0.08037   0.30743   0.92348   0.00000  Uiso   1.00
H194   H     0.28238   0.42597   0.12156   0.00000  Uiso   1.00
H195   H     0.33121   0.42354   0.12189   0.00000  Uiso   1.00
H196   H     0.30776   0.41988   0.07654   0.00000  Uiso   1.00
H197   H     0.21759   0.42594   0.87847   0.00000  Uiso   1.00
H198   H     0.16876   0.42354   0.87814   0.00000  Uiso   1.00
H199   H     0.19219   0.41990   0.92350   0.00000  Uiso   1.00
H200   H     0.02423   0.33478   0.10697   0.00000  Uiso   1.00
H201   H     0.48518   0.36281   0.11633   0.00000  Uiso   1.00
H202   H     0.49603   0.35169   0.06725   0.00000  Uiso   1.00
H203   H     0.47779   0.30333   0.02521   0.00000  Uiso   1.00
H204   H     0.02332   0.16489   0.89321   0.00000  Uiso   1.00
H205   H     0.48396   0.13735   0.88366   0.00000  Uiso   1.00
H206   H     0.49474   0.14832   0.93279   0.00000  Uiso   1.00
H207   H     0.41870   0.17359   0.62185   0.00000  Uiso   1.00
H208   H     0.46754   0.17595   0.62150   0.00000  Uiso   1.00
H209   H     0.44212   0.16994   0.57648   0.00000  Uiso   1.00
H210   H     0.08115   0.17348   0.37812   0.00000  Uiso   1.00
H211   H     0.03232   0.17592   0.37850   0.00000  Uiso   1.00
H212   H     0.05775   0.16986   0.42350   0.00000  Uiso   1.00
H213   H     0.23514   0.38720   0.61633   0.00000  Uiso   1.00
H214   H     0.47725   0.19691   0.97477   0.00000  Uiso   1.00
H215   H     0.27420   0.41521   0.60694   0.00000  Uiso   1.00
H216   H     0.24598   0.39831   0.56724   0.00000  Uiso   1.00
H217   H     0.23407   0.11266   0.38366   0.00000  Uiso   1.00
H218   H     0.27340   0.08507   0.39315   0.00000  Uiso   1.00
H219   H     0.24490   0.10167   0.43277   0.00000  Uiso   1.00
H220   H     0.08491   0.22614   0.60690   0.00000  Uiso   1.00
H221   H     0.11274   0.26532   0.61633   0.00000  Uiso   1.00
H222   H     0.10168   0.25449   0.56723   0.00000  Uiso   1.00
H223   H     0.41501   0.22632   0.39315   0.00000  Uiso   1.00
H224   H     0.38728   0.26556   0.38367   0.00000  Uiso   1.00
H225   H     0.44649   0.22386   0.52631   0.00000  Uiso   1.00
H226   H     0.39831   0.25475   0.43278   0.00000  Uiso   1.00
H227   H     0.32402   0.03278   0.62131   0.00000  Uiso   1.00
H228   H     0.32610   0.08163   0.62179   0.00000  Uiso   1.00
H229   H     0.32979   0.05835   0.57635   0.00000  Uiso   1.00
H230   H     0.32403   0.46794   0.37813   0.00000  Uiso   1.00
H231   H     0.32678   0.41912   0.37806   0.00000  Uiso   1.00
H232   H     0.33042   0.44281   0.42327   0.00000  Uiso   1.00
O233   O     0.25000  -0.00000   0.25000   0.00000  Uiso   1.00
O234   O     0.25000   0.46964   0.66317   0.00000  Uiso   1.00
O235   O     0.46964   0.25000   0.33683   0.00000  Uiso   1.00
O236   O     0.03036   0.25000   0.66317   0.00000  Uiso   1.00
O237   O     0.00000   0.21964   0.83683   0.00000  Uiso   1.00
O238   O     0.00000   0.28036   0.16317   0.00000  Uiso   1.00
O239   O     0.28036  -0.00000   0.83683   0.00000  Uiso   1.00
O240   O     0.21964  -0.00000   0.16317   0.00000  Uiso   1.00
O241   O     0.00000   0.28036   0.83683   0.00000  Uiso   1.00
O242   O     0.00000   0.21964   0.16317   0.00000  Uiso   1.00
O243   O     0.21964  -0.00000   0.83683   0.00000  Uiso   1.00
O244   O     0.25000  -0.00000   0.75000   0.00000  Uiso   1.00
O245   O     0.28036  -0.00000   0.16317   0.00000  Uiso   1.00
O246   O     0.20726   0.07307   0.27282   0.00000  Uiso   1.00
O247   O     0.29275   0.42693   0.72718   0.00000  Uiso   1.00
O248   O     0.42693   0.20725   0.27282   0.00000  Uiso   1.00
O249   O     0.07307   0.29274   0.72718   0.00000  Uiso   1.00
O250   O     0.29275   0.42693   0.27282   0.00000  Uiso   1.00
O251   O     0.20726   0.07307   0.72718   0.00000  Uiso   1.00
O252   O     0.07307   0.29274   0.27282   0.00000  Uiso   1.00
O253   O     0.42693   0.20725   0.72718   0.00000  Uiso   1.00
O254   O     0.20726   0.42693   0.72718   0.00000  Uiso   1.00
O255   O     0.00000   0.25000   0.25000   0.00000  Uiso   1.00
O256   O     0.29275   0.07307   0.27282   0.00000  Uiso   1.00
O257   O     0.42693   0.29274   0.72718   0.00000  Uiso   1.00
O258   O     0.07307   0.20725   0.27282   0.00000  Uiso   1.00
O259   O     0.29275   0.07307   0.72718   0.00000  Uiso   1.00
O260   O     0.20726   0.42693   0.27282   0.00000  Uiso   1.00
O261   O     0.07307   0.20725   0.72718   0.00000  Uiso   1.00
O262   O     0.42693   0.29274   0.27282   0.00000  Uiso   1.00
O263   O     0.45726   0.32307   0.77282   0.00000  Uiso   1.00
O264   O     0.04275   0.17693   0.22718   0.00000  Uiso   1.00
O265   O     0.17693   0.45725   0.77282   0.00000  Uiso   1.00
O266   O     0.00000   0.25000   0.75000   0.00000  Uiso   1.00
O267   O     0.32307   0.04274   0.22718   0.00000  Uiso   1.00
O268   O     0.04275   0.17693   0.77282   0.00000  Uiso   1.00
O269   O     0.45726   0.32307   0.22718   0.00000  Uiso   1.00
O270   O     0.32307   0.04274   0.77282   0.00000  Uiso   1.00
O271   O     0.17693   0.45725   0.22718   0.00000  Uiso   1.00
O272   O     0.45726   0.17693   0.22718   0.00000  Uiso   1.00
O273   O     0.04275   0.32307   0.77282   0.00000  Uiso   1.00
O274   O     0.17693   0.04274   0.22718   0.00000  Uiso   1.00
O275   O     0.32307   0.45725   0.77282   0.00000  Uiso   1.00
O276   O     0.04275   0.32307   0.22718   0.00000  Uiso   1.00
O277   O     0.25000   0.46964   0.33683   0.00000  Uiso   1.00
O278   O     0.45726   0.17693   0.77282   0.00000  Uiso   1.00
O279   O     0.32307   0.45725   0.22718   0.00000  Uiso   1.00
O280   O     0.17693   0.04274   0.77282   0.00000  Uiso   1.00
O281   O     0.18995   0.02739   0.10070   0.00000  Uiso   1.00
O282   O     0.31006   0.02736   0.89931   0.00000  Uiso   1.00
O283   O     0.02791   0.18937   0.10127   0.00000  Uiso   1.00
O284   O     0.02849   0.31036   0.89868   0.00000  Uiso   1.00
O285   O     0.31049   0.47179   0.10129   0.00000  Uiso   1.00
O286   O     0.18950   0.47179   0.89871   0.00000  Uiso   1.00
O287   O     0.47294   0.31021   0.10068   0.00000  Uiso   1.00
O288   O     0.25000   0.03036   0.66317   0.00000  Uiso   1.00
O289   O     0.47231   0.19010   0.89928   0.00000  Uiso   1.00
O290   O     0.43949   0.22183   0.60129   0.00000  Uiso   1.00
O291   O     0.06047   0.22175   0.39871   0.00000  Uiso   1.00
O292   O     0.22293   0.43981   0.60068   0.00000  Uiso   1.00
O293   O     0.22237   0.05993   0.39929   0.00000  Uiso   1.00
O294   O     0.06008   0.27731   0.60069   0.00000  Uiso   1.00
O295   O     0.43997   0.27744   0.39930   0.00000  Uiso   1.00
O296   O     0.27794   0.06062   0.60128   0.00000  Uiso   1.00
O297   O     0.27846   0.43962   0.39870   0.00000  Uiso   1.00
O298   O     0.03036   0.25000   0.33683   0.00000  Uiso   1.00
O299   O     0.46964   0.25000   0.66317   0.00000  Uiso   1.00
O300   O     0.25000   0.03036   0.33683   0.00000  Uiso   1.00
Zn301  Zn    0.20660  -0.00000   0.21760   0.00000  Uiso   1.00
Zn302  Zn    0.04340   0.25000   0.28240   0.00000  Uiso   1.00
Zn303  Zn    0.25000   0.45660   0.71760   0.00000  Uiso   1.00
Zn304  Zn    0.25000   0.04340   0.28240   0.00000  Uiso   1.00
Zn305  Zn    0.04340   0.25000   0.71760   0.00000  Uiso   1.00
Zn306  Zn    0.45660   0.25000   0.28240   0.00000  Uiso   1.00
Zn307  Zn    0.25000   0.04340   0.71760   0.00000  Uiso   1.00
Zn308  Zn    0.25000   0.45660   0.28240   0.00000  Uiso   1.00
Zn309  Zn    0.29340  -0.00000   0.78240   0.00000  Uiso   1.00
Zn310  Zn    0.00000   0.20660   0.21760   0.00000  Uiso   1.00
Zn311  Zn    0.00000   0.29340   0.78240   0.00000  Uiso   1.00
Zn312  Zn    0.29340  -0.00000   0.21760   0.00000  Uiso   1.00
Zn313  Zn    0.20660  -0.00000   0.78240   0.00000  Uiso   1.00
Zn314  Zn    0.00000   0.29340   0.21760   0.00000  Uiso   1.00
Zn315  Zn    0.00000   0.20660   0.78240   0.00000  Uiso   1.00
Zn316  Zn    0.45660   0.25000   0.71760   0.00000  Uiso   1.00
C317   C     0.71961   0.01117   0.04110   0.00000  Uiso   1.00
C318   C     0.52998   0.23445   0.45837   0.00000  Uiso   1.00
C319   C     0.84813   0.40187   0.75000   0.00000  Uiso   1.00
C320   C     0.90188   0.15185   0.25004   0.00000  Uiso   1.00
C321   C     0.59822   0.34805   0.75013   0.00000  Uiso   1.00
C322   C     0.84813   0.40187   0.25000   0.00000  Uiso   1.00
C323   C     0.65186   0.09814   0.75000   0.00000  Uiso   1.00
C324   C     0.59813   0.15187   0.75000   0.00000  Uiso   1.00
C325   C     0.90186   0.34814   0.25000   0.00000  Uiso   1.00
C326   C     0.65195   0.40178   0.75013   0.00000  Uiso   1.00
C327   C     0.84815   0.09812   0.25004   0.00000  Uiso   1.00
C328   C     0.90186   0.34814   0.75000   0.00000  Uiso   1.00
C329   C     0.73898   0.46956   0.54108   0.00000  Uiso   1.00
C330   C     0.59813   0.15187   0.25000   0.00000  Uiso   1.00
C331   C     0.84822   0.09805   0.74987   0.00000  Uiso   1.00
C332   C     0.65188   0.40185   0.24996   0.00000  Uiso   1.00
C333   C     0.74980   0.49891   0.10222   0.00000  Uiso   1.00
C334   C     0.75019   0.49891   0.89778   0.00000  Uiso   1.00
C335   C     0.50110   0.25020   0.10222   0.00000  Uiso   1.00
C336   C     0.50108   0.24981   0.89777   0.00000  Uiso   1.00
C337   C     0.50020   0.24890   0.60222   0.00000  Uiso   1.00
C338   C     0.99980   0.24892   0.39778   0.00000  Uiso   1.00
C339   C     0.75110   0.49981   0.60222   0.00000  Uiso   1.00
C340   C     0.73871   0.03034   0.45890   0.00000  Uiso   1.00
C341   C     0.75109   0.00020   0.39777   0.00000  Uiso   1.00
C342   C     0.65907   0.00465   0.09727   0.00000  Uiso   1.00
C343   C     0.84093   0.00460   0.90273   0.00000  Uiso   1.00
C344   C     0.56609   0.19224   0.10516   0.00000  Uiso   1.00
C345   C     0.56664   0.30711   0.89479   0.00000  Uiso   1.00
C346   C     0.80741   0.43364   0.10522   0.00000  Uiso   1.00
C347   C     0.69256   0.43363   0.89481   0.00000  Uiso   1.00
C348   C     0.99590   0.34094   0.09730   0.00000  Uiso   1.00
C349   C     0.99487   0.15908   0.90275   0.00000  Uiso   1.00
C350   C     0.94251   0.18367   0.60518   0.00000  Uiso   1.00
C351   C     0.53039   0.26114   0.54109   0.00000  Uiso   1.00
C352   C     0.55737   0.18359   0.39481   0.00000  Uiso   1.00
C353   C     0.74586   0.40906   0.59729   0.00000  Uiso   1.00
C354   C     0.74498   0.09092   0.40273   0.00000  Uiso   1.00
C355   C     0.59093   0.25452   0.59728   0.00000  Uiso   1.00
C356   C     0.90907   0.25472   0.40273   0.00000  Uiso   1.00
C357   C     0.81612   0.05780   0.60508   0.00000  Uiso   1.00
C358   C     0.81658   0.44294   0.39463   0.00000  Uiso   1.00
C359   C     0.96962   0.26120   0.45890   0.00000  Uiso   1.00
C360   C     0.76540   0.03007   0.54162   0.00000  Uiso   1.00
C361   C     0.76566   0.47007   0.45836   0.00000  Uiso   1.00
C362   C     0.71900   0.01144   0.08150   0.00000  Uiso   1.00
C363   C     0.78100   0.01142   0.91850   0.00000  Uiso   1.00
C364   C     0.51535   0.21989   0.08193   0.00000  Uiso   1.00
C365   C     0.78038   0.01116   0.95891   0.00000  Uiso   1.00
C366   C     0.51563   0.27998   0.91804   0.00000  Uiso   1.00
C367   C     0.78004   0.48451   0.08194   0.00000  Uiso   1.00
C368   C     0.71995   0.48450   0.91806   0.00000  Uiso   1.00
C369   C     0.98873   0.28106   0.08149   0.00000  Uiso   1.00
C370   C     0.98841   0.21906   0.91849   0.00000  Uiso   1.00
C371   C     0.96994   0.23452   0.58194   0.00000  Uiso   1.00
C372   C     0.53003   0.23449   0.41806   0.00000  Uiso   1.00
C373   C     0.73872   0.46895   0.58149   0.00000  Uiso   1.00
C374   C     0.73844   0.03095   0.41849   0.00000  Uiso   1.00
C375   C     0.53101   0.26140   0.58150   0.00000  Uiso   1.00
C376   C     0.51538   0.21993   0.04161   0.00000  Uiso   1.00
C377   C     0.96901   0.26146   0.41850   0.00000  Uiso   1.00
C378   C     0.76537   0.03011   0.58193   0.00000  Uiso   1.00
C379   C     0.76562   0.47002   0.41805   0.00000  Uiso   1.00
C380   C     0.74985   0.49759   0.02117   0.00000  Uiso   1.00
C381   C     0.75014   0.49759   0.97883   0.00000  Uiso   1.00
C382   C     0.50241   0.25014   0.02116   0.00000  Uiso   1.00
C383   C     0.50241   0.24986   0.97882   0.00000  Uiso   1.00
C384   C     0.50014   0.24759   0.52117   0.00000  Uiso   1.00
C385   C     0.99985   0.24759   0.47883   0.00000  Uiso   1.00
C386   C     0.75242   0.49987   0.52116   0.00000  Uiso   1.00
C387   C     0.51567   0.27993   0.95836   0.00000  Uiso   1.00
C388   C     0.75242   0.00015   0.47882   0.00000  Uiso   1.00
C389   C     0.75006   0.00003   0.35526   0.00000  Uiso   1.00
C390   C     0.75007   0.49997   0.64474   0.00000  Uiso   1.00
C391   C     0.99997   0.24994   0.35526   0.00000  Uiso   1.00
C392   C     0.50003   0.24993   0.64474   0.00000  Uiso   1.00
C393   C     0.50006   0.24997   0.85526   0.00000  Uiso   1.00
C394   C     0.50007   0.25003   0.14474   0.00000  Uiso   1.00
C395   C     0.75003   0.49993   0.85526   0.00000  Uiso   1.00
C396   C     0.74997   0.49994   0.14474   0.00000  Uiso   1.00
C397   C     0.67993   0.07007   0.25000   0.00000  Uiso   1.00
C398   C     0.77999   0.48447   0.04163   0.00000  Uiso   1.00
C399   C     0.82007   0.42993   0.75000   0.00000  Uiso   1.00
C400   C     0.92994   0.17992   0.25001   0.00000  Uiso   1.00
C401   C     0.57009   0.32005   0.75004   0.00000  Uiso   1.00
C402   C     0.82007   0.42993   0.25000   0.00000  Uiso   1.00
C403   C     0.67993   0.07007   0.75000   0.00000  Uiso   1.00
C404   C     0.57008   0.32006   0.24999   0.00000  Uiso   1.00
C405   C     0.92995   0.17991   0.74996   0.00000  Uiso   1.00
C406   C     0.67995   0.42991   0.75004   0.00000  Uiso   1.00
C407   C     0.82008   0.07006   0.25001   0.00000  Uiso   1.00
C408   C     0.92993   0.32007   0.75000   0.00000  Uiso   1.00
C409   C     0.72000   0.48447   0.95837   0.00000  Uiso   1.00
C410   C     0.57007   0.17993   0.25000   0.00000  Uiso   1.00
C411   C     0.82009   0.07005   0.74996   0.00000  Uiso   1.00
C412   C     0.67994   0.42992   0.24999   0.00000  Uiso   1.00
C413   C     0.57007   0.17993   0.75000   0.00000  Uiso   1.00
C414   C     0.92993   0.32007   0.25000   0.00000  Uiso   1.00
C415   C     0.62201   0.40473   0.22486   0.00000  Uiso   1.00
C416   C     0.87721   0.09606   0.77620   0.00000  Uiso   1.00
C417   C     0.59616   0.12290   0.22363   0.00000  Uiso   1.00
C418   C     0.90475   0.37802   0.77509   0.00000  Uiso   1.00
C419   C     0.87804   0.09522   0.22496   0.00000  Uiso   1.00
C420   C     0.98899   0.28045   0.04109   0.00000  Uiso   1.00
C421   C     0.62301   0.40373   0.77653   0.00000  Uiso   1.00
C422   C     0.90384   0.37712   0.22365   0.00000  Uiso   1.00
C423   C     0.59525   0.12198   0.77509   0.00000  Uiso   1.00
C424   C     0.62198   0.09525   0.77509   0.00000  Uiso   1.00
C425   C     0.87710   0.40384   0.22364   0.00000  Uiso   1.00
C426   C     0.59627   0.37699   0.77653   0.00000  Uiso   1.00
C427   C     0.90478   0.12195   0.22496   0.00000  Uiso   1.00
C428   C     0.87801   0.40475   0.77509   0.00000  Uiso   1.00
C429   C     0.62289   0.09616   0.22364   0.00000  Uiso   1.00
C430   C     0.90394   0.12279   0.77620   0.00000  Uiso   1.00
C431   C     0.98868   0.21968   0.95890   0.00000  Uiso   1.00
C432   C     0.59527   0.37799   0.22486   0.00000  Uiso   1.00
C433   C     0.87301   0.15372   0.72346   0.00000  Uiso   1.00
C434   C     0.62804   0.34523   0.27504   0.00000  Uiso   1.00
C435   C     0.84525   0.37199   0.72491   0.00000  Uiso   1.00
C436   C     0.65384   0.12711   0.27636   0.00000  Uiso   1.00
C437   C     0.62722   0.34605   0.72381   0.00000  Uiso   1.00
C438   C     0.87200   0.15473   0.27514   0.00000  Uiso   1.00
C439   C     0.65475   0.12802   0.72491   0.00000  Uiso   1.00
C440   C     0.84616   0.37290   0.27636   0.00000  Uiso   1.00
C441   C     0.87288   0.34616   0.27635   0.00000  Uiso   1.00
C442   C     0.96999   0.23449   0.54162   0.00000  Uiso   1.00
C443   C     0.62802   0.15475   0.72491   0.00000  Uiso   1.00
C444   C     0.84527   0.12800   0.27514   0.00000  Uiso   1.00
C445   C     0.65395   0.37278   0.72381   0.00000  Uiso   1.00
C446   C     0.62710   0.15384   0.27637   0.00000  Uiso   1.00
C447   C     0.87198   0.34525   0.72491   0.00000  Uiso   1.00
C448   C     0.65477   0.37196   0.27504   0.00000  Uiso   1.00
C449   C     0.84628   0.12698   0.72346   0.00000  Uiso   1.00
C450   C     0.59815   0.34812   0.24996   0.00000  Uiso   1.00
C451   C     0.90195   0.15178   0.74987   0.00000  Uiso   1.00
C452   C     0.65186   0.09814   0.25000   0.00000  Uiso   1.00
H453   H     0.69679   0.02249   0.02522   0.00000  Uiso   1.00
H454   H     0.55346   0.22377   0.47368   0.00000  Uiso   1.00
H455   H     0.72778   0.44668   0.52521   0.00000  Uiso   1.00
H456   H     0.72730   0.05311   0.47477   0.00000  Uiso   1.00
H457   H     0.55323   0.27243   0.52522   0.00000  Uiso   1.00
H458   H     0.94681   0.27253   0.47478   0.00000  Uiso   1.00
H459   H     0.77595   0.05360   0.52630   0.00000  Uiso   1.00
H460   H     0.77642   0.44663   0.47367   0.00000  Uiso   1.00
H461   H     0.61925   0.42758   0.20523   0.00000  Uiso   1.00
H462   H     0.87922   0.07395   0.79687   0.00000  Uiso   1.00
H463   H     0.57407   0.12091   0.20295   0.00000  Uiso   1.00
H464   H     0.80321   0.02247   0.97478   0.00000  Uiso   1.00
H465   H     0.92760   0.38078   0.79472   0.00000  Uiso   1.00
H466   H     0.88081   0.07237   0.20534   0.00000  Uiso   1.00
H467   H     0.62102   0.42583   0.79721   0.00000  Uiso   1.00
H468   H     0.92596   0.37913   0.20299   0.00000  Uiso   1.00
H469   H     0.57239   0.11923   0.79472   0.00000  Uiso   1.00
H470   H     0.61921   0.07239   0.79471   0.00000  Uiso   1.00
H471   H     0.87910   0.42594   0.20297   0.00000  Uiso   1.00
H472   H     0.57417   0.37899   0.79720   0.00000  Uiso   1.00
H473   H     0.92763   0.11919   0.20534   0.00000  Uiso   1.00
H474   H     0.88077   0.42760   0.79472   0.00000  Uiso   1.00
H475   H     0.52591   0.19640   0.02630   0.00000  Uiso   1.00
H476   H     0.62088   0.07405   0.20298   0.00000  Uiso   1.00
H477   H     0.92605   0.12078   0.79687   0.00000  Uiso   1.00
H478   H     0.57242   0.38075   0.20523   0.00000  Uiso   1.00
H479   H     0.87103   0.17581   0.70278   0.00000  Uiso   1.00
H480   H     0.63080   0.32237   0.29467   0.00000  Uiso   1.00
H481   H     0.82240   0.36923   0.70528   0.00000  Uiso   1.00
H482   H     0.67595   0.12912   0.29702   0.00000  Uiso   1.00
H483   H     0.62923   0.32393   0.70315   0.00000  Uiso   1.00
H484   H     0.86925   0.17758   0.29477   0.00000  Uiso   1.00
H485   H     0.67761   0.13078   0.70529   0.00000  Uiso   1.00
H486   H     0.52644   0.30336   0.97367   0.00000  Uiso   1.00
H487   H     0.82406   0.37090   0.29704   0.00000  Uiso   1.00
H488   H     0.87087   0.32404   0.29701   0.00000  Uiso   1.00
H489   H     0.63077   0.17761   0.70528   0.00000  Uiso   1.00
H490   H     0.82242   0.13075   0.29477   0.00000  Uiso   1.00
H491   H     0.67607   0.37077   0.70315   0.00000  Uiso   1.00
H492   H     0.62909   0.17593   0.29705   0.00000  Uiso   1.00
H493   H     0.86922   0.32240   0.70528   0.00000  Uiso   1.00
H494   H     0.67763   0.36920   0.29467   0.00000  Uiso   1.00
H495   H     0.82418   0.12897   0.70278   0.00000  Uiso   1.00
H496   H     0.63727   0.01546   0.11634   0.00000  Uiso   1.00
H497   H     0.80348   0.47381   0.02631   0.00000  Uiso   1.00
H498   H     0.66504   0.47625   0.10686   0.00000  Uiso   1.00
H499   H     0.64830   0.00466   0.06723   0.00000  Uiso   1.00
H500   H     0.86273   0.01541   0.88367   0.00000  Uiso   1.00
H501   H     0.83493   0.47621   0.89311   0.00000  Uiso   1.00
H502   H     0.85168   0.00459   0.93277   0.00000  Uiso   1.00
H503   H     0.57606   0.16839   0.12184   0.00000  Uiso   1.00
H504   H     0.57391   0.21724   0.12147   0.00000  Uiso   1.00
H505   H     0.57981   0.19179   0.07646   0.00000  Uiso   1.00
H506   H     0.57684   0.33086   0.87811   0.00000  Uiso   1.00
H507   H     0.57421   0.28204   0.87847   0.00000  Uiso   1.00
H508   H     0.69651   0.47382   0.97368   0.00000  Uiso   1.00
H509   H     0.58037   0.30743   0.92348   0.00000  Uiso   1.00
H510   H     0.78238   0.42597   0.12156   0.00000  Uiso   1.00
H511   H     0.83121   0.42354   0.12189   0.00000  Uiso   1.00
H512   H     0.80776   0.41988   0.07654   0.00000  Uiso   1.00
H513   H     0.71759   0.42594   0.87847   0.00000  Uiso   1.00
H514   H     0.66876   0.42354   0.87814   0.00000  Uiso   1.00
H515   H     0.69219   0.41990   0.92350   0.00000  Uiso   1.00
H516   H     0.52423   0.33478   0.10697   0.00000  Uiso   1.00
H517   H     0.98518   0.36281   0.11633   0.00000  Uiso   1.00
H518   H     0.99603   0.35169   0.06725   0.00000  Uiso   1.00
H519   H     0.97779   0.30333   0.02521   0.00000  Uiso   1.00
H520   H     0.52332   0.16489   0.89321   0.00000  Uiso   1.00
H521   H     0.98396   0.13735   0.88366   0.00000  Uiso   1.00
H522   H     0.99474   0.14832   0.93279   0.00000  Uiso   1.00
H523   H     0.91870   0.17359   0.62185   0.00000  Uiso   1.00
H524   H     0.96754   0.17595   0.62150   0.00000  Uiso   1.00
H525   H     0.94212   0.16994   0.57648   0.00000  Uiso   1.00
H526   H     0.58115   0.17348   0.37812   0.00000  Uiso   1.00
H527   H     0.53232   0.17592   0.37850   0.00000  Uiso   1.00
H528   H     0.55775   0.16986   0.42350   0.00000  Uiso   1.00
H529   H     0.73514   0.38720   0.61633   0.00000  Uiso   1.00
H530   H     0.97725   0.19691   0.97477   0.00000  Uiso   1.00
H531   H     0.77420   0.41521   0.60694   0.00000  Uiso   1.00
H532   H     0.74598   0.39831   0.56724   0.00000  Uiso   1.00
H533   H     0.73407   0.11266   0.38366   0.00000  Uiso   1.00
H534   H     0.77340   0.08507   0.39315   0.00000  Uiso   1.00
H535   H     0.74490   0.10167   0.43277   0.00000  Uiso   1.00
H536   H     0.58491   0.22614   0.60690   0.00000  Uiso   1.00
H537   H     0.61274   0.26532   0.61633   0.00000  Uiso   1.00
H538   H     0.60168   0.25449   0.56723   0.00000  Uiso   1.00
H539   H     0.91501   0.22632   0.39315   0.00000  Uiso   1.00
H540   H     0.88728   0.26556   0.38367   0.00000  Uiso   1.00
H541   H     0.94649   0.22386   0.52631   0.00000  Uiso   1.00
H542   H     0.89831   0.25475   0.43278   0.00000  Uiso   1.00
H543   H     0.82402   0.03278   0.62131   0.00000  Uiso   1.00
H544   H     0.82610   0.08163   0.62179   0.00000  Uiso   1.00
H545   H     0.82979   0.05835   0.57635   0.00000  Uiso   1.00
H546   H     0.82403   0.46794   0.37813   0.00000  Uiso   1.00
H547   H     0.82678   0.41912   0.37806   0.00000  Uiso   1.00
H548   H     0.83042   0.44281   0.42327   0.00000  Uiso   1.00
O549   O     0.75000  -0.00000   0.25000   0.00000  Uiso   1.00
O550   O     0.75000   0.46964   0.66317   0.00000  Uiso   1.00
O551   O     0.96964   0.25000   0.33683   0.00000  Uiso   1.00
O552   O     0.53036   0.25000   0.66317   0.00000  Uiso   1.00
O553   O     0.50000   0.21964   0.83683   0.00000  Uiso   1.00
O554   O     0.50000   0.28036   0.16317   0.00000  Uiso   1.00
O555   O     0.78036  -0.00000   0.83683   0.00000  Uiso   1.00
O556   O     0.71964  -0.00000   0.16317   0.00000  Uiso   1.00
O557   O     0.50000   0.28036   0.83683   0.00000  Uiso   1.00
O558   O     0.50000   0.21964   0.16317   0.00000  Uiso   1.00
O559   O     0.71964  -0.00000   0.83683   0.00000  Uiso   1.00
O560   O     0.75000  -0.00000   0.75000   0.00000  Uiso   1.00
O561   O     0.78036  -0.00000   0.16317   0.00000  Uiso   1.00
O562   O     0.70726   0.07307   0.27282   0.00000  Uiso   1.00
O563   O     0.79275   0.42693   0.72718   0.00000  Uiso   1.00
O564   O     0.92693   0.20725   0.27282   0.00000  Uiso   1.00
O565   O     0.57307   0.29274   0.72718   0.00000  Uiso   1.00
O566   O     0.79275   0.42693   0.27282   0.00000  Uiso   1.00
O567   O     0.70726   0.07307   0.72718   0.00000  Uiso   1.00
O568   O     0.57307   0.29274   0.27282   0.00000  Uiso   1.00
O569   O     0.92693   0.20725   0.72718   0.00000  Uiso   1.00
O570   O     0.70726   0.42693   0.72718   0.00000  Uiso   1.00
O571   O     0.50000   0.25000   0.25000   0.00000  Uiso   1.00
O572   O     0.79275   0.07307   0.27282   0.00000  Uiso   1.00
O573   O     0.92693   0.29274   0.72718   0.00000  Uiso   1.00
O574   O     0.57307   0.20725   0.27282   0.00000  Uiso   1.00
O575   O     0.79275   0.07307   0.72718   0.00000  Uiso   1.00
O576   O     0.70726   0.42693   0.27282   0.00000  Uiso   1.00
O577   O     0.57307   0.20725   0.72718   0.00000  Uiso   1.00
O578   O     0.92693   0.29274   0.27282   0.00000  Uiso   1.00
O579   O     0.95726   0.32307   0.77282   0.00000  Uiso   1.00
O580   O     0.54275   0.17693   0.22718   0.00000  Uiso   1.00
O581   O     0.67693   0.45725   0.77282   0.00000  Uiso   1.00
O582   O     0.50000   0.25000   0.75000   0.00000  Uiso   1.00
O583   O     0.82307   0.04274   0.22718   0.00000  Uiso   1.00
O584   O     0.54275   0.17693   0.77282   0.00000  Uiso   1.00
O585   O     0.95726   0.32307   0.22718   0.00000  Uiso   1.00
O586   O     0.82307   0.04274   0.77282   0.00000  Uiso   1.00
O587   O     0.67693   0.45725   0.22718   0.00000  Uiso   1.00
O588   O     0.95726   0.17693   0.22718   0.00000  Uiso   1.00
O589   O     0.54275   0.32307   0.77282   0.00000  Uiso   1.00
O590   O     0.67693   0.04274   0.22718   0.00000  Uiso   1.00
O591   O     0.82307   0.45725   0.77282   0.00000  Uiso   1.00
O592   O     0.54275   0.32307   0.22718   0.00000  Uiso   1.00
O593   O     0.75000   0.46964   0.33683   0.00000  Uiso   1.00
O594   O     0.95726   0.17693   0.77282   0.00000  Uiso   1.00
O595   O     0.82307   0.45725   0.22718   0.00000  Uiso   1.00
O596   O     0.67693   0.04274   0.77282   0.00000  Uiso   1.00
O597   O     0.68995   0.02739   0.10070   0.00000  Uiso   1.00
O598   O     0.81006   0.02736   0.89931   0.00000  Uiso   1.00
O599   O     0.52791   0.18937   0.10127   0.00000  Uiso   1.00
O600   O     0.52849   0.31036   0.89868   0.00000  Uiso   1.00
O601   O     0.81049   0.47179   0.10129   0.00000  Uiso   1.00
O602   O     0.68950   0.47179   0.89871   0.00000  Uiso   1.00
O603   O     0.97294   0.31021   0.10068   0.00000  Uiso   1.00
O604   O     0.75000   0.03036   0.66317   0.00000  Uiso   1.00
O605   O     0.97231   0.19010   0.89928   0.00000  Uiso   1.00
O606   O     0.93949   0.22183   0.60129   0.00000  Uiso   1.00
O607   O     0.56047   0.22175   0.39871   0.00000  Uiso   1.00
O608   O     0.72293   0.43981   0.60068   0.00000  Uiso   1.00
O609   O     0.72237   0.05993   0.39929   0.00000  Uiso   1.00
O610   O     0.56008   0.27731   0.60069   0.00000  Uiso   1.00
O611   O     0.93997   0.27744   0.39930   0.00000  Uiso   1.00
O612   O     0.77794   0.06062   0.60128   0.00000  Uiso   1.00
O613   O     0.77846   0.43962   0.39870   0.00000  Uiso   1.00
O614   O     0.53036   0.25000   0.33683   0.00000  Uiso   1.00
O615   O     0.96964   0.25000   0.66317   0.00000  Uiso   1.00
O616   O     0.75000   0.03036   0.33683   0.00000  Uiso   1.00
Zn617  Zn    0.70660  -0.00000   0.21760   0.00000  Uiso   1.00
Zn618  Zn    0.54340   0.25000   0.28240   0.00000  Uiso   1.00
Zn619  Zn    0.75000   0.45660   0.71760   0.00000  Uiso   1.00
Zn620  Zn    0.75000   0.04340   0.28240   0.00000  Uiso   1.00
Zn621  Zn    0.54340   0.25000   0.71760   0.00000  Uiso   1.00
Zn622  Zn    0.95660   0.25000   0.28240   0.00000  Uiso   1.00
Zn623  Zn    0.75000   0.04340   0.71760   0.00000  Uiso   1.00
Zn624  Zn    0.75000   0.45660   0.28240   0.00000  Uiso   1.00
Zn625  Zn    0.79340  -0.00000   0.78240   0.00000  Uiso   1.00
Zn626  Zn    0.50000   0.20660   0.21760   0.00000  Uiso   1.00
Zn627  Zn    0.50000   0.29340   0.78240   0.00000  Uiso   1.00
Zn628  Zn    0.79340  -0.00000   0.21760   0.00000  Uiso   1.00
Zn629  Zn    0.70660  -0.00000   0.78240   0.00000  Uiso   1.00
Zn630  Zn    0.50000   0.29340   0.21760   0.00000  Uiso   1.00
Zn631  Zn    0.50000   0.20660   0.78240   0.00000  Uiso   1.00
Zn632  Zn    0.95660   0.25000   0.71760   0.00000  Uiso   1.00
C633   C     0.21961   0.51117   0.04110   0.00000  Uiso   1.00
C634   C     0.02998   0.73445   0.45837   0.00000  Uiso   1.00
C635   C     0.34813   0.90187   0.75000   0.00000  Uiso   1.00
C636   C     0.40188   0.65185   0.25004   0.00000  Uiso   1.00
C637   C     0.09822   0.84805   0.75013   0.00000  Uiso   1.00
C638   C     0.34813   0.90187   0.25000   0.00000  Uiso   1.00
C639   C     0.15186   0.59814   0.75000   0.00000  Uiso   1.00
C640   C     0.09813   0.65187   0.75000   0.00000  Uiso   1.00
C641   C     0.40186   0.84814   0.25000   0.00000  Uiso   1.00
C642   C     0.15195   0.90178   0.75013   0.00000  Uiso   1.00
C643   C     0.34815   0.59812   0.25004   0.00000  Uiso   1.00
C644   C     0.40186   0.84814   0.75000   0.00000  Uiso   1.00
C645   C     0.23898   0.96956   0.54108   0.00000  Uiso   1.00
C646   C     0.09813   0.65187   0.25000   0.00000  Uiso   1.00
C647   C     0.34822   0.59805   0.74987   0.00000  Uiso   1.00
C648   C     0.15188   0.90185   0.24996   0.00000  Uiso   1.00
C649   C     0.24980   0.99891   0.10222   0.00000  Uiso   1.00
C650   C     0.25019   0.99891   0.89778   0.00000  Uiso   1.00
C651   C     0.00110   0.75020   0.10222   0.00000  Uiso   1.00
C652   C     0.00108   0.74981   0.89777   0.00000  Uiso   1.00
C653   C     0.00020   0.74890   0.60222   0.00000  Uiso   1.00
C654   C     0.49980   0.74892   0.39778   0.00000  Uiso   1.00
C655   C     0.25110   0.99981   0.60222   0.00000  Uiso   1.00
C656   C     0.23871   0.53034   0.45890   0.00000  Uiso   1.00
C657   C     0.25109   0.50020   0.39777   0.00000  Uiso   1.00
C658   C     0.15907   0.50465   0.09727   0.00000  Uiso   1.00
C659   C     0.34093   0.50460   0.90273   0.00000  Uiso   1.00
C660   C     0.06609   0.69224   0.10516   0.00000  Uiso   1.00
C661   C     0.06664   0.80711   0.89479   0.00000  Uiso   1.00
C662   C     0.30741   0.93364   0.10522   0.00000  Uiso   1.00
C663   C     0.19256   0.93363   0.89481   0.00000  Uiso   1.00
C664   C     0.49590   0.84094   0.09730   0.00000  Uiso   1.00
C665   C     0.49487   0.65908   0.90275   0.00000  Uiso   1.00
C666   C     0.44251   0.68367   0.60518   0.00000  Uiso   1.00
C667   C     0.03039   0.76114   0.54109   0.00000  Uiso   1.00
C668   C     0.05737   0.68359   0.39481   0.00000  Uiso   1.00
C669   C     0.24586   0.90906   0.59729   0.00000  Uiso   1.00
C670   C     0.24498   0.59092   0.40273   0.00000  Uiso   1.00
C671   C     0.09093   0.75452   0.59728   0.00000  Uiso   1.00
C672   C     0.40907   0.75472   0.40273   0.00000  Uiso   1.00
C673   C     0.31612   0.55780   0.60508   0.00000  Uiso   1.00
C674   C     0.31658   0.94294   0.39463   0.00000  Uiso   1.00
C675   C     0.46962   0.76120   0.45890   0.00000  Uiso   1.00
C676   C     0.26540   0.53007   0.54162   0.00000  Uiso   1.00
C677   C     0.26566   0.97007   0.45836   0.00000  Uiso   1.00
C678   C     0.21900   0.51144   0.08150   0.00000  Uiso   1.00
C679   C     0.28100   0.51142   0.91850   0.00000  Uiso   1.00
C680   C     0.01535   0.71989   0.08193   0.00000  Uiso   1.00
C681   C     0.28038   0.51116   0.95891   0.00000  Uiso   1.00
C682   C     0.01563   0.77998   0.91804   0.00000  Uiso   1.00
C683   C     0.28004   0.98451   0.08194   0.00000  Uiso   1.00
C684   C     0.21995   0.98450   0.91806   0.00000  Uiso   1.00
C685   C     0.48873   0.78106   0.08149   0.00000  Uiso   1.00
C686   C     0.48841   0.71906   0.91849   0.00000  Uiso   1.00
C687   C     0.46994   0.73452   0.58194   0.00000  Uiso   1.00
C688   C     0.03003   0.73449   0.41806   0.00000  Uiso   1.00
C689   C     0.23872   0.96895   0.58149   0.00000  Uiso   1.00
C690   C     0.23844   0.53095   0.41849   0.00000  Uiso   1.00
C691   C     0.03101   0.76140   0.58150   0.00000  Uiso   1.00
C692   C     0.01538   0.71993   0.04161   0.00000  Uiso   1.00
C693   C     0.46901   0.76146   0.41850   0.00000  Uiso   1.00
C694   C     0.26537   0.53011   0.58193   0.00000  Uiso   1.00
C695   C     0.26562   0.97002   0.41805   0.00000  Uiso   1.00
C696   C     0.24985   0.99759   0.02117   0.00000  Uiso   1.00
C697   C     0.25014   0.99759   0.97883   0.00000  Uiso   1.00
C698   C     0.00241   0.75014   0.02116   0.00000  Uiso   1.00
C699   C     0.00241   0.74986   0.97882   0.00000  Uiso   1.00
C700   C     0.00014   0.74759   0.52117   0.00000  Uiso   1.00
C701   C     0.49985   0.74759   0.47883   0.00000  Uiso   1.00
C702   C     0.25242   0.99987   0.52116   0.00000  Uiso   1.00
C703   C     0.01567   0.77993   0.95836   0.00000  Uiso   1.00
C704   C     0.25242   0.50015   0.47882   0.00000  Uiso   1.00
C705   C     0.25006   0.50003   0.35526   0.00000  Uiso   1.00
C706   C     0.25007   0.99997   0.64474   0.00000  Uiso   1.00
C707   C     0.49997   0.74994   0.35526   0.00000  Uiso   1.00
C708   C     0.00003   0.74993   0.64474   0.00000  Uiso   1.00
C709   C     0.00006   0.74997   0.85526   0.00000  Uiso   1.00
C710   C     0.00007   0.75003   0.14474   0.00000  Uiso   1.00
C711   C     0.25003   0.99993   0.85526   0.00000  Uiso   1.00
C712   C     0.24997   0.99994   0.14474   0.00000  Uiso   1.00
C713   C     0.17993   0.57007   0.25000   0.00000  Uiso   1.00
C714   C     0.27999   0.98447   0.04163   0.00000  Uiso   1.00
C715   C     0.32007   0.92993   0.75000   0.00000  Uiso   1.00
C716   C     0.42994   0.67992   0.25001   0.00000  Uiso   1.00
C717   C     0.07009   0.82005   0.75004   0.00000  Uiso   1.00
C718   C     0.32007   0.92993   0.25000   0.00000  Uiso   1.00
C719   C     0.17993   0.57007   0.75000   0.00000  Uiso   1.00
C720   C     0.07008   0.82006   0.24999   0.00000  Uiso   1.00
C721   C     0.42995   0.67991   0.74996   0.00000  Uiso   1.00
C722   C     0.17995   0.92991   0.75004   0.00000  Uiso   1.00
C723   C     0.32008   0.57006   0.25001   0.00000  Uiso   1.00
C724   C     0.42993   0.82007   0.75000   0.00000  Uiso   1.00
C725   C     0.22000   0.98447   0.95837   0.00000  Uiso   1.00
C726   C     0.07007   0.67993   0.25000   0.00000  Uiso   1.00
C727   C     0.32009   0.57005   0.74996   0.00000  Uiso   1.00
C728   C     0.17994   0.92992   0.24999   0.00000  Uiso   1.00
C729   C     0.07007   0.67993   0.75000   0.00000  Uiso   1.00
C730   C     0.42993   0.82007   0.25000   0.00000  Uiso   1.00
C731   C     0.12201   0.90473   0.22486   0.00000  Uiso   1.00
C732   C     0.37721   0.59606   0.77620   0.00000  Uiso   1.00
C733   C     0.09616   0.62290   0.22363   0.00000  Uiso   1.00
C734   C     0.40475   0.87802   0.77509   0.00000  Uiso   1.00
C735   C     0.37804   0.59522   0.22496   0.00000  Uiso   1.00
C736   C     0.48899   0.78045   0.04109   0.00000  Uiso   1.00
C737   C     0.12301   0.90373   0.77653   0.00000  Uiso   1.00
C738   C     0.40384   0.87712   0.22365   0.00000  Uiso   1.00
C739   C     0.09525   0.62198   0.77509   0.00000  Uiso   1.00
C740   C     0.12198   0.59525   0.77509   0.00000  Uiso   1.00
C741   C     0.37710   0.90384   0.22364   0.00000  Uiso   1.00
C742   C     0.09627   0.87699   0.77653   0.00000  Uiso   1.00
C743   C     0.40478   0.62195   0.22496   0.00000  Uiso   1.00
C744   C     0.37801   0.90475   0.77509   0.00000  Uiso   1.00
C745   C     0.12289   0.59616   0.22364   0.00000  Uiso   1.00
C746   C     0.40394   0.62279   0.77620   0.00000  Uiso   1.00
C747   C     0.48868   0.71968   0.95890   0.00000  Uiso   1.00
C748   C     0.09527   0.87799   0.22486   0.00000  Uiso   1.00
C749   C     0.37301   0.65372   0.72346   0.00000  Uiso   1.00
C750   C     0.12804   0.84523   0.27504   0.00000  Uiso   1.00
C751   C     0.34525   0.87199   0.72491   0.00000  Uiso   1.00
C752   C     0.15384   0.62711   0.27636   0.00000  Uiso   1.00
C753   C     0.12722   0.84605   0.72381   0.00000  Uiso   1.00
C754   C     0.37200   0.65473   0.27514   0.00000  Uiso   1.00
C755   C     0.15475   0.62802   0.72491   0.00000  Uiso   1.00
C756   C     0.34616   0.87290   0.27636   0.00000  Uiso   1.00
C757   C     0.37288   0.84616   0.27635   0.00000  Uiso   1.00
C758   C     0.46999   0.73449   0.54162   0.00000  Uiso   1.00
C759   C     0.12802   0.65475   0.72491   0.00000  Uiso   1.00
C760   C     0.34527   0.62800   0.27514   0.00000  Uiso   1.00
C761   C     0.15395   0.87278   0.72381   0.00000  Uiso   1.00
C762   C     0.12710   0.65384   0.27637   0.00000  Uiso   1.00
C763   C     0.37198   0.84525   0.72491   0.00000  Uiso   1.00
C764   C     0.15477   0.87196   0.27504   0.00000  Uiso   1.00
C765   C     0.34628   0.62698   0.72346   0.00000  Uiso   1.00
C766   C     0.09815   0.84812   0.24996   0.00000  Uiso   1.00
C767   C     0.40195   0.65178   0.74987   0.00000  Uiso   1.00
C768   C     0.15186   0.59814   0.25000   0.00000  Uiso   1.00
H769   H     0.19679   0.52249   0.02522   0.00000  Uiso   1.00
H770   H     0.05346   0.72377   0.47368   0.00000  Uiso   1.00
H771   H     0.22778   0.94668   0.52521   0.00000  Uiso   1.00
H772   H     0.22730   0.55311   0.47477   0.00000  Uiso   1.00
H773   H     0.05323   0.77243   0.52522   0.00000  Uiso   1.00
H774   H     0.44681   0.77253   0.47478   0.00000  Uiso   1.00
H775   H     0.27595   0.55360   0.52630   0.00000  Uiso   1.00
H776   H     0.27642   0.94663   0.47367   0.00000  Uiso   1.00
H777   H     0.11925   0.92758   0.20523   0.00000  Uiso   1.00
H778   H     0.37922   0.57395   0.79687   0.00000  Uiso   1.00
H779   H     0.07407   0.62091   0.20295   0.00000  Uiso   1.00
H780   H     0.30321   0.52247   0.97478   0.00000  Uiso   1.00
H781   H     0.42760   0.88078   0.79472   0.00000  Uiso   1.00
H782   H     0.38081   0.57237   0.20534   0.00000  Uiso   1.00
H783   H     0.12102   0.92583   0.79721   0.00000  Uiso   1.00
H784   H     0.42596   0.87913   0.20299   0.00000  Uiso   1.00
H785   H     0.07239   0.61923   0.79472   0.00000  Uiso   1.00
H786   H     0.11921   0.57239   0.79471   0.00000  Uiso   1.00
H787   H     0.37910   0.92594   0.20297   0.00000  Uiso   1.00
H788   H     0.07417   0.87899   0.79720   0.00000  Uiso   1.00
H789   H     0.42763   0.61919   0.20534   0.00000  Uiso   1.00
H790   H     0.38077   0.92760   0.79472   0.00000  Uiso   1.00
H791   H     0.02591   0.69640   0.02630   0.00000  Uiso   1.00
H792   H     0.12088   0.57405   0.20298   0.00000  Uiso   1.00
H793   H     0.42605   0.62078   0.79687   0.00000  Uiso   1.00
H794   H     0.07242   0.88075   0.20523   0.00000  Uiso   1.00
H795   H     0.37103   0.67581   0.70278   0.00000  Uiso   1.00
H796   H     0.13080   0.82237   0.29467   0.00000  Uiso   1.00
H797   H     0.32240   0.86923   0.70528   0.00000  Uiso   1.00
H798   H     0.17595   0.62912   0.29702   0.00000  Uiso   1.00
H799   H     0.12923   0.82393   0.70315   0.00000  Uiso   1.00
H800   H     0.36925   0.67758   0.29477   0.00000  Uiso   1.00
H801   H     0.17761   0.63078   0.70529   0.00000  Uiso   1.00
H802   H     0.02644   0.80336   0.97367   0.00000  Uiso   1.00
H803   H     0.32406   0.87090   0.29704   0.00000  Uiso   1.00
H804   H     0.37087   0.82404   0.29701   0.00000  Uiso   1.00
H805   H     0.13077   0.67761   0.70528   0.00000  Uiso   1.00
H806   H     0.32242   0.63075   0.29477   0.00000  Uiso   1.00
H807   H     0.17607   0.87077   0.70315   0.00000  Uiso   1.00
H808   H     0.12909   0.67593   0.29705   0.00000  Uiso   1.00
H809   H     0.36922   0.82240   0.70528   0.00000  Uiso   1.00
H810   H     0.17763   0.86920   0.29467   0.00000  Uiso   1.00
H811   H     0.32418   0.62897   0.70278   0.00000  Uiso   1.00
H812   H     0.13727   0.51546   0.11634   0.00000  Uiso   1.00
H813   H     0.30348   0.97381   0.02631   0.00000  Uiso   1.00
H814   H     0.16504   0.97625   0.10686   0.00000  Uiso   1.00
H815   H     0.14830   0.50466   0.06723   0.00000  Uiso   1.00
H816   H     0.36273   0.51541   0.88367   0.00000  Uiso   1.00
H817   H     0.33493   0.97621   0.89311   0.00000  Uiso   1.00
H818   H     0.35168   0.50459   0.93277   0.00000  Uiso   1.00
H819   H     0.07606   0.66839   0.12184   0.00000  Uiso   1.00
H820   H     0.07391   0.71724   0.12147   0.00000  Uiso   1.00
H821   H     0.07981   0.69179   0.07646   0.00000  Uiso   1.00
H822   H     0.07684   0.83086   0.87811   0.00000  Uiso   1.00
H823   H     0.07421   0.78204   0.87847   0.00000  Uiso   1.00
H824   H     0.19651   0.97382   0.97368   0.00000  Uiso   1.00
H825   H     0.08037   0.80743   0.92348   0.00000  Uiso   1.00
H826   H     0.28238   0.92597   0.12156   0.00000  Uiso   1.00
H827   H     0.33121   0.92354   0.12189   0.00000  Uiso   1.00
H828   H     0.30776   0.91988   0.07654   0.00000  Uiso   1.00
H829   H     0.21759   0.92594   0.87847   0.00000  Uiso   1.00
H830   H     0.16876   0.92354   0.87814   0.00000  Uiso   1.00
H831   H     0.19219   0.91990   0.92350   0.00000  Uiso   1.00
H832   H     0.02423   0.83478   0.10697   0.00000  Uiso   1.00
H833   H     0.48518   0.86281   0.11633   0.00000  Uiso   1.00
H834   H     0.49603   0.85169   0.06725   0.00000  Uiso   1.00
H835   H     0.47779   0.80333   0.02521   0.00000  Uiso   1.00
H836   H     0.02332   0.66489   0.89321   0.00000  Uiso   1.00
H837   H     0.48396   0.63735   0.88366   0.00000  Uiso   1.00
H838   H     0.49474   0.64832   0.93279   0.00000  Uiso   1.00
H839   H     0.41870   0.67359   0.62185   0.00000  Uiso   1.00
H840   H     0.46754   0.67595   0.62150   0.00000  Uiso   1.00
H841   H     0.44212   0.66994   0.57648   0.00000  Uiso   1.00
H842   H     0.08115   0.67348   0.37812   0.00000  Uiso   1.00
H843   H     0.03232   0.67592   0.37850   0.00000  Uiso   1.00
H844   H     0.05775   0.66986   0.42350   0.00000  Uiso   1.00
H845   H     0.23514   0.88720   0.61633   0.00000  Uiso   1.00
H846   H     0.47725   0.69691   0.97477   0.00000  Uiso   1.00
H847   H     0.27420   0.91521   0.60694   0.00000  Uiso   1.00
H848   H     0.24598   0.89831   0.56724   0.00000  Uiso   1.00
H849   H     0.23407   0.61266   0.38366   0.00000  Uiso   1.00
H850   H     0.27340   0.58507   0.39315   0.00000  Uiso   1.00
H851   H     0.24490   0.60167   0.43277   0.00000  Uiso   1.00
H852   H     0.08491   0.72614   0.60690   0.00000  Uiso   1.00
H853   H     0.11274   0.76532   0.61633   0.00000  Uiso   1.00
H854   H     0.10168   0.75449   0.56723   0.00000  Uiso   1.00
H855   H     0.41501   0.72632   0.39315   0.00000  Uiso   1.00
H856   H     0.38728   0.76556   0.38367   0.00000  Uiso   1.00
H857   H     0.44649   0.72386   0.52631   0.00000  Uiso   1.00
H858   H     0.39831   0.75475   0.43278   0.00000  Uiso   1.00
H859   H     0.32402   0.53278   0.62131   0.00000  Uiso   1.00
H860   H     0.32610   0.58163   0.62179   0.00000  Uiso   1.00
H861   H     0.32979   0.55835   0.57635   0.00000  Uiso   1.00
H862   H     0.32403   0.96794   0.37813   0.00000  Uiso   1.00
H863   H     0.32678   0.91912   0.37806   0.00000  Uiso   1.00
H864   H     0.33042   0.94281   0.42327   0.00000  Uiso   1.00
O865   O     0.25000   0.50000   0.25000   0.00000  Uiso   1.00
O866   O     0.25000   0.96964   0.66317   0.00000  Uiso   1.00
O867   O     0.46964   0.75000   0.33683   0.00000  Uiso   1.00
O868   O     0.03036   0.75000   0.66317   0.00000  Uiso   1.00
O869   O     0.00000   0.71964   0.83683   0.00000  Uiso   1.00
O870   O     0.00000   0.78036   0.16317   0.00000  Uiso   1.00
O871   O     0.28036   0.50000   0.83683   0.00000  Uiso   1.00
O872   O     0.21964   0.50000   0.16317   0.00000  Uiso   1.00
O873   O     0.00000   0.78036   0.83683   0.00000  Uiso   1.00
O874   O     0.00000   0.71964   0.16317   0.00000  Uiso   1.00
O875   O     0.21964   0.50000   0.83683   0.00000  Uiso   1.00
O876   O     0.25000   0.50000   0.75000   0.00000  Uiso   1.00
O877   O     0.28036   0.50000   0.16317   0.00000  Uiso   1.00
O878   O     0.20726   0.57307   0.27282   0.00000  Uiso   1.00
O879   O     0.29275   0.92693   0.72718   0.00000  Uiso   1.00
O880   O     0.42693   0.70725   0.27282   0.00000  Uiso   1.00
O881   O     0.07307   0.79274   0.72718   0.00000  Uiso   1.00
O882   O     0.29275   0.92693   0.27282   0.00000  Uiso   1.00
O883   O     0.20726   0.57307   0.72718   0.00000  Uiso   1.00
O884   O     0.07307   0.79274   0.27282   0.00000  Uiso   1.00
O885   O     0.42693   0.70725   0.72718   0.00000  Uiso   1.00
O886   O     0.20726   0.92693   0.72718   0.00000  Uiso   1.00
O887   O     0.00000   0.75000   0.25000   0.00000  Uiso   1.00
O888   O     0.29275   0.57307   0.27282   0.00000  Uiso   1.00
O889   O     0.42693   0.79274   0.72718   0.00000  Uiso   1.00
O890   O     0.07307   0.70725   0.27282   0.00000  Uiso   1.00
O891   O     0.29275   0.57307   0.72718   0.00000  Uiso   1.00
O892   O     0.20726   0.92693   0.27282   0.00000  Uiso   1.00
O893   O     0.07307   0.70725   0.72718   0.00000  Uiso   1.00
O894   O     0.42693   0.79274   0.27282   0.00000  Uiso   1.00
O895   O     0.45726   0.82307   0.77282   0.00000  Uiso   1.00
O896   O     0.04275   0.67693   0.22718   0.00000  Uiso   1.00
O897   O     0.17693   0.95725   0.77282   0.00000  Uiso   1.00
O898   O     0.00000   0.75000   0.75000   0.00000  Uiso   1.00
O899   O     0.32307   0.54274   0.22718   0.00000  Uiso   1.00
O900   O     0.04275   0.67693   0.77282   0.00000  Uiso   1.00
O901   O     0.45726   0.82307   0.22718   0.00000  Uiso   1.00
O902   O     0.32307   0.54274   0.77282   0.00000  Uiso   1.00
O903   O     0.17693   0.95725   0.22718   0.00000  Uiso   1.00
O904   O     0.45726   0.67693   0.22718   0.00000  Uiso   1.00
O905   O     0.04275   0.82307   0.77282   0.00000  Uiso   1.00
O906   O     0.17693   0.54274   0.22718   0.00000  Uiso   1.00
O907   O     0.32307   0.95725   0.77282   0.00000  Uiso   1.00
O908   O     0.04275   0.82307   0.22718   0.00000  Uiso   1.00
O909   O     0.25000   0.96964   0.33683   0.00000  Uiso   1.00
O910   O     0.45726   0.67693   0.77282   0.00000  Uiso   1.00
O911   O     0.32307   0.95725   0.22718   0.00000  Uiso   1.00
O912   O     0.17693   0.54274   0.77282   0.00000  Uiso   1.00
O913   O     0.18995   0.52739   0.10070   0.00000  Uiso   1.00
O914   O     0.31006   0.52736   0.89931   0.00000  Uiso   1.00
O915   O     0.02791   0.68937   0.10127   0.00000  Uiso   1.00
O916   O     0.02849   0.81036   0.89868   0.00000  Uiso   1.00
O917   O     0.31049   0.97179   0.10129   0.00000  Uiso   1.00
O918   O     0.18950   0.97179   0.89871   0.00000  Uiso   1.00
O919   O     0.47294   0.81021   0.10068   0.00000  Uiso   1.00
O920   O     0.25000   0.53036   0.66317   0.00000  Uiso   1.00
O921   O     0.47231   0.69010   0.89928   0.00000  Uiso   1.00
O922   O     0.43949   0.72183   0.60129   0.00000  Uiso   1.00
O923   O     0.06047   0.72175   0.39871   0.00000  Uiso   1.00
O924   O     0.22293   0.93981   0.60068   0.00000  Uiso   1.00
O925   O     0.22237   0.55993   0.39929   0.00000  Uiso   1.00
O926   O     0.06008   0.77731   0.60069   0.00000  Uiso   1.00
O927   O     0.43997   0.77744   0.39930   0.00000  Uiso   1.00
O928   O     0.27794   0.56062   0.60128   0.00000  Uiso   1.00
O929   O     0.27846   0.93962   0.39870   0.00000  Uiso   1.00
O930   O     0.03036   0.75000   0.33683   0.00000  Uiso   1.00
O931   O     0.46964   0.75000   0.66317   0.00000  Uiso   1.00
O932   O     0.25000   0.53036   0.33683   0.00000  Uiso   1.00
Zn933  Zn    0.20660   0.50000   0.21760   0.00000  Uiso   1.00
Zn934  Zn    0.04340   0.75000   0.28240   0.00000  Uiso   1.00
Zn935  Zn    0.25000   0.95660   0.71760   0.00000  Uiso   1.00
Zn936  Zn    0.25000   0.54340   0.28240   0.00000  Uiso   1.00
Zn937  Zn    0.04340   0.75000   0.71760   0.00000  Uiso   1.00
Zn938  Zn    0.45660   0.75000   0.28240   0.00000  Uiso   1.00
Zn939  Zn    0.25000   0.54340   0.71760   0.00000  Uiso   1.00
Zn940  Zn    0.25000   0.95660   0.28240   0.00000  Uiso   1.00
Zn941  Zn    0.29340   0.50000   0.78240   0.00000  Uiso   1.00
Zn942  Zn    0.00000   0.70660   0.21760   0.00000  Uiso   1.00
Zn943  Zn    0.00000   0.79340   0.78240   0.00000  Uiso   1.00
Zn944  Zn    0.29340   0.50000   0.21760   0.00000  Uiso   1.00
Zn945  Zn    0.20660   0.50000   0.78240   0.00000  Uiso   1.00
Zn946  Zn    0.00000   0.79340   0.21760   0.00000  Uiso   1.00
Zn947  Zn    0.00000   0.70660   0.78240   0.00000  Uiso   1.00
Zn948  Zn    0.45660   0.75000   0.71760   0.00000  Uiso   1.00
C949   C     0.71961   0.51117   0.04110   0.00000  Uiso   1.00
C950   C     0.52998   0.73445   0.45837   0.00000  Uiso   1.00
C951   C     0.84813   0.90187   0.75000   0.00000  Uiso   1.00
C952   C     0.90188   0.65185   0.25004   0.00000  Uiso   1.00
C953   C     0.59822   0.84805   0.75013   0.00000  Uiso   1.00
C954   C     0.84813   0.90187   0.25000   0.00000  Uiso   1.00
C955   C     0.65186   0.59814   0.75000   0.00000  Uiso   1.00
C956   C     0.59813   0.65187   0.75000   0.00000  Uiso   1.00
C957   C     0.90186   0.84814   0.25000   0.00000  Uiso   1.00
C958   C     0.65195   0.90178   0.75013   0.00000  Uiso   1.00
C959   C     0.84815   0.59812   0.25004   0.00000  Uiso   1.00
C960   C     0.90186   0.84814   0.75000   0.00000  Uiso   1.00
C961   C     0.73898   0.96956   0.54108   0.00000  Uiso   1.00
C962   C     0.59813   0.65187   0.25000   0.00000  Uiso   1.00
C963   C     0.84822   0.59805   0.74987   0.00000  Uiso   1.00
C964   C     0.65188   0.90185   0.24996   0.00000  Uiso   1.00
C965   C     0.74980   0.99891   0.10222   0.00000  Uiso   1.00
C966   C     0.75019   0.99891   0.89778   0.00000  Uiso   1.00
C967   C     0.50110   0.75020   0.10222   0.00000  Uiso   1.00
C968   C     0.50108   0.74981   0.89777   0.00000  Uiso   1.00
C969   C     0.50020   0.74890   0.60222   0.00000  Uiso   1.00
C970   C     0.99980   0.74892   0.39778   0.00000  Uiso   1.00
C971   C     0.75110   0.99981   0.60222   0.00000  Uiso   1.00
C972   C     0.73871   0.53034   0.45890   0.00000  Uiso   1.00
C973   C     0.75109   0.50020   0.39777   0.00000  Uiso   1.00
C974   C     0.65907   0.50465   0.09727   0.00000  Uiso   1.00
C975   C     0.84093   0.50460   0.90273   0.00000  Uiso   1.00
C976   C     0.56609   0.69224   0.10516   0.00000  Uiso   1.00
C977   C     0.56664   0.80711   0.89479   0.00000  Uiso   1.00
C978   C     0.80741   0.93364   0.10522   0.00000  Uiso   1.00
C979   C     0.69256   0.93363   0.89481   0.00000  Uiso   1.00
C980   C     0.99590   0.84094   0.09730   0.00000  Uiso   1.00
C981   C     0.99487   0.65908   0.90275   0.00000  Uiso   1.00
C982   C     0.94251   0.68367   0.60518   0.00000  Uiso   1.00
C983   C     0.53039   0.76114   0.54109   0.00000  Uiso   1.00
C984   C     0.55737   0.68359   0.39481   0.00000  Uiso   1.00
C985   C     0.74586   0.90906   0.59729   0.00000  Uiso   1.00
C986   C     0.74498   0.59092   0.40273   0.00000  Uiso   1.00
C987   C     0.59093   0.75452   0.59728   0.00000  Uiso   1.00
C988   C     0.90907   0.75472   0.40273   0.00000  Uiso   1.00
C989   C     0.81612   0.55780   0.60508   0.00000  Uiso   1.00
C990   C     0.81658   0.94294   0.39463   0.00000  Uiso   1.00
C991   C     0.96962   0.76120   0.45890   0.00000  Uiso   1.00
C992   C     0.76540   0.53007   0.54162   0.00000  Uiso   1.00
C993   C     0.76566   0.97007   0.45836   0.00000  Uiso   1.00
C994   C     0.71900   0.51144   0.08150   0.00000  Uiso   1.00
C995   C     0.78100   0.51142   0.91850   0.00000  Uiso   1.00
C996   C     0.51535   0.71989   0.08193   0.00000  Uiso   1.00
C997   C     0.78038   0.51116   0.95891   0.00000  Uiso   1.00
C998   C     0.51563   0.77998   0.91804   0.00000  Uiso   1.00
C999   C     0.78004   0.98451   0.08194   0.00000  Uiso   1.00
C1000  C     0.71995   0.98450   0.91806   0.00000  Uiso   1.00
C1001  C     0.98873   0.78106   0.08149   0.00000  Uiso   1.00
C1002  C     0.98841   0.71906   0.91849   0.00000  Uiso   1.00
C1003  C     0.96994   0.73452   0.58194   0.00000  Uiso   1.00
C1004  C     0.53003   0.73449   0.41806   0.00000  Uiso   1.00
C1005  C     0.73872   0.96895   0.58149   0.00000  Uiso   1.00
C1006  C     0.73844   0.53095   0.41849   0.00000  Uiso   1.00
C1007  C     0.53101   0.76140   0.58150   0.00000  Uiso   1.00
C1008  C     0.51538   0.71993   0.04161   0.00000  Uiso   1.00
C1009  C     0.96901   0.76146   0.41850   0.00000  Uiso   1.00
C1010  C     0.76537   0.53011   0.58193   0.00000  Uiso   1.00
C1011  C     0.76562   0.97002   0.41805   0.00000  Uiso   1.00
C1012  C     0.74985   0.99759   0.02117   0.00000  Uiso   1.00
C1013  C     0.75014   0.99759   0.97883   0.00000  Uiso   1.00
C1014  C     0.50241   0.75014   0.02116   0.00000  Uiso   1.00
C1015  C     0.50241   0.74986   0.97882   0.00000  Uiso   1.00
C1016  C     0.50014   0.74759   0.52117   0.00000  Uiso   1.00
C1017  C     0.99985   0.74759   0.47883   0.00000  Uiso   1.00
C1018  C     0.75242   0.99987   0.52116   0.00000  Uiso   1.00
C1019  C     0.51567   0.77993   0.95836   0.00000  Uiso   1.00
C1020  C     0.75242   0.50015   0.47882   0.00000  Uiso   1.00
C1021  C     0.75006   0.50003   0.35526   0.00000  Uiso   1.00
C1022  C     0.75007   0.99997   0.64474   0.00000  Uiso   1.00
C1023  C     0.99997   0.74994   0.35526   0.00000  Uiso   1.00
C1024  C     0.50003   0.74993   0.64474   0.00000  Uiso   1.00
C1025  C     0.50006   0.74997   0.85526   0.00000  Uiso   1.00
C1026  C     0.50007   0.75003   0.14474   0.00000  Uiso   1.00
C1027  C     0.75003   0.99993   0.85526   0.00000  Uiso   1.00
C1028  C     0.74997   0.99994   0.14474   0.00000  Uiso   1.00
C1029  C     0.67993   0.57007   0.25000   0.00000  Uiso   1.00
C1030  C     0.77999   0.98447   0.04163   0.00000  Uiso   1.00
C1031  C     0.82007   0.92993   0.75000   0.00000  Uiso   1.00
C1032  C     0.92994   0.67992   0.25001   0.00000  Uiso   1.00
C1033  C     0.57009   0.82005   0.75004   0.00000  Uiso   1.00
C1034  C     0.82007   0.92993   0.25000   0.00000  Uiso   1.00
C1035  C     0.67993   0.57007   0.75000   0.00000  Uiso   1.00
C1036  C     0.57008   0.82006   0.24999   0.00000  Uiso   1.00
C1037  C     0.92995   0.67991   0.74996   0.00000  Uiso   1.00
C1038  C     0.67995   0.92991   0.75004   0.00000  Uiso   1.00
C1039  C     0.82008   0.57006   0.25001   0.00000  Uiso   1.00
C1040  C     0.92993   0.82007   0.75000   0.00000  Uiso   1.00
C1041  C     0.72000   0.98447   0.95837   0.00000  Uiso   1.00
C1042  C     0.57007   0.67993   0.25000   0.00000  Uiso   1.00
C1043  C     0.82009   0.57005   0.74996   0.00000  Uiso   1.00
C1044  C     0.67994   0.92992   0.24999   0.00000  Uiso   1.00
C1045  C     0.57007   0.67993   0.75000   0.00000  Uiso   1.00
C1046  C     0.92993   0.82007   0.25000   0.00000  Uiso   1.00
C1047  C     0.62201   0.90473   0.22486   0.00000  Uiso   1.00
C1048  C     0.87721   0.59606   0.77620   0.00000  Uiso   1.00
C1049  C     0.59616   0.62290   0.22363   0.00000  Uiso   1.00
C1050  C     0.90475   0.87802   0.77509   0.00000  Uiso   1.00
C1051  C     0.87804   0.59522   0.22496   0.00000  Uiso   1.00
C1052  C     0.98899   0.78045   0.04109   0.00000  Uiso   1.00
C1053  C     0.62301   0.90373   0.77653   0.00000  Uiso   1.00
C1054  C     0.90384   0.87712   0.22365   0.00000  Uiso   1.00
C1055  C     0.59525   0.62198   0.77509   0.00000  Uiso   1.00
C1056  C     0.62198   0.59525   0.77509   0.00000  Uiso   1.00
C1057  C     0.87710   0.90384   0.22364   0.00000  Uiso   1.00
C1058  C     0.59627   0.87699   0.77653   0.00000  Uiso   1.00
C1059  C     0.90478   0.62195   0.22496   0.00000  Uiso   1.00
C1060  C     0.87801   0.90475   0.77509   0.00000  Uiso   1.00
C1061  C     0.62289   0.59616   0.22364   0.00000  Uiso   1.00
C1062  C     0.90394   0.62279   0.77620   0.00000  Uiso   1.00
C1063  C     0.98868   0.71968   0.95890   0.00000  Uiso   1.00
C1064  C     0.59527   0.87799   0.22486   0.00000  Uiso   1.00
C1065  C     0.87301   0.65372   0.72346   0.00000  Uiso   1.00
C1066  C     0.62804   0.84523   0.27504   0.00000  Uiso   1.00
C1067  C     0.84525   0.87199   0.72491   0.00000  Uiso   1.00
C1068  C     0.65384   0.62711   0.27636   0.00000  Uiso   1.00
C1069  C     0.62722   0.84605   0.72381   0.00000  Uiso   1.00
C1070  C     0.87200   0.65473   0.27514   0.00000  Uiso   1.00
C1071  C     0.65475   0.62802   0.72491   0.00000  Uiso   1.00
C1072  C     0.84616   0.87290   0.27636   0.00000  Uiso   1.00
C1073  C     0.87288   0.84616   0.27635   0.00000  Uiso   1.00
C1074  C     0.96999   0.73449   0.54162   0.00000  Uiso   1.00
C1075  C     0.62802   0.65475   0.72491   0.00000  Uiso   1.00
C1076  C     0.84527   0.62800   0.27514   0.00000  Uiso   1.00
C1077  C     0.65395   0.87278   0.72381   0.00000  Uiso   1.00
C1078  C     0.62710   0.65384   0.27637   0.00000  Uiso   1.00
C1079  C     0.87198   0.84525   0.72491   0.00000  Uiso   1.00
C1080  C     0.65477   0.87196   0.27504   0.00000  Uiso   1.00
C1081  C     0.84628   0.62698   0.72346   0.00000  Uiso   1.00
C1082  C     0.59815   0.84812   0.24996   0.00000  Uiso   1.00
C1083  C     0.90195   0.65178   0.74987   0.00000  Uiso   1.00
C1084  C     0.65186   0.59814   0.25000   0.00000  Uiso   1.00
H1085  H     0.69679   0.52249   0.02522   0.00000  Uiso   1.00
H1086  H     0.55346   0.72377   0.47368   0.00000  Uiso   1.00
H1087  H     0.72778   0.94668   0.52521   0.00000  Uiso   1.00
H1088  H     0.72730   0.55311   0.47477   0.00000  Uiso   1.00
H1089  H     0.55323   0.77243   0.52522   0.00000  Uiso   1.00
H1090  H     0.94681   0.77253   0.47478   0.00000  Uiso   1.00
H1091  H     0.77595   0.55360   0.52630   0.00000  Uiso   1.00
H1092  H     0.77642   0.94663   0.47367   0.00000  Uiso   1.00
H1093  H     0.61925   0.92758   0.20523   0.00000  Uiso   1.00
H1094  H     0.87922   0.57395   0.79687   0.00000  Uiso   1.00
H1095  H     0.57407   0.62091   0.20295   0.00000  Uiso   1.00
H1096  H     0.80321   0.52247   0.97478   0.00000  Uiso   1.00
H1097  H     0.92760   0.88078   0.79472   0.00000  Uiso   1.00
H1098  H     0.88081   0.57237   0.20534   0.00000  Uiso   1.00
H1099  H     0.62102   0.92583   0.79721   0.00000  Uiso   1.00
H1100  H     0.92596   0.87913   0.20299   0.00000  Uiso   1.00
H1101  H     0.57239   0.61923   0.79472   0.00000  Uiso   1.00
H1102  H     0.61921   0.57239   0.79471   0.00000  Uiso   1.00
H1103  H     0.87910   0.92594   0.20297   0.00000  Uiso   1.00
H1104  H     0.57417   0.87899   0.79720   0.00000  Uiso   1.00
H1105  H     0.92763   0.61919   0.20534   0.00000  Uiso   1.00
H1106  H     0.88077   0.92760   0.79472   0.00000  Uiso   1.00
H1107  H     0.52591   0.69640   0.02630   0.00000  Uiso   1.00
H1108  H     0.62088   0.57405   0.20298   0.00000  Uiso   1.00
H1109  H     0.92605   0.62078   0.79687   0.00000  Uiso   1.00
H1110  H     0.57242   0.88075   0.20523   0.00000  Uiso   1.00
H1111  H     0.87103   0.67581   0.70278   0.00000  Uiso   1.00
H1112  H     0.63080   0.82237   0.29467   0.00000  Uiso   1.00
H1113  H     0.82240   0.86923   0.70528   0.00000  Uiso   1.00
H1114  H     0.67595   0.62912   0.29702   0.00000  Uiso   1.00
H1115  H     0.62923   0.82393   0.70315   0.00000  Uiso   1.00
H1116  H     0.86925   0.67758   0.29477   0.00000  Uiso   1.00
H1117  H     0.67761   0.63078   0.70529   0.00000  Uiso   1.00
H1118  H     0.52644   0.80336   0.97367   0.00000  Uiso   1.00
H1119  H     0.82406   0.87090   0.29704   0.00000  Uiso   1.00
H1120  H     0.87087   0.82404   0.29701   0.00000  Uiso   1.00
H1121  H     0.63077   0.67761   0.70528   0.00000  Uiso   1.00
H1122  H     0.82242   0.63075   0.29477   0.00000  Uiso   1.00
H1123  H     0.67607   0.87077   0.70315   0.00000  Uiso   1.00
H1124  H     0.62909   0.67593   0.29705   0.00000  Uiso   1.00
H1125  H     0.86922   0.82240   0.70528   0.00000  Uiso   1.00
H1126  H     0.67763   0.86920   0.29467   0.00000  Uiso   1.00
H1127  H     0.82418   0.62897   0.70278   0.00000  Uiso   1.00
H1128  H     0.63727   0.51546   0.11634   0.00000  Uiso   1.00
H1129  H     0.80348   0.97381   0.02631   0.00000  Uiso   1.00
H1130  H     0.66504   0.97625   0.10686   0.00000  Uiso   1.00
H1131  H     0.64830   0.50466   0.06723   0.00000  Uiso   1.00
H1132  H     0.86273   0.51541   0.88367   0.00000  Uiso   1.00
H1133  H     0.83493   0.97621   0.89311   0.00000  Uiso   1.00
H1134  H     0.85168   0.50459   0.93277   0.00000  Uiso   1.00
H1135  H     0.57606   0.66839   0.12184   0.00000  Uiso   1.00
H1136  H     0.57391   0.71724   0.12147   0.00000  Uiso   1.00
H1137  H     0.57981   0.69179   0.07646   0.00000  Uiso   1.00
H1138  H     0.57684   0.83086   0.87811   0.00000  Uiso   1.00
H1139  H     0.57421   0.78204   0.87847   0.00000  Uiso   1.00
H1140  H     0.69651   0.97382   0.97368   0.00000  Uiso   1.00
H1141  H     0.58037   0.80743   0.92348   0.00000  Uiso   1.00
H1142  H     0.78238   0.92597   0.12156   0.00000  Uiso   1.00
H1143  H     0.83121   0.92354   0.12189   0.00000  Uiso   1.00
H1144  H     0.80776   0.91988   0.07654   0.00000  Uiso   1.00
H1145  H     0.71759   0.92594   0.87847   0.00000  Uiso   1.00
H1146  H     0.66876   0.92354   0.87814   0.00000  Uiso   1.00
H1147  H     0.69219   0.91990   0.92350   0.00000  Uiso   1.00
H1148  H     0.52423   0.83478   0.10697   0.00000  Uiso   1.00
H1149  H     0.98518   0.86281   0.11633   0.00000  Uiso   1.00
H1150  H     0.99603   0.85169   0.06725   0.00000  Uiso   1.00
H1151  H     0.97779   0.80333   0.02521   0.00000  Uiso   1.00
H1152  H     0.52332   0.66489   0.89321   0.00000  Uiso   1.00
H1153  H     0.98396   0.63735   0.88366   0.00000  Uiso   1.00
H1154  H     0.99474   0.64832   0.93279   0.00000  Uiso   1.00
H1155  H     0.91870   0.67359   0.62185   0.00000  Uiso   1.00
H1156  H     0.96754   0.67595   0.62150   0.00000  Uiso   1.00
H1157  H     0.94212   0.66994   0.57648   0.00000  Uiso   1.00
H1158  H     0.58115   0.67348   0.37812   0.00000  Uiso   1.00
H1159  H     0.53232   0.67592   0.37850   0.00000  Uiso   1.00
H1160  H     0.55775   0.66986   0.42350   0.00000  Uiso   1.00
H1161  H     0.73514   0.88720   0.61633   0.00000  Uiso   1.00
H1162  H     0.97725   0.69691   0.97477   0.00000  Uiso   1.00
H1163  H     0.77420   0.91521   0.60694   0.00000  Uiso   1.00
H1164  H     0.74598   0.89831   0.56724   0.00000  Uiso   1.00
H1165  H     0.73407   0.61266   0.38366   0.00000  Uiso   1.00
H1166  H     0.77340   0.58507   0.39315   0.00000  Uiso   1.00
H1167  H     0.74490   0.60167   0.43277   0.00000  Uiso   1.00
H1168  H     0.58491   0.72614   0.60690   0.00000  Uiso   1.00
H1169  H     0.61274   0.76532   0.61633   0.00000  Uiso   1.00
H1170  H     0.60168   0.75449   0.56723   0.00000  Uiso   1.00
H1171  H     0.91501   0.72632   0.39315   0.00000  Uiso   1.00
H1172  H     0.88728   0.76556   0.38367   0.00000  Uiso   1.00
H1173  H     0.94649   0.72386   0.52631   0.00000  Uiso   1.00
H1174  H     0.89831   0.75475   0.43278   0.00000  Uiso   1.00
H1175  H     0.82402   0.53278   0.62131   0.00000  Uiso   1.00
H1176  H     0.82610   0.58163   0.62179   0.00000  Uiso   1.00
H1177  H     0.82979   0.55835   0.57635   0.00000  Uiso   1.00
H1178  H     0.82403   0.96794   0.37813   0.00000  Uiso   1.00
H1179  H     0.82678   0.91912   0.37806   0.00000  Uiso   1.00
H1180  H     0.83042   0.94281   0.42327   0.00000  Uiso   1.00
O1181  O     0.75000   0.50000   0.25000   0.00000  Uiso   1.00
O1182  O     0.75000   0.96964   0.66317   0.00000  Uiso   1.00
O1183  O     0.96964   0.75000   0.33683   0.00000  Uiso   1.00
O1184  O     0.53036   0.75000   0.66317   0.00000  Uiso   1.00
O1185  O     0.50000   0.71964   0.83683   0.00000  Uiso   1.00
O1186  O     0.50000   0.78036   0.16317   0.00000  Uiso   1.00
O1187  O     0.78036   0.50000   0.83683   0.00000  Uiso   1.00
O1188  O     0.71964   0.50000   0.16317   0.00000  Uiso   1.00
O1189  O     0.50000   0.78036   0.83683   0.00000  Uiso   1.00
O1190  O     0.50000   0.71964   0.16317   0.00000  Uiso   1.00
O1191  O     0.71964   0.50000   0.83683   0.00000  Uiso   1.00
O1192  O     0.75000   0.50000   0.75000   0.00000  Uiso   1.00
O1193  O     0.78036   0.50000   0.16317   0.00000  Uiso   1.00
O1194  O     0.70726   0.57307   0.27282   0.00000  Uiso   1.00
O1195  O     0.79275   0.92693   0.72718   0.00000  Uiso   1.00
O1196  O     0.92693   0.70725   0.27282   0.00000  Uiso   1.00
O1197  O     0.57307   0.79274   0.72718   0.00000  Uiso   1.00
O1198  O     0.79275   0.92693   0.27282   0.00000  Uiso   1.00
O1199  O     0.70726   0.57307   0.72718   0.00000  Uiso   1.00
O1200  O     0.57307   0.79274   0.27282   0.00000  Uiso   1.00
O1201  O     0.92693   0.70725   0.72718   0.00000  Uiso   1.00
O1202  O     0.70726   0.92693   0.72718   0.00000  Uiso   1.00
O1203  O     0.50000   0.75000   0.25000   0.00000  Uiso   1.00
O1204  O     0.79275   0.57307   0.27282   0.00000  Uiso   1.00
O1205  O     0.92693   0.79274   0.72718   0.00000  Uiso   1.00
O1206  O     0.57307   0.70725   0.27282   0.00000  Uiso   1.00
O1207  O     0.79275   0.57307   0.72718   0.00000  Uiso   1.00
O1208  O     0.70726   0.92693   0.27282   0.00000  Uiso   1.00
O1209  O     0.57307   0.70725   0.72718   0.00000  Uiso   1.00
O1210  O     0.92693   0.79274   0.27282   0.00000  Uiso   1.00
O1211  O     0.95726   0.82307   0.77282   0.00000  Uiso   1.00
O1212  O     0.54275   0.67693   0.22718   0.00000  Uiso   1.00
O1213  O     0.67693   0.95725   0.77282   0.00000  Uiso   1.00
O1214  O     0.50000   0.75000   0.75000   0.00000  Uiso   1.00
O1215  O     0.82307   0.54274   0.22718   0.00000  Uiso   1.00
O1216  O     0.54275   0.67693   0.77282   0.00000  Uiso   1.00
O1217  O     0.95726   0.82307   0.22718   0.00000  Uiso   1.00
O1218  O     0.82307   0.54274   0.77282   0.00000  Uiso   1.00
O1219  O     0.67693   0.95725   0.22718   0.00000  Uiso   1.00
O1220  O     0.95726   0.67693   0.22718   0.00000  Uiso   1.00
O1221  O     0.54275   0.82307   0.77282   0.00000  Uiso   1.00
O1222  O     0.67693   0.54274   0.22718   0.00000  Uiso   1.00
O1223  O     0.82307   0.95725   0.77282   0.00000  Uiso   1.00
O1224  O     0.54275   0.82307   0.22718   0.00000  Uiso   1.00
O1225  O     0.75000   0.96964   0.33683   0.00000  Uiso   1.00
O1226  O     0.95726   0.67693   0.77282   0.00000  Uiso   1.00
O1227  O     0.82307   0.95725   0.22718   0.00000  Uiso   1.00
O1228  O     0.67693   0.54274   0.77282   0.00000  Uiso   1.00
O1229  O     0.68995   0.52739   0.10070   0.00000  Uiso   1.00
O1230  O     0.81006   0.52736   0.89931   0.00000  Uiso   1.00
O1231  O     0.52791   0.68937   0.10127   0.00000  Uiso   1.00
O1232  O     0.52849   0.81036   0.89868   0.00000  Uiso   1.00
O1233  O     0.81049   0.97179   0.10129   0.00000  Uiso   1.00
O1234  O     0.68950   0.97179   0.89871   0.00000  Uiso   1.00
O1235  O     0.97294   0.81021   0.10068   0.00000  Uiso   1.00
O1236  O     0.75000   0.53036   0.66317   0.00000  Uiso   1.00
O1237  O     0.97231   0.69010   0.89928   0.00000  Uiso   1.00
O1238  O     0.93949   0.72183   0.60129   0.00000  Uiso   1.00
O1239  O     0.56047   0.72175   0.39871   0.00000  Uiso   1.00
O1240  O     0.72293   0.93981   0.60068   0.00000  Uiso   1.00
O1241  O     0.72237   0.55993   0.39929   0.00000  Uiso   1.00
O1242  O     0.56008   0.77731   0.60069   0.00000  Uiso   1.00
O1243  O     0.93997   0.77744   0.39930   0.00000  Uiso   1.00
O1244  O     0.77794   0.56062   0.60128   0.00000  Uiso   1.00
O1245  O     0.77846   0.93962   0.39870   0.00000  Uiso   1.00
O1246  O     0.53036   0.75000   0.33683   0.00000  Uiso   1.00
O1247  O     0.96964   0.75000   0.66317   0.00000  Uiso   1.00
O1248  O     0.75000   0.53036   0.33683   0.00000  Uiso   1.00
Zn1249 Zn    0.70660   0.50000   0.21760   0.00000  Uiso   1.00
Zn1250 Zn    0.54340   0.75000   0.28240   0.00000  Uiso   1.00
Zn1251 Zn    0.75000   0.95660   0.71760   0.00000  Uiso   1.00
Zn1252 Zn    0.75000   0.54340   0.28240   0.00000  Uiso   1.00
Zn1253 Zn    0.54340   0.75000   0.71760   0.00000  Uiso   1.00
Zn1254 Zn    0.95660   0.75000   0.28240   0.00000  Uiso   1.00
Zn1255 Zn    0.75000   0.54340   0.71760   0.00000  Uiso   1.00
Zn1256 Zn    0.75000   0.95660   0.28240   0.00000  Uiso   1.00
Zn1257 Zn    0.79340   0.50000   0.78240   0.00000  Uiso   1.00
Zn1258 Zn    0.50000   0.70660   0.21760   0.00000  Uiso   1.00
Zn1259 Zn    0.50000   0.79340   0.78240   0.00000  Uiso   1.00
Zn1260 Zn    0.79340   0.50000   0.21760   0.00000  Uiso   1.00
Zn1261 Zn    0.70660   0.50000   0.78240   0.00000  Uiso   1.00
Zn1262 Zn    0.50000   0.79340   0.21760   0.00000  Uiso   1.00
Zn1263 Zn    0.50000   0.70660   0.78240   0.00000  Uiso   1.00
Zn1264 Zn    0.95660   0.75000   0.71760   0.00000  Uiso   1.00
loop_
_geom_bond_atom_site_label_1
_geom_bond_atom_site_label_2
_geom_bond_distance
_geom_bond_site_symmetry_2
_ccdc_geom_bond_type
C1     C46     1.398   .     A
C1     H137    1.083   .     S
C1     C696    1.397   1_545 S
C2     H138    1.084   .     S
C2     C56     1.395   .     A
C2     C385    1.398   1_455 S
C3     C112    1.402   .     A
C3     C83     1.455   .     S
C3     C119    1.402   .     A
C4     C84     1.455   .     S
C4     C122    1.402   .     A
C4     C111    1.402   .     A
C5     C110    1.402   .     A
C5     C85     1.455   .     S
C5     C121    1.402   .     A
C6     C109    1.402   .     A
C6     C86     1.455   .     S
C6     C124    1.402   .     A
C7     C123    1.402   .     A
C7     C87     1.455   .     S
C7     C108    1.402   .     A
C8     C127    1.402   .     A
C8     C107    1.402   .     A
C8     C97     1.455   .     S
C9     C98     1.455   .     S
C9     C125    1.402   .     A
C9     C106    1.402   .     A
C10    C129    1.402   .     A
C10    C90     1.455   .     S
C10    C105    1.402   .     A
C11    C91     1.455   .     S
C11    C128    1.402   .     A
C11    C103    1.402   .     A
C12    C92     1.455   .     S
C12    C131    1.402   .     A
C12    C102    1.402   .     A
C13    H139    1.083   .     S
C13    C70     1.397   .     A
C13    C57     1.398   .     A
C14    C130    1.402   .     A
C14    C94     1.455   .     S
C14    C101    1.402   .     A
C15    C100    1.402   .     A
C15    C95     1.455   .     S
C15    C133    1.402   .     A
C16    C96     1.455   .     S
C16    C132    1.402   .     A
C16    C99     1.402   .     A
C17    C80     1.471   .     S
C17    C51     1.414   .     A
C17    C678    1.414   .     S
C18    C79     1.471   .     S
C18    C52     1.414   .     A
C18    C679    1.414   .     S
C19    C78     1.471   .     S
C19    C48     1.414   .     A
C19    C369    1.414   1_455 S
C20    C77     1.471   .     S
C20    C50     1.414   .     A
C20    C370    1.414   1_455 S
C21    C76     1.471   .     S
C21    C59     1.414   .     A
C21    C371    1.414   1_455 S
C22    C61     1.414   .     A
C22    C75     1.471   .     S
C22    C372    1.414   .     S
C23    C74     1.471   .     S
C23    C57     1.414   .     A
C23    C694    1.414   .     S
C24    H140    1.083   .     S
C24    C72     1.397   .     A
C24    C58     1.398   .     A
C25    C73     1.471   .     S
C25    C58     1.414   .     A
C25    C695    1.414   1_545 S
C26    O281    1.411   .     S
C26    H183    1.112   .     S
C26    H180    1.109   .     S
C26    H814    1.114   1_545 S
C27    O282    1.411   .     S
C27    H184    1.109   .     S
C27    H186    1.112   .     S
C27    H817    1.114   1_545 S
C28    H187    1.109   .     S
C28    H189    1.113   .     S
C28    H188    1.114   .     S
C28    O283    1.410   .     S
C29    H193    1.113   .     S
C29    H191    1.114   .     S
C29    H190    1.109   .     S
C29    O284    1.410   .     S
C30    H195    1.109   .     S
C30    H196    1.113   .     S
C30    H194    1.114   .     S
C30    O285    1.410   .     S
C31    O286    1.410   .     S
C31    H198    1.109   .     S
C31    H199    1.113   .     S
C31    H197    1.114   .     S
C32    O287    1.411   .     S
C32    H201    1.109   .     S
C32    H202    1.112   .     S
C32    H516    1.114   .     S
C33    H205    1.109   .     S
C33    O289    1.411   .     S
C33    H206    1.112   .     S
C33    H520    1.114   .     S
C34    H207    1.109   .     S
C34    H208    1.114   .     S
C34    H209    1.113   .     S
C34    O290    1.410   .     S
C35    C59     1.398   .     A
C35    H141    1.083   .     S
C35    C68     1.397   .     A
C36    H212    1.113   .     S
C36    O291    1.410   .     S
C36    H211    1.114   .     S
C36    H210    1.109   .     S
C37    O292    1.411   .     S
C37    H216    1.112   .     S
C37    H213    1.109   .     S
C37    H215    1.114   .     S
C38    H218    1.114   .     S
C38    O293    1.411   .     S
C38    H219    1.112   .     S
C38    H217    1.109   .     S
C39    O294    1.411   .     S
C39    H222    1.112   .     S
C39    H221    1.109   .     S
C39    H220    1.114   .     S
C40    H226    1.112   .     S
C40    H223    1.114   .     S
C40    H224    1.109   .     S
C40    O295    1.411   .     S
C41    H228    1.109   .     S
C41    H227    1.114   .     S
C41    H229    1.113   .     S
C41    O296    1.410   .     S
C42    H231    1.109   .     S
C42    O297    1.410   .     S
C42    H232    1.113   .     S
C42    H230    1.114   .     S
C43    C61     1.398   .     A
C43    H142    1.083   .     S
C43    C69     1.397   .     A
C44    H143    1.084   .     S
C44    C62     1.395   .     A
C44    C702    1.397   1_545 S
C45    H144    1.084   .     S
C45    C63     1.394   .     A
C45    C704    1.398   .     S
C46    O281    1.385   .     S
C46    C649    1.414   1_545 S
C47    O282    1.385   .     S
C47    C49     1.398   .     A
C47    C650    1.414   1_545 S
C48    O283    1.383   .     S
C48    C60     1.395   .     A
C49    H148    1.083   .     S
C49    C697    1.397   1_545 S
C50    O284    1.383   .     S
C50    C71     1.395   .     A
C51    O285    1.383   .     S
C51    C82     1.395   .     A
C52    O286    1.383   .     S
C52    C93     1.395   .     A
C53    O287    1.385   .     S
C53    C104    1.398   .     A
C53    C335    1.414   .     S
C54    O289    1.385   .     S
C54    C115    1.398   .     A
C54    C336    1.414   .     S
C55    C126    1.395   .     A
C55    O290    1.383   .     S
C55    C337    1.414   .     S
C56    O291    1.382   .     S
C56    C338    1.414   1_455 S
C57    O292    1.385   .     S
C58    O293    1.385   .     S
C59    O294    1.385   .     S
C60    C66     1.397   .     A
C60    H159    1.084   .     S
C61    O295    1.385   .     S
C62    O296    1.383   .     S
C62    C655    1.414   1_545 S
C63    O297    1.382   .     S
C63    C657    1.414   .     S
C64    C82     1.397   .     A
C64    C633    1.397   .     S
C64    C65     1.465   1_554 S
C65    C93     1.397   .     A
C65    C64     1.465   1_556 S
C65    C681    1.397   .     S
C66    C67     1.465   1_554 S
C66    C420    1.397   1_455 S
C67    C71     1.398   .     A
C67    C66     1.465   1_556 S
C67    C431    1.397   1_455 S
C68    C385    1.464   1_455 S
C68    C442    1.398   1_455 S
C69    C318    1.398   .     S
C69    C384    1.464   .     S
C70    C676    1.397   .     S
C70    C704    1.465   .     S
C71    H170    1.084   .     S
C72    C677    1.398   1_545 S
C72    C702    1.465   1_545 S
C73    O300    1.282   .     A
C73    O909    1.284   1_545 S
C74    O234    1.282   .     A
C74    O920    1.284   .     S
C75    O235    1.282   .     A
C75    O614    1.284   .     S
C76    O236    1.282   .     A
C76    O615    1.284   1_455 S
C77    O241    1.283   .     A
C77    O237    1.282   .     A
C78    O238    1.282   .     A
C78    O242    1.284   .     A
C79    O875    1.284   .     A
C79    O871    1.282   .     A
C80    O872    1.282   .     S
C80    O877    1.284   .     S
C81    C136    1.455   .     S
C81    O274    1.280   .     A
C81    O246    1.280   .     A
C82    H181    1.084   .     S
C83    O247    1.280   .     A
C83    O275    1.280   .     A
C84    O248    1.280   .     A
C84    O272    1.280   .     A
C85    O273    1.280   .     A
C85    O249    1.280   .     A
C86    O250    1.280   .     A
C86    O279    1.280   .     A
C87    O280    1.280   .     A
C87    O251    1.280   .     A
C88    O252    1.280   .     A
C88    C134    1.455   .     S
C88    O276    1.280   .     A
C89    C135    1.455   .     S
C89    O253    1.280   .     A
C89    O278    1.280   .     A
C90    O265    1.280   .     A
C90    O254    1.280   .     A
C91    O267    1.280   .     A
C91    O256    1.280   .     A
C92    O257    1.280   .     A
C92    O263    1.280   .     A
C93    H192    1.084   .     S
C94    O264    1.280   .     A
C94    O258    1.280   .     A
C95    O270    1.280   .     A
C95    O259    1.280   .     A
C96    O271    1.280   .     A
C96    O260    1.280   .     A
C97    O261    1.280   .     A
C97    O268    1.280   .     A
C98    O269    1.280   .     A
C98    O262    1.280   .     A
C99    C116    1.386   .     A
C99    H145    1.083   .     S
C100   C114    1.386   .     A
C100   H146    1.083   .     S
C101   C113    1.386   .     A
C101   H147    1.083   .     S
C102   H149    1.083   .     S
C102   C112    1.386   .     A
C103   C111    1.386   .     A
C103   H150    1.083   .     S
C104   H203    1.083   .     S
C104   C382    1.397   .     S
C105   C110    1.386   .     A
C105   H151    1.083   .     S
C106   H152    1.083   .     S
C106   C109    1.386   .     A
C107   C108    1.386   .     A
C107   H153    1.083   .     S
C108   H154    1.083   .     S
C109   H155    1.083   .     S
C110   H156    1.083   .     S
C111   H157    1.083   .     S
C112   H158    1.083   .     S
C113   C136    1.402   .     A
C113   H160    1.083   .     S
C114   H161    1.083   .     S
C114   C135    1.402   .     A
C115   H214    1.083   .     S
C115   C383    1.397   .     S
C116   C134    1.402   .     A
C116   H162    1.083   .     S
C117   C133    1.386   .     A
C117   H163    1.083   .     S
C117   C135    1.402   .     A
C118   H164    1.083   .     S
C118   C134    1.402   .     A
C118   C132    1.386   .     A
C119   C131    1.386   .     A
C119   H165    1.083   .     S
C120   H166    1.083   .     S
C120   C136    1.402   .     A
C120   C130    1.386   .     A
C121   H167    1.083   .     S
C121   C129    1.386   .     A
C122   H168    1.083   .     S
C122   C128    1.386   .     A
C123   C127    1.386   .     A
C123   H169    1.083   .     S
C124   H171    1.083   .     S
C124   C125    1.386   .     A
C125   H172    1.083   .     S
C126   H225    1.084   .     S
C126   C384    1.398   .     S
C127   H173    1.083   .     S
C128   H174    1.083   .     S
C129   H175    1.083   .     S
C130   H176    1.083   .     S
C131   H177    1.083   .     S
C132   H178    1.083   .     S
C133   H179    1.083   .     S
H182   C658    1.114   .     S
H185   C659    1.114   .     S
H200   C348    1.114   1_455 S
H204   C349    1.114   1_455 S
O233   Zn940   1.946   1_545 S
O233   Zn301   1.946   .     S
O233   Zn304   1.946   .     S
O233   Zn312   1.946   .     S
O234   Zn303   1.942   .     S
O235   Zn306   1.942   .     S
O236   Zn305   1.942   .     S
O237   Zn315   1.942   .     S
O238   Zn314   1.942   .     S
O239   C711    1.282   1_545 A
O239   Zn309   1.942   .     S
O240   Zn301   1.942   .     S
O240   C712    1.282   1_545 S
O241   Zn311   1.942   .     S
O242   Zn310   1.942   .     S
O243   C711    1.284   1_545 A
O243   Zn313   1.942   .     S
O244   Zn313   1.946   .     S
O244   Zn307   1.946   .     S
O244   Zn309   1.946   .     S
O244   Zn935   1.946   1_545 S
O245   Zn312   1.942   .     S
O245   C712    1.284   1_545 S
O246   Zn304   1.936   .     S
O247   Zn303   1.936   .     S
O248   Zn306   1.936   .     S
O249   Zn305   1.936   .     S
O250   Zn308   1.936   .     S
O251   Zn307   1.936   .     S
O252   Zn302   1.936   .     S
O253   Zn316   1.936   .     S
O254   Zn303   1.936   .     S
O255   Zn310   1.946   .     S
O255   Zn314   1.946   .     S
O255   Zn302   1.946   .     S
O255   Zn622   1.946   1_455 S
O256   Zn304   1.936   .     S
O257   Zn316   1.936   .     S
O258   Zn302   1.936   .     S
O259   Zn307   1.936   .     S
O260   Zn308   1.936   .     S
O261   Zn305   1.936   .     S
O262   Zn306   1.936   .     S
O263   Zn627   1.936   .     S
O264   Zn310   1.936   .     S
O265   Zn945   1.936   .     S
O266   Zn315   1.946   .     S
O266   Zn305   1.946   .     S
O266   Zn311   1.946   .     S
O266   Zn632   1.946   1_455 S
O267   Zn312   1.936   .     S
O268   Zn315   1.936   .     S
O269   Zn630   1.936   .     S
O270   Zn309   1.936   .     S
O271   Zn933   1.936   .     S
O272   Zn626   1.936   .     S
O273   Zn311   1.936   .     S
O274   Zn301   1.936   .     S
O275   Zn941   1.936   .     S
O276   Zn314   1.936   .     S
O277   Zn308   1.942   .     S
O277   C705    1.284   .     S
O278   Zn631   1.936   .     S
O279   Zn944   1.936   .     S
O280   Zn313   1.936   .     S
O288   Zn307   1.942   .     S
O288   C706    1.284   1_545 S
O298   Zn302   1.942   .     S
O298   C391    1.284   1_455 S
O299   Zn316   1.942   .     S
O299   C392    1.284   .     S
O300   Zn304   1.942   .     S
Zn301  O903    1.936   1_545 S
Zn303  O876    1.946   .     S
Zn306  O571    1.946   .     S
Zn308  O865    1.946   .     S
Zn309  O907    1.936   1_545 S
Zn310  O588    1.936   1_455 S
Zn311  O579    1.936   1_455 S
Zn312  O911    1.936   1_545 S
Zn313  O897    1.936   1_545 S
Zn314  O585    1.936   1_455 S
Zn315  O594    1.936   1_455 S
Zn316  O582    1.946   .     S
C317   C362    1.398   .     A
C317   H453    1.083   .     S
C317   C1012   1.397   1_545 S
C318   H454    1.084   .     S
C318   C372    1.395   .     A
C319   C428    1.402   .     A
C319   C399    1.455   .     S
C319   C435    1.402   .     A
C320   C400    1.455   .     S
C320   C438    1.402   .     A
C320   C427    1.402   .     A
C321   C426    1.402   .     A
C321   C401    1.455   .     S
C321   C437    1.402   .     A
C322   C425    1.402   .     A
C322   C402    1.455   .     S
C322   C440    1.402   .     A
C323   C439    1.402   .     A
C323   C403    1.455   .     S
C323   C424    1.402   .     A
C324   C443    1.402   .     A
C324   C423    1.402   .     A
C324   C413    1.455   .     S
C325   C414    1.455   .     S
C325   C441    1.402   .     A
C325   C422    1.402   .     A
C326   C445    1.402   .     A
C326   C406    1.455   .     S
C326   C421    1.402   .     A
C327   C407    1.455   .     S
C327   C444    1.402   .     A
C327   C419    1.402   .     A
C328   C408    1.455   .     S
C328   C447    1.402   .     A
C328   C418    1.402   .     A
C329   H455    1.083   .     S
C329   C386    1.397   .     A
C329   C373    1.398   .     A
C330   C446    1.402   .     A
C330   C410    1.455   .     S
C330   C417    1.402   .     A
C331   C416    1.402   .     A
C331   C411    1.455   .     S
C331   C449    1.402   .     A
C332   C412    1.455   .     S
C332   C448    1.402   .     A
C332   C415    1.402   .     A
C333   C396    1.471   .     S
C333   C367    1.414   .     A
C333   C994    1.414   .     S
C334   C395    1.471   .     S
C334   C368    1.414   .     A
C334   C995    1.414   .     S
C335   C394    1.471   .     S
C335   C364    1.414   .     A
C336   C393    1.471   .     S
C336   C366    1.414   .     A
C337   C392    1.471   .     S
C337   C375    1.414   .     A
C338   C377    1.414   .     A
C338   C391    1.471   .     S
C338   C56     1.414   1_655 S
C339   C390    1.471   .     S
C339   C373    1.414   .     A
C339   C1010   1.414   .     S
C340   H456    1.083   .     S
C340   C388    1.397   .     A
C340   C374    1.398   .     A
C341   C389    1.471   .     S
C341   C374    1.414   .     A
C341   C1011   1.414   1_545 S
C342   O597    1.411   .     S
C342   H499    1.112   .     S
C342   H496    1.109   .     S
C342   H1130   1.114   1_545 S
C343   O598    1.411   .     S
C343   H500    1.109   .     S
C343   H502    1.112   .     S
C343   H1133   1.114   1_545 S
C344   H503    1.109   .     S
C344   H505    1.113   .     S
C344   H504    1.114   .     S
C344   O599    1.410   .     S
C345   H509    1.113   .     S
C345   H507    1.114   .     S
C345   H506    1.109   .     S
C345   O600    1.410   .     S
C346   H511    1.109   .     S
C346   H512    1.113   .     S
C346   H510    1.114   .     S
C346   O601    1.410   .     S
C347   O602    1.410   .     S
C347   H514    1.109   .     S
C347   H515    1.113   .     S
C347   H513    1.114   .     S
C348   O603    1.411   .     S
C348   H517    1.109   .     S
C348   H518    1.112   .     S
C348   H200    1.114   1_655 S
C349   H521    1.109   .     S
C349   O605    1.411   .     S
C349   H522    1.112   .     S
C349   H204    1.114   1_655 S
C350   H523    1.109   .     S
C350   H524    1.114   .     S
C350   H525    1.113   .     S
C350   O606    1.410   .     S
C351   C375    1.398   .     A
C351   H457    1.083   .     S
C351   C384    1.397   .     A
C352   H528    1.113   .     S
C352   O607    1.410   .     S
C352   H527    1.114   .     S
C352   H526    1.109   .     S
C353   O608    1.411   .     S
C353   H532    1.112   .     S
C353   H529    1.109   .     S
C353   H531    1.114   .     S
C354   H534    1.114   .     S
C354   O609    1.411   .     S
C354   H535    1.112   .     S
C354   H533    1.109   .     S
C355   O610    1.411   .     S
C355   H538    1.112   .     S
C355   H537    1.109   .     S
C355   H536    1.114   .     S
C356   H542    1.112   .     S
C356   H539    1.114   .     S
C356   H540    1.109   .     S
C356   O611    1.411   .     S
C357   H544    1.109   .     S
C357   H543    1.114   .     S
C357   H545    1.113   .     S
C357   O612    1.410   .     S
C358   H547    1.109   .     S
C358   O613    1.410   .     S
C358   H548    1.113   .     S
C358   H546    1.114   .     S
C359   C377    1.398   .     A
C359   H458    1.083   .     S
C359   C385    1.397   .     A
C360   H459    1.084   .     S
C360   C378    1.395   .     A
C360   C1018   1.397   1_545 S
C361   H460    1.084   .     S
C361   C379    1.394   .     A
C361   C1020   1.398   .     S
C362   O597    1.385   .     S
C362   C965    1.414   1_545 S
C363   O598    1.385   .     S
C363   C365    1.398   .     A
C363   C966    1.414   1_545 S
C364   O599    1.383   .     S
C364   C376    1.395   .     A
C365   H464    1.083   .     S
C365   C1013   1.397   1_545 S
C366   O600    1.383   .     S
C366   C387    1.395   .     A
C367   O601    1.383   .     S
C367   C398    1.395   .     A
C368   O602    1.383   .     S
C368   C409    1.395   .     A
C369   O603    1.385   .     S
C369   C420    1.398   .     A
C369   C19     1.414   1_655 S
C370   O605    1.385   .     S
C370   C431    1.398   .     A
C370   C20     1.414   1_655 S
C371   C442    1.395   .     A
C371   O606    1.383   .     S
C371   C21     1.414   1_655 S
C372   O607    1.382   .     S
C373   O608    1.385   .     S
C374   O609    1.385   .     S
C375   O610    1.385   .     S
C376   C382    1.397   .     A
C376   H475    1.084   .     S
C377   O611    1.385   .     S
C378   O612    1.383   .     S
C378   C971    1.414   1_545 S
C379   O613    1.382   .     S
C379   C973    1.414   .     S
C380   C398    1.397   .     A
C380   C949    1.397   .     S
C380   C381    1.465   1_554 S
C381   C409    1.397   .     A
C381   C380    1.465   1_556 S
C381   C997    1.397   .     S
C382   C383    1.465   1_554 S
C383   C387    1.398   .     A
C383   C382    1.465   1_556 S
C385   C2      1.398   1_655 S
C385   C68     1.464   1_655 S
C386   C992    1.397   .     S
C386   C1020   1.465   .     S
C387   H486    1.084   .     S
C388   C993    1.398   1_545 S
C388   C1018   1.465   1_545 S
C389   O616    1.282   .     A
C389   O1225   1.284   1_545 S
C390   O550    1.282   .     A
C390   O1236   1.284   .     S
C391   O551    1.282   .     A
C391   O298    1.284   1_655 S
C392   O552    1.282   .     A
C393   O557    1.283   .     A
C393   O553    1.282   .     A
C394   O554    1.282   .     A
C394   O558    1.284   .     A
C395   O1191   1.284   .     A
C395   O1187   1.282   .     A
C396   O1188   1.282   .     S
C396   O1193   1.284   .     S
C397   C452    1.455   .     S
C397   O590    1.280   .     A
C397   O562    1.280   .     A
C398   H497    1.084   .     S
C399   O563    1.280   .     A
C399   O591    1.280   .     A
C400   O564    1.280   .     A
C400   O588    1.280   .     A
C401   O589    1.280   .     A
C401   O565    1.280   .     A
C402   O566    1.280   .     A
C402   O595    1.280   .     A
C403   O596    1.280   .     A
C403   O567    1.280   .     A
C404   O568    1.280   .     A
C404   C450    1.455   .     S
C404   O592    1.280   .     A
C405   C451    1.455   .     S
C405   O569    1.280   .     A
C405   O594    1.280   .     A
C406   O581    1.280   .     A
C406   O570    1.280   .     A
C407   O583    1.280   .     A
C407   O572    1.280   .     A
C408   O573    1.280   .     A
C408   O579    1.280   .     A
C409   H508    1.084   .     S
C410   O580    1.280   .     A
C410   O574    1.280   .     A
C411   O586    1.280   .     A
C411   O575    1.280   .     A
C412   O587    1.280   .     A
C412   O576    1.280   .     A
C413   O577    1.280   .     A
C413   O584    1.280   .     A
C414   O585    1.280   .     A
C414   O578    1.280   .     A
C415   C432    1.386   .     A
C415   H461    1.083   .     S
C416   C430    1.386   .     A
C416   H462    1.083   .     S
C417   C429    1.386   .     A
C417   H463    1.083   .     S
C418   H465    1.083   .     S
C418   C428    1.386   .     A
C419   C427    1.386   .     A
C419   H466    1.083   .     S
C420   H519    1.083   .     S
C420   C66     1.397   1_655 S
C421   C426    1.386   .     A
C421   H467    1.083   .     S
C422   H468    1.083   .     S
C422   C425    1.386   .     A
C423   C424    1.386   .     A
C423   H469    1.083   .     S
C424   H470    1.083   .     S
C425   H471    1.083   .     S
C426   H472    1.083   .     S
C427   H473    1.083   .     S
C428   H474    1.083   .     S
C429   C452    1.402   .     A
C429   H476    1.083   .     S
C430   H477    1.083   .     S
C430   C451    1.402   .     A
C431   H530    1.083   .     S
C431   C67     1.397   1_655 S
C432   C450    1.402   .     A
C432   H478    1.083   .     S
C433   C449    1.386   .     A
C433   H479    1.083   .     S
C433   C451    1.402   .     A
C434   H480    1.083   .     S
C434   C450    1.402   .     A
C434   C448    1.386   .     A
C435   C447    1.386   .     A
C435   H481    1.083   .     S
C436   H482    1.083   .     S
C436   C452    1.402   .     A
C436   C446    1.386   .     A
C437   H483    1.083   .     S
C437   C445    1.386   .     A
C438   H484    1.083   .     S
C438   C444    1.386   .     A
C439   C443    1.386   .     A
C439   H485    1.083   .     S
C440   H487    1.083   .     S
C440   C441    1.386   .     A
C441   H488    1.083   .     S
C442   H541    1.084   .     S
C442   C68     1.398   1_655 S
C443   H489    1.083   .     S
C444   H490    1.083   .     S
C445   H491    1.083   .     S
C446   H492    1.083   .     S
C447   H493    1.083   .     S
C448   H494    1.083   .     S
C449   H495    1.083   .     S
H498   C974    1.114   .     S
H501   C975    1.114   .     S
O549   Zn1256  1.946   1_545 S
O549   Zn617   1.946   .     S
O549   Zn620   1.946   .     S
O549   Zn628   1.946   .     S
O550   Zn619   1.942   .     S
O551   Zn622   1.942   .     S
O552   Zn621   1.942   .     S
O553   Zn631   1.942   .     S
O554   Zn630   1.942   .     S
O555   C1027   1.282   1_545 A
O555   Zn625   1.942   .     S
O556   Zn617   1.942   .     S
O556   C1028   1.282   1_545 S
O557   Zn627   1.942   .     S
O558   Zn626   1.942   .     S
O559   C1027   1.284   1_545 A
O559   Zn629   1.942   .     S
O560   Zn629   1.946   .     S
O560   Zn623   1.946   .     S
O560   Zn625   1.946   .     S
O560   Zn1251  1.946   1_545 S
O561   Zn628   1.942   .     S
O561   C1028   1.284   1_545 S
O562   Zn620   1.936   .     S
O563   Zn619   1.936   .     S
O564   Zn622   1.936   .     S
O565   Zn621   1.936   .     S
O566   Zn624   1.936   .     S
O567   Zn623   1.936   .     S
O568   Zn618   1.936   .     S
O569   Zn632   1.936   .     S
O570   Zn619   1.936   .     S
O571   Zn626   1.946   .     S
O571   Zn630   1.946   .     S
O571   Zn618   1.946   .     S
O572   Zn620   1.936   .     S
O573   Zn632   1.936   .     S
O574   Zn618   1.936   .     S
O575   Zn623   1.936   .     S
O576   Zn624   1.936   .     S
O577   Zn621   1.936   .     S
O578   Zn622   1.936   .     S
O579   Zn311   1.936   1_655 S
O580   Zn626   1.936   .     S
O581   Zn1261  1.936   .     S
O582   Zn631   1.946   .     S
O582   Zn621   1.946   .     S
O582   Zn627   1.946   .     S
O583   Zn628   1.936   .     S
O584   Zn631   1.936   .     S
O585   Zn314   1.936   1_655 S
O586   Zn625   1.936   .     S
O587   Zn1249  1.936   .     S
O588   Zn310   1.936   1_655 S
O589   Zn627   1.936   .     S
O590   Zn617   1.936   .     S
O591   Zn1257  1.936   .     S
O592   Zn630   1.936   .     S
O593   Zn624   1.942   .     S
O593   C1021   1.284   .     S
O594   Zn315   1.936   1_655 S
O595   Zn1260  1.936   .     S
O596   Zn629   1.936   .     S
O604   Zn623   1.942   .     S
O604   C1022   1.284   1_545 S
O614   Zn618   1.942   .     S
O615   Zn632   1.942   .     S
O615   C76     1.284   1_655 S
O616   Zn620   1.942   .     S
Zn617  O1219   1.936   1_545 S
Zn619  O1192   1.946   .     S
Zn622  O255    1.946   1_655 S
Zn624  O1181   1.946   .     S
Zn625  O1223   1.936   1_545 S
Zn628  O1227   1.936   1_545 S
Zn629  O1213   1.936   1_545 S
Zn632  O266    1.946   1_655 S
C633   C678    1.398   .     A
C633   H769    1.083   .     S
C634   H770    1.084   .     S
C634   C688    1.395   .     A
C634   C1017   1.398   1_455 S
C635   C744    1.402   .     A
C635   C715    1.455   .     S
C635   C751    1.402   .     A
C636   C716    1.455   .     S
C636   C754    1.402   .     A
C636   C743    1.402   .     A
C637   C742    1.402   .     A
C637   C717    1.455   .     S
C637   C753    1.402   .     A
C638   C741    1.402   .     A
C638   C718    1.455   .     S
C638   C756    1.402   .     A
C639   C755    1.402   .     A
C639   C719    1.455   .     S
C639   C740    1.402   .     A
C640   C759    1.402   .     A
C640   C739    1.402   .     A
C640   C729    1.455   .     S
C641   C730    1.455   .     S
C641   C757    1.402   .     A
C641   C738    1.402   .     A
C642   C761    1.402   .     A
C642   C722    1.455   .     S
C642   C737    1.402   .     A
C643   C723    1.455   .     S
C643   C760    1.402   .     A
C643   C735    1.402   .     A
C644   C724    1.455   .     S
C644   C763    1.402   .     A
C644   C734    1.402   .     A
C645   H771    1.083   .     S
C645   C702    1.397   .     A
C645   C689    1.398   .     A
C646   C762    1.402   .     A
C646   C726    1.455   .     S
C646   C733    1.402   .     A
C647   C732    1.402   .     A
C647   C727    1.455   .     S
C647   C765    1.402   .     A
C648   C728    1.455   .     S
C648   C764    1.402   .     A
C648   C731    1.402   .     A
C649   C712    1.471   .     S
C649   C683    1.414   .     A
C649   C46     1.414   1_565 S
C650   C711    1.471   .     S
C650   C684    1.414   .     A
C650   C47     1.414   1_565 S
C651   C710    1.471   .     S
C651   C680    1.414   .     A
C651   C1001   1.414   1_455 S
C652   C709    1.471   .     S
C652   C682    1.414   .     A
C652   C1002   1.414   1_455 S
C653   C708    1.471   .     S
C653   C691    1.414   .     A
C653   C1003   1.414   1_455 S
C654   C693    1.414   .     A
C654   C707    1.471   .     S
C654   C1004   1.414   .     S
C655   C706    1.471   .     S
C655   C689    1.414   .     A
C655   C62     1.414   1_565 S
C656   H772    1.083   .     S
C656   C704    1.397   .     A
C656   C690    1.398   .     A
C657   C705    1.471   .     S
C657   C690    1.414   .     A
C658   O913    1.411   .     S
C658   H815    1.112   .     S
C658   H812    1.109   .     S
C659   O914    1.411   .     S
C659   H816    1.109   .     S
C659   H818    1.112   .     S
C660   H819    1.109   .     S
C660   H821    1.113   .     S
C660   H820    1.114   .     S
C660   O915    1.410   .     S
C661   H825    1.113   .     S
C661   H823    1.114   .     S
C661   H822    1.109   .     S
C661   O916    1.410   .     S
C662   H827    1.109   .     S
C662   H828    1.113   .     S
C662   H826    1.114   .     S
C662   O917    1.410   .     S
C663   O918    1.410   .     S
C663   H830    1.109   .     S
C663   H831    1.113   .     S
C663   H829    1.114   .     S
C664   O919    1.411   .     S
C664   H833    1.109   .     S
C664   H834    1.112   .     S
C664   H1148   1.114   .     S
C665   H837    1.109   .     S
C665   O921    1.411   .     S
C665   H838    1.112   .     S
C665   H1152   1.114   .     S
C666   H839    1.109   .     S
C666   H840    1.114   .     S
C666   H841    1.113   .     S
C666   O922    1.410   .     S
C667   C691    1.398   .     A
C667   H773    1.083   .     S
C667   C700    1.397   .     A
C668   H844    1.113   .     S
C668   O923    1.410   .     S
C668   H843    1.114   .     S
C668   H842    1.109   .     S
C669   O924    1.411   .     S
C669   H848    1.112   .     S
C669   H845    1.109   .     S
C669   H847    1.114   .     S
C670   H850    1.114   .     S
C670   O925    1.411   .     S
C670   H851    1.112   .     S
C670   H849    1.109   .     S
C671   O926    1.411   .     S
C671   H854    1.112   .     S
C671   H853    1.109   .     S
C671   H852    1.114   .     S
C672   H858    1.112   .     S
C672   H855    1.114   .     S
C672   H856    1.109   .     S
C672   O927    1.411   .     S
C673   H860    1.109   .     S
C673   H859    1.114   .     S
C673   H861    1.113   .     S
C673   O928    1.410   .     S
C674   H863    1.109   .     S
C674   O929    1.410   .     S
C674   H864    1.113   .     S
C674   H862    1.114   .     S
C675   C693    1.398   .     A
C675   H774    1.083   .     S
C675   C701    1.397   .     A
C676   H775    1.084   .     S
C676   C694    1.395   .     A
C677   H776    1.084   .     S
C677   C695    1.394   .     A
C677   C72     1.398   1_565 S
C678   O913    1.385   .     S
C679   O914    1.385   .     S
C679   C681    1.398   .     A
C680   O915    1.383   .     S
C680   C692    1.395   .     A
C681   H780    1.083   .     S
C682   O916    1.383   .     S
C682   C703    1.395   .     A
C683   O917    1.383   .     S
C683   C714    1.395   .     A
C684   O918    1.383   .     S
C684   C725    1.395   .     A
C685   O919    1.385   .     S
C685   C736    1.398   .     A
C685   C967    1.414   .     S
C686   O921    1.385   .     S
C686   C747    1.398   .     A
C686   C968    1.414   .     S
C687   C758    1.395   .     A
C687   O922    1.383   .     S
C687   C969    1.414   .     S
C688   O923    1.382   .     S
C688   C970    1.414   1_455 S
C689   O924    1.385   .     S
C690   O925    1.385   .     S
C691   O926    1.385   .     S
C692   C698    1.397   .     A
C692   H791    1.084   .     S
C693   O927    1.385   .     S
C694   O928    1.383   .     S
C695   O929    1.382   .     S
C695   C25     1.414   1_565 S
C696   C714    1.397   .     A
C696   C1      1.397   1_565 S
C696   C697    1.465   1_554 S
C697   C725    1.397   .     A
C697   C696    1.465   1_556 S
C697   C49     1.397   1_565 S
C698   C699    1.465   1_554 S
C698   C1052   1.397   1_455 S
C699   C703    1.398   .     A
C699   C698    1.465   1_556 S
C699   C1063   1.397   1_455 S
C700   C1017   1.464   1_455 S
C700   C1074   1.398   1_455 S
C701   C950    1.398   .     S
C701   C1016   1.464   .     S
C702   C44     1.397   1_565 S
C702   C72     1.465   1_565 S
C703   H802    1.084   .     S
C705   O932    1.282   .     A
C706   O866    1.282   .     A
C706   O288    1.284   1_565 S
C707   O867    1.282   .     A
C707   O1246   1.284   .     S
C708   O868    1.282   .     A
C708   O1247   1.284   1_455 S
C709   O873    1.283   .     A
C709   O869    1.282   .     A
C710   O870    1.282   .     A
C710   O874    1.284   .     A
C711   O243    1.284   1_565 A
C711   O239    1.282   1_565 A
C712   O240    1.282   1_565 S
C712   O245    1.284   1_565 S
C713   C768    1.455   .     S
C713   O906    1.280   .     A
C713   O878    1.280   .     A
C714   H813    1.084   .     S
C715   O879    1.280   .     A
C715   O907    1.280   .     A
C716   O880    1.280   .     A
C716   O904    1.280   .     A
C717   O905    1.280   .     A
C717   O881    1.280   .     A
C718   O882    1.280   .     A
C718   O911    1.280   .     A
C719   O912    1.280   .     A
C719   O883    1.280   .     A
C720   O884    1.280   .     A
C720   C766    1.455   .     S
C720   O908    1.280   .     A
C721   C767    1.455   .     S
C721   O885    1.280   .     A
C721   O910    1.280   .     A
C722   O897    1.280   .     A
C722   O886    1.280   .     A
C723   O899    1.280   .     A
C723   O888    1.280   .     A
C724   O889    1.280   .     A
C724   O895    1.280   .     A
C725   H824    1.084   .     S
C726   O896    1.280   .     A
C726   O890    1.280   .     A
C727   O902    1.280   .     A
C727   O891    1.280   .     A
C728   O903    1.280   .     A
C728   O892    1.280   .     A
C729   O893    1.280   .     A
C729   O900    1.280   .     A
C730   O901    1.280   .     A
C730   O894    1.280   .     A
C731   C748    1.386   .     A
C731   H777    1.083   .     S
C732   C746    1.386   .     A
C732   H778    1.083   .     S
C733   C745    1.386   .     A
C733   H779    1.083   .     S
C734   H781    1.083   .     S
C734   C744    1.386   .     A
C735   C743    1.386   .     A
C735   H782    1.083   .     S
C736   H835    1.083   .     S
C736   C1014   1.397   .     S
C737   C742    1.386   .     A
C737   H783    1.083   .     S
C738   H784    1.083   .     S
C738   C741    1.386   .     A
C739   C740    1.386   .     A
C739   H785    1.083   .     S
C740   H786    1.083   .     S
C741   H787    1.083   .     S
C742   H788    1.083   .     S
C743   H789    1.083   .     S
C744   H790    1.083   .     S
C745   C768    1.402   .     A
C745   H792    1.083   .     S
C746   H793    1.083   .     S
C746   C767    1.402   .     A
C747   H846    1.083   .     S
C747   C1015   1.397   .     S
C748   C766    1.402   .     A
C748   H794    1.083   .     S
C749   C765    1.386   .     A
C749   H795    1.083   .     S
C749   C767    1.402   .     A
C750   H796    1.083   .     S
C750   C766    1.402   .     A
C750   C764    1.386   .     A
C751   C763    1.386   .     A
C751   H797    1.083   .     S
C752   H798    1.083   .     S
C752   C768    1.402   .     A
C752   C762    1.386   .     A
C753   H799    1.083   .     S
C753   C761    1.386   .     A
C754   H800    1.083   .     S
C754   C760    1.386   .     A
C755   C759    1.386   .     A
C755   H801    1.083   .     S
C756   H803    1.083   .     S
C756   C757    1.386   .     A
C757   H804    1.083   .     S
C758   H857    1.084   .     S
C758   C1016   1.398   .     S
C759   H805    1.083   .     S
C760   H806    1.083   .     S
C761   H807    1.083   .     S
C762   H808    1.083   .     S
C763   H809    1.083   .     S
C764   H810    1.083   .     S
C765   H811    1.083   .     S
H814   C26     1.114   1_565 S
H817   C27     1.114   1_565 S
H832   C980    1.114   1_455 S
H836   C981    1.114   1_455 S
O865   Zn933   1.946   .     S
O865   Zn936   1.946   .     S
O865   Zn944   1.946   .     S
O866   Zn935   1.942   .     S
O867   Zn938   1.942   .     S
O868   Zn937   1.942   .     S
O869   Zn947   1.942   .     S
O870   Zn946   1.942   .     S
O871   Zn941   1.942   .     S
O872   Zn933   1.942   .     S
O873   Zn943   1.942   .     S
O874   Zn942   1.942   .     S
O875   Zn945   1.942   .     S
O876   Zn945   1.946   .     S
O876   Zn939   1.946   .     S
O876   Zn941   1.946   .     S
O877   Zn944   1.942   .     S
O878   Zn936   1.936   .     S
O879   Zn935   1.936   .     S
O880   Zn938   1.936   .     S
O881   Zn937   1.936   .     S
O882   Zn940   1.936   .     S
O883   Zn939   1.936   .     S
O884   Zn934   1.936   .     S
O885   Zn948   1.936   .     S
O886   Zn935   1.936   .     S
O887   Zn942   1.946   .     S
O887   Zn946   1.946   .     S
O887   Zn934   1.946   .     S
O887   Zn1254  1.946   1_455 S
O888   Zn936   1.936   .     S
O889   Zn948   1.936   .     S
O890   Zn934   1.936   .     S
O891   Zn939   1.936   .     S
O892   Zn940   1.936   .     S
O893   Zn937   1.936   .     S
O894   Zn938   1.936   .     S
O895   Zn1259  1.936   .     S
O896   Zn942   1.936   .     S
O897   Zn313   1.936   1_565 S
O898   Zn947   1.946   .     S
O898   Zn937   1.946   .     S
O898   Zn943   1.946   .     S
O898   Zn1264  1.946   1_455 S
O899   Zn944   1.936   .     S
O900   Zn947   1.936   .     S
O901   Zn1262  1.936   .     S
O902   Zn941   1.936   .     S
O903   Zn301   1.936   1_565 S
O904   Zn1258  1.936   .     S
O905   Zn943   1.936   .     S
O906   Zn933   1.936   .     S
O907   Zn309   1.936   1_565 S
O908   Zn946   1.936   .     S
O909   Zn940   1.942   .     S
O909   C73     1.284   1_565 S
O910   Zn1263  1.936   .     S
O911   Zn312   1.936   1_565 S
O912   Zn945   1.936   .     S
O920   Zn939   1.942   .     S
O930   Zn934   1.942   .     S
O930   C1023   1.284   1_455 S
O931   Zn948   1.942   .     S
O931   C1024   1.284   .     S
O932   Zn936   1.942   .     S
Zn935  O244    1.946   1_565 S
Zn938  O1203   1.946   .     S
Zn940  O233    1.946   1_565 S
Zn942  O1220   1.936   1_455 S
Zn943  O1211   1.936   1_455 S
Zn946  O1217   1.936   1_455 S
Zn947  O1226   1.936   1_455 S
Zn948  O1214   1.946   .     S
C949   C994    1.398   .     A
C949   H1085   1.083   .     S
C950   H1086   1.084   .     S
C950   C1004   1.395   .     A
C951   C1060   1.402   .     A
C951   C1031   1.455   .     S
C951   C1067   1.402   .     A
C952   C1032   1.455   .     S
C952   C1070   1.402   .     A
C952   C1059   1.402   .     A
C953   C1058   1.402   .     A
C953   C1033   1.455   .     S
C953   C1069   1.402   .     A
C954   C1057   1.402   .     A
C954   C1034   1.455   .     S
C954   C1072   1.402   .     A
C955   C1071   1.402   .     A
C955   C1035   1.455   .     S
C955   C1056   1.402   .     A
C956   C1075   1.402   .     A
C956   C1055   1.402   .     A
C956   C1045   1.455   .     S
C957   C1046   1.455   .     S
C957   C1073   1.402   .     A
C957   C1054   1.402   .     A
C958   C1077   1.402   .     A
C958   C1038   1.455   .     S
C958   C1053   1.402   .     A
C959   C1039   1.455   .     S
C959   C1076   1.402   .     A
C959   C1051   1.402   .     A
C960   C1040   1.455   .     S
C960   C1079   1.402   .     A
C960   C1050   1.402   .     A
C961   H1087   1.083   .     S
C961   C1018   1.397   .     A
C961   C1005   1.398   .     A
C962   C1078   1.402   .     A
C962   C1042   1.455   .     S
C962   C1049   1.402   .     A
C963   C1048   1.402   .     A
C963   C1043   1.455   .     S
C963   C1081   1.402   .     A
C964   C1044   1.455   .     S
C964   C1080   1.402   .     A
C964   C1047   1.402   .     A
C965   C1028   1.471   .     S
C965   C999    1.414   .     A
C965   C362    1.414   1_565 S
C966   C1027   1.471   .     S
C966   C1000   1.414   .     A
C966   C363    1.414   1_565 S
C967   C1026   1.471   .     S
C967   C996    1.414   .     A
C968   C1025   1.471   .     S
C968   C998    1.414   .     A
C969   C1024   1.471   .     S
C969   C1007   1.414   .     A
C970   C1009   1.414   .     A
C970   C1023   1.471   .     S
C970   C688    1.414   1_655 S
C971   C1022   1.471   .     S
C971   C1005   1.414   .     A
C971   C378    1.414   1_565 S
C972   H1088   1.083   .     S
C972   C1020   1.397   .     A
C972   C1006   1.398   .     A
C973   C1021   1.471   .     S
C973   C1006   1.414   .     A
C974   O1229   1.411   .     S
C974   H1131   1.112   .     S
C974   H1128   1.109   .     S
C975   O1230   1.411   .     S
C975   H1132   1.109   .     S
C975   H1134   1.112   .     S
C976   H1135   1.109   .     S
C976   H1137   1.113   .     S
C976   H1136   1.114   .     S
C976   O1231   1.410   .     S
C977   H1141   1.113   .     S
C977   H1139   1.114   .     S
C977   H1138   1.109   .     S
C977   O1232   1.410   .     S
C978   H1143   1.109   .     S
C978   H1144   1.113   .     S
C978   H1142   1.114   .     S
C978   O1233   1.410   .     S
C979   O1234   1.410   .     S
C979   H1146   1.109   .     S
C979   H1147   1.113   .     S
C979   H1145   1.114   .     S
C980   O1235   1.411   .     S
C980   H1149   1.109   .     S
C980   H1150   1.112   .     S
C980   H832    1.114   1_655 S
C981   H1153   1.109   .     S
C981   O1237   1.411   .     S
C981   H1154   1.112   .     S
C981   H836    1.114   1_655 S
C982   H1155   1.109   .     S
C982   H1156   1.114   .     S
C982   H1157   1.113   .     S
C982   O1238   1.410   .     S
C983   C1007   1.398   .     A
C983   H1089   1.083   .     S
C983   C1016   1.397   .     A
C984   H1160   1.113   .     S
C984   O1239   1.410   .     S
C984   H1159   1.114   .     S
C984   H1158   1.109   .     S
C985   O1240   1.411   .     S
C985   H1164   1.112   .     S
C985   H1161   1.109   .     S
C985   H1163   1.114   .     S
C986   H1166   1.114   .     S
C986   O1241   1.411   .     S
C986   H1167   1.112   .     S
C986   H1165   1.109   .     S
C987   O1242   1.411   .     S
C987   H1170   1.112   .     S
C987   H1169   1.109   .     S
C987   H1168   1.114   .     S
C988   H1174   1.112   .     S
C988   H1171   1.114   .     S
C988   H1172   1.109   .     S
C988   O1243   1.411   .     S
C989   H1176   1.109   .     S
C989   H1175   1.114   .     S
C989   H1177   1.113   .     S
C989   O1244   1.410   .     S
C990   H1179   1.109   .     S
C990   O1245   1.410   .     S
C990   H1180   1.113   .     S
C990   H1178   1.114   .     S
C991   C1009   1.398   .     A
C991   H1090   1.083   .     S
C991   C1017   1.397   .     A
C992   H1091   1.084   .     S
C992   C1010   1.395   .     A
C993   H1092   1.084   .     S
C993   C1011   1.394   .     A
C993   C388    1.398   1_565 S
C994   O1229   1.385   .     S
C995   O1230   1.385   .     S
C995   C997    1.398   .     A
C996   O1231   1.383   .     S
C996   C1008   1.395   .     A
C997   H1096   1.083   .     S
C998   O1232   1.383   .     S
C998   C1019   1.395   .     A
C999   O1233   1.383   .     S
C999   C1030   1.395   .     A
C1000  O1234   1.383   .     S
C1000  C1041   1.395   .     A
C1001  O1235   1.385   .     S
C1001  C1052   1.398   .     A
C1001  C651    1.414   1_655 S
C1002  O1237   1.385   .     S
C1002  C1063   1.398   .     A
C1002  C652    1.414   1_655 S
C1003  C1074   1.395   .     A
C1003  O1238   1.383   .     S
C1003  C653    1.414   1_655 S
C1004  O1239   1.382   .     S
C1005  O1240   1.385   .     S
C1006  O1241   1.385   .     S
C1007  O1242   1.385   .     S
C1008  C1014   1.397   .     A
C1008  H1107   1.084   .     S
C1009  O1243   1.385   .     S
C1010  O1244   1.383   .     S
C1011  O1245   1.382   .     S
C1011  C341    1.414   1_565 S
C1012  C1030   1.397   .     A
C1012  C317    1.397   1_565 S
C1012  C1013   1.465   1_554 S
C1013  C1041   1.397   .     A
C1013  C1012   1.465   1_556 S
C1013  C365    1.397   1_565 S
C1014  C1015   1.465   1_554 S
C1015  C1019   1.398   .     A
C1015  C1014   1.465   1_556 S
C1017  C634    1.398   1_655 S
C1017  C700    1.464   1_655 S
C1018  C360    1.397   1_565 S
C1018  C388    1.465   1_565 S
C1019  H1118   1.084   .     S
C1021  O1248   1.282   .     A
C1022  O1182   1.282   .     A
C1022  O604    1.284   1_565 S
C1023  O1183   1.282   .     A
C1023  O930    1.284   1_655 S
C1024  O1184   1.282   .     A
C1025  O1189   1.283   .     A
C1025  O1185   1.282   .     A
C1026  O1186   1.282   .     A
C1026  O1190   1.284   .     A
C1027  O559    1.284   1_565 A
C1027  O555    1.282   1_565 A
C1028  O556    1.282   1_565 S
C1028  O561    1.284   1_565 S
C1029  C1084   1.455   .     S
C1029  O1222   1.280   .     A
C1029  O1194   1.280   .     A
C1030  H1129   1.084   .     S
C1031  O1195   1.280   .     A
C1031  O1223   1.280   .     A
C1032  O1196   1.280   .     A
C1032  O1220   1.280   .     A
C1033  O1221   1.280   .     A
C1033  O1197   1.280   .     A
C1034  O1198   1.280   .     A
C1034  O1227   1.280   .     A
C1035  O1228   1.280   .     A
C1035  O1199   1.280   .     A
C1036  O1200   1.280   .     A
C1036  C1082   1.455   .     S
C1036  O1224   1.280   .     A
C1037  C1083   1.455   .     S
C1037  O1201   1.280   .     A
C1037  O1226   1.280   .     A
C1038  O1213   1.280   .     A
C1038  O1202   1.280   .     A
C1039  O1215   1.280   .     A
C1039  O1204   1.280   .     A
C1040  O1205   1.280   .     A
C1040  O1211   1.280   .     A
C1041  H1140   1.084   .     S
C1042  O1212   1.280   .     A
C1042  O1206   1.280   .     A
C1043  O1218   1.280   .     A
C1043  O1207   1.280   .     A
C1044  O1219   1.280   .     A
C1044  O1208   1.280   .     A
C1045  O1209   1.280   .     A
C1045  O1216   1.280   .     A
C1046  O1217   1.280   .     A
C1046  O1210   1.280   .     A
C1047  C1064   1.386   .     A
C1047  H1093   1.083   .     S
C1048  C1062   1.386   .     A
C1048  H1094   1.083   .     S
C1049  C1061   1.386   .     A
C1049  H1095   1.083   .     S
C1050  H1097   1.083   .     S
C1050  C1060   1.386   .     A
C1051  C1059   1.386   .     A
C1051  H1098   1.083   .     S
C1052  H1151   1.083   .     S
C1052  C698    1.397   1_655 S
C1053  C1058   1.386   .     A
C1053  H1099   1.083   .     S
C1054  H1100   1.083   .     S
C1054  C1057   1.386   .     A
C1055  C1056   1.386   .     A
C1055  H1101   1.083   .     S
C1056  H1102   1.083   .     S
C1057  H1103   1.083   .     S
C1058  H1104   1.083   .     S
C1059  H1105   1.083   .     S
C1060  H1106   1.083   .     S
C1061  C1084   1.402   .     A
C1061  H1108   1.083   .     S
C1062  H1109   1.083   .     S
C1062  C1083   1.402   .     A
C1063  H1162   1.083   .     S
C1063  C699    1.397   1_655 S
C1064  C1082   1.402   .     A
C1064  H1110   1.083   .     S
C1065  C1081   1.386   .     A
C1065  H1111   1.083   .     S
C1065  C1083   1.402   .     A
C1066  H1112   1.083   .     S
C1066  C1082   1.402   .     A
C1066  C1080   1.386   .     A
C1067  C1079   1.386   .     A
C1067  H1113   1.083   .     S
C1068  H1114   1.083   .     S
C1068  C1084   1.402   .     A
C1068  C1078   1.386   .     A
C1069  H1115   1.083   .     S
C1069  C1077   1.386   .     A
C1070  H1116   1.083   .     S
C1070  C1076   1.386   .     A
C1071  C1075   1.386   .     A
C1071  H1117   1.083   .     S
C1072  H1119   1.083   .     S
C1072  C1073   1.386   .     A
C1073  H1120   1.083   .     S
C1074  H1173   1.084   .     S
C1074  C700    1.398   1_655 S
C1075  H1121   1.083   .     S
C1076  H1122   1.083   .     S
C1077  H1123   1.083   .     S
C1078  H1124   1.083   .     S
C1079  H1125   1.083   .     S
C1080  H1126   1.083   .     S
C1081  H1127   1.083   .     S
H1130  C342    1.114   1_565 S
H1133  C343    1.114   1_565 S
O1181  Zn1249  1.946   .     S
O1181  Zn1252  1.946   .     S
O1181  Zn1260  1.946   .     S
O1182  Zn1251  1.942   .     S
O1183  Zn1254  1.942   .     S
O1184  Zn1253  1.942   .     S
O1185  Zn1263  1.942   .     S
O1186  Zn1262  1.942   .     S
O1187  Zn1257  1.942   .     S
O1188  Zn1249  1.942   .     S
O1189  Zn1259  1.942   .     S
O1190  Zn1258  1.942   .     S
O1191  Zn1261  1.942   .     S
O1192  Zn1261  1.946   .     S
O1192  Zn1255  1.946   .     S
O1192  Zn1257  1.946   .     S
O1193  Zn1260  1.942   .     S
O1194  Zn1252  1.936   .     S
O1195  Zn1251  1.936   .     S
O1196  Zn1254  1.936   .     S
O1197  Zn1253  1.936   .     S
O1198  Zn1256  1.936   .     S
O1199  Zn1255  1.936   .     S
O1200  Zn1250  1.936   .     S
O1201  Zn1264  1.936   .     S
O1202  Zn1251  1.936   .     S
O1203  Zn1258  1.946   .     S
O1203  Zn1262  1.946   .     S
O1203  Zn1250  1.946   .     S
O1204  Zn1252  1.936   .     S
O1205  Zn1264  1.936   .     S
O1206  Zn1250  1.936   .     S
O1207  Zn1255  1.936   .     S
O1208  Zn1256  1.936   .     S
O1209  Zn1253  1.936   .     S
O1210  Zn1254  1.936   .     S
O1211  Zn943   1.936   1_655 S
O1212  Zn1258  1.936   .     S
O1213  Zn629   1.936   1_565 S
O1214  Zn1263  1.946   .     S
O1214  Zn1253  1.946   .     S
O1214  Zn1259  1.946   .     S
O1215  Zn1260  1.936   .     S
O1216  Zn1263  1.936   .     S
O1217  Zn946   1.936   1_655 S
O1218  Zn1257  1.936   .     S
O1219  Zn617   1.936   1_565 S
O1220  Zn942   1.936   1_655 S
O1221  Zn1259  1.936   .     S
O1222  Zn1249  1.936   .     S
O1223  Zn625   1.936   1_565 S
O1224  Zn1262  1.936   .     S
O1225  Zn1256  1.942   .     S
O1225  C389    1.284   1_565 S
O1226  Zn947   1.936   1_655 S
O1227  Zn628   1.936   1_565 S
O1228  Zn1261  1.936   .     S
O1236  Zn1255  1.942   .     S
O1246  Zn1250  1.942   .     S
O1247  Zn1264  1.942   .     S
O1247  C708    1.284   1_655 S
O1248  Zn1252  1.942   .     S
Zn1251 O560    1.946   1_565 S
Zn1254 O887    1.946   1_655 S
Zn1256 O549    1.946   1_565 S
Zn1264 O898    1.946   1_655 S
