data_str_m1_o10_o16_pcu_sym.236
_audit_creation_date              2020-01-03
_audit_creation_method            'Materials Studio'
_symmetry_space_group_name_H-M    'P1'
_symmetry_Int_Tables_number       1
_symmetry_cell_setting            triclinic
loop_
_symmetry_equiv_pos_as_xyz
  x,y,z
_cell_length_a                    32.5903
_cell_length_b                    32.5764
_cell_length_c                    31.0291
_cell_angle_alpha                 96.8551
_cell_angle_beta                  75.0421
_cell_angle_gamma                 98.5123
loop_
_atom_site_label
_atom_site_type_symbol
_atom_site_fract_x
_atom_site_fract_y
_atom_site_fract_z
_atom_site_U_iso_or_equiv
_atom_site_adp_type
_atom_site_occupancy
C1     C     0.05288   0.15975   0.25973   0.00000  Uiso   1.00
C2     C     0.18202   0.16733   0.05651   0.00000  Uiso   1.00
C3     C     0.19458   0.09727   0.06353   0.00000  Uiso   1.00
C4     C     0.28066   0.17371   0.24016   0.00000  Uiso   1.00
C5     C     0.14431   0.19559   0.41932   0.00000  Uiso   1.00
C6     C     0.32635   0.17619   0.23655   0.00000  Uiso   1.00
C7     C     0.00771   0.15675   0.26415   0.00000  Uiso   1.00
C8     C     0.18011   0.32241   0.23727   0.00000  Uiso   1.00
C9     C     0.15132   0.01204   0.26397   0.00000  Uiso   1.00
C10    C     0.15626   0.05592   0.25996   0.00000  Uiso   1.00
C11    C     0.17644   0.27784   0.24033   0.00000  Uiso   1.00
C12    C     0.14544   0.25132   0.47844   0.00000  Uiso   1.00
C13    C     0.18512   0.14777   0.12942   0.00000  Uiso   1.00
C14    C     0.14837   0.18454   0.37098   0.00000  Uiso   1.00
C15    C     0.18736   0.08446   0.02158   0.00000  Uiso   1.00
C16    C     0.19085   0.13837   0.08144   0.00000  Uiso   1.00
C17    C     0.13983   0.23721   0.43612   0.00000  Uiso   1.00
C18    C     0.15693   0.22491   0.00413   0.00000  Uiso   1.00
C19    C     0.16073   0.18255   0.48907   0.00000  Uiso   1.00
C20    C     0.15145   0.16719   0.44720   0.00000  Uiso   1.00
C21    C     0.17315   0.15486   0.01433   0.00000  Uiso   1.00
C22    C     0.17521   0.11242   0.49760   0.00000  Uiso   1.00
C23    C     0.16247   0.09742   0.45860   0.00000  Uiso   1.00
C24    C     0.14914   0.12386   0.43461   0.00000  Uiso   1.00
F25    F     0.31487   0.13399   0.29686   0.00000  Uiso   1.00
F26    F     0.11676   0.32884   0.29463   0.00000  Uiso   1.00
F27    F     0.13247   0.26511   0.41060   0.00000  Uiso   1.00
F28    F     0.14187   0.29172   0.49391   0.00000  Uiso   1.00
F29    F     0.13108   0.10602   0.40099   0.00000  Uiso   1.00
H30    H     0.20690   0.00357   0.21278   0.00000  Uiso   1.00
H31    H     0.16129   0.06453   0.44739   0.00000  Uiso   1.00
H32    H     0.18896   0.05209   0.00897   0.00000  Uiso   1.00
H33    H     0.16244   0.23880   0.03570   0.00000  Uiso   1.00
H34    H     0.20069   0.07454   0.08319   0.00000  Uiso   1.00
H35    H     0.17899   0.19827   0.07263   0.00000  Uiso   1.00
H36    H     0.01517   0.19414   0.21097   0.00000  Uiso   1.00
O37    O     0.16667   0.16667   0.25000   0.00000  Uiso   1.00
O38    O     0.15451   0.12637   0.15458   0.00000  Uiso   1.00
O39    O     0.12940   0.20391   0.34968   0.00000  Uiso   1.00
O40    O     0.20824   0.17759   0.14606   0.00000  Uiso   1.00
O41    O     0.17451   0.15880   0.34968   0.00000  Uiso   1.00
O42    O     0.17930   0.08019   0.28213   0.00000  Uiso   1.00
O43    O     0.14632   0.26085   0.27013   0.00000  Uiso   1.00
O44    O     0.07412   0.13291   0.23413   0.00000  Uiso   1.00
O45    O     0.26693   0.19272   0.21360   0.00000  Uiso   1.00
O46    O     0.07071   0.18878   0.28213   0.00000  Uiso   1.00
O47    O     0.25491   0.15226   0.27013   0.00000  Uiso   1.00
O48    O     0.13760   0.06944   0.23413   0.00000  Uiso   1.00
O49    O     0.20345   0.25620   0.21360   0.00000  Uiso   1.00
Zn50   Zn    0.19338   0.13994   0.28734   0.00000  Uiso   1.00
Zn51   Zn    0.13379   0.12458   0.21875   0.00000  Uiso   1.00
Zn52   Zn    0.21056   0.19775   0.20657   0.00000  Uiso   1.00
Zn53   Zn    0.12893   0.20439   0.28733   0.00000  Uiso   1.00
C54    C     0.38621   0.15975   0.25973   0.00000  Uiso   1.00
C55    C     0.51535   0.16733   0.05651   0.00000  Uiso   1.00
C56    C     0.52791   0.09727   0.06353   0.00000  Uiso   1.00
C57    C     0.61399   0.17371   0.24016   0.00000  Uiso   1.00
C58    C     0.47764   0.19559   0.41932   0.00000  Uiso   1.00
C59    C     0.65969   0.17619   0.23655   0.00000  Uiso   1.00
C60    C     0.34104   0.15675   0.26415   0.00000  Uiso   1.00
C61    C     0.51344   0.32241   0.23727   0.00000  Uiso   1.00
C62    C     0.48465   0.01204   0.26397   0.00000  Uiso   1.00
C63    C     0.48960   0.05592   0.25996   0.00000  Uiso   1.00
C64    C     0.50977   0.27784   0.24033   0.00000  Uiso   1.00
C65    C     0.47878   0.25132   0.47844   0.00000  Uiso   1.00
C66    C     0.51845   0.14777   0.12942   0.00000  Uiso   1.00
C67    C     0.48171   0.18454   0.37098   0.00000  Uiso   1.00
C68    C     0.52069   0.08446   0.02158   0.00000  Uiso   1.00
C69    C     0.52419   0.13837   0.08144   0.00000  Uiso   1.00
C70    C     0.47317   0.23721   0.43612   0.00000  Uiso   1.00
C71    C     0.49026   0.22491   0.00413   0.00000  Uiso   1.00
C72    C     0.49406   0.18255   0.48907   0.00000  Uiso   1.00
C73    C     0.48478   0.16719   0.44720   0.00000  Uiso   1.00
C74    C     0.50648   0.15486   0.01433   0.00000  Uiso   1.00
C75    C     0.50855   0.11242   0.49760   0.00000  Uiso   1.00
C76    C     0.49580   0.09742   0.45860   0.00000  Uiso   1.00
C77    C     0.48248   0.12386   0.43461   0.00000  Uiso   1.00
F78    F     0.64821   0.13399   0.29686   0.00000  Uiso   1.00
F79    F     0.45010   0.32884   0.29463   0.00000  Uiso   1.00
F80    F     0.46580   0.26511   0.41060   0.00000  Uiso   1.00
F81    F     0.47520   0.29172   0.49391   0.00000  Uiso   1.00
F82    F     0.46442   0.10602   0.40099   0.00000  Uiso   1.00
H83    H     0.54023   0.00357   0.21278   0.00000  Uiso   1.00
H84    H     0.49463   0.06453   0.44739   0.00000  Uiso   1.00
H85    H     0.52230   0.05209   0.00897   0.00000  Uiso   1.00
H86    H     0.49577   0.23880   0.03570   0.00000  Uiso   1.00
H87    H     0.53402   0.07454   0.08319   0.00000  Uiso   1.00
H88    H     0.51232   0.19827   0.07263   0.00000  Uiso   1.00
H89    H     0.34850   0.19414   0.21097   0.00000  Uiso   1.00
O90    O     0.50000   0.16667   0.25000   0.00000  Uiso   1.00
O91    O     0.48784   0.12637   0.15458   0.00000  Uiso   1.00
O92    O     0.46274   0.20391   0.34968   0.00000  Uiso   1.00
O93    O     0.54157   0.17759   0.14606   0.00000  Uiso   1.00
O94    O     0.50785   0.15880   0.34968   0.00000  Uiso   1.00
O95    O     0.51264   0.08019   0.28213   0.00000  Uiso   1.00
O96    O     0.47965   0.26085   0.27013   0.00000  Uiso   1.00
O97    O     0.40745   0.13291   0.23413   0.00000  Uiso   1.00
O98    O     0.60026   0.19272   0.21360   0.00000  Uiso   1.00
O99    O     0.40405   0.18878   0.28213   0.00000  Uiso   1.00
O100   O     0.58824   0.15226   0.27013   0.00000  Uiso   1.00
O101   O     0.47093   0.06944   0.23413   0.00000  Uiso   1.00
O102   O     0.53678   0.25620   0.21360   0.00000  Uiso   1.00
Zn103  Zn    0.52672   0.13994   0.28734   0.00000  Uiso   1.00
Zn104  Zn    0.46713   0.12458   0.21875   0.00000  Uiso   1.00
Zn105  Zn    0.54389   0.19775   0.20657   0.00000  Uiso   1.00
Zn106  Zn    0.46226   0.20439   0.28733   0.00000  Uiso   1.00
C107   C     0.71954   0.15975   0.25973   0.00000  Uiso   1.00
C108   C     0.84869   0.16733   0.05651   0.00000  Uiso   1.00
C109   C     0.86124   0.09727   0.06353   0.00000  Uiso   1.00
C110   C     0.94733   0.17371   0.24016   0.00000  Uiso   1.00
C111   C     0.81098   0.19559   0.41932   0.00000  Uiso   1.00
C112   C     0.99302   0.17619   0.23655   0.00000  Uiso   1.00
C113   C     0.67437   0.15675   0.26415   0.00000  Uiso   1.00
C114   C     0.84678   0.32241   0.23727   0.00000  Uiso   1.00
C115   C     0.81798   0.01204   0.26397   0.00000  Uiso   1.00
C116   C     0.82293   0.05592   0.25996   0.00000  Uiso   1.00
C117   C     0.84311   0.27784   0.24033   0.00000  Uiso   1.00
C118   C     0.81211   0.25132   0.47844   0.00000  Uiso   1.00
C119   C     0.85178   0.14777   0.12942   0.00000  Uiso   1.00
C120   C     0.81504   0.18454   0.37098   0.00000  Uiso   1.00
C121   C     0.85403   0.08446   0.02158   0.00000  Uiso   1.00
C122   C     0.85752   0.13837   0.08144   0.00000  Uiso   1.00
C123   C     0.80650   0.23721   0.43612   0.00000  Uiso   1.00
C124   C     0.82359   0.22491   0.00413   0.00000  Uiso   1.00
C125   C     0.82739   0.18255   0.48907   0.00000  Uiso   1.00
C126   C     0.81811   0.16719   0.44720   0.00000  Uiso   1.00
C127   C     0.83981   0.15486   0.01433   0.00000  Uiso   1.00
C128   C     0.84188   0.11242   0.49760   0.00000  Uiso   1.00
C129   C     0.82914   0.09742   0.45860   0.00000  Uiso   1.00
C130   C     0.81581   0.12386   0.43461   0.00000  Uiso   1.00
F131   F     0.98154   0.13399   0.29686   0.00000  Uiso   1.00
F132   F     0.78343   0.32884   0.29463   0.00000  Uiso   1.00
F133   F     0.79914   0.26511   0.41060   0.00000  Uiso   1.00
F134   F     0.80854   0.29172   0.49391   0.00000  Uiso   1.00
F135   F     0.79775   0.10602   0.40099   0.00000  Uiso   1.00
H136   H     0.87356   0.00357   0.21278   0.00000  Uiso   1.00
H137   H     0.82796   0.06453   0.44739   0.00000  Uiso   1.00
H138   H     0.85563   0.05209   0.00897   0.00000  Uiso   1.00
H139   H     0.82910   0.23880   0.03570   0.00000  Uiso   1.00
H140   H     0.86735   0.07454   0.08319   0.00000  Uiso   1.00
H141   H     0.84565   0.19827   0.07263   0.00000  Uiso   1.00
H142   H     0.68183   0.19414   0.21097   0.00000  Uiso   1.00
O143   O     0.83333   0.16667   0.25000   0.00000  Uiso   1.00
O144   O     0.82118   0.12637   0.15458   0.00000  Uiso   1.00
O145   O     0.79607   0.20391   0.34968   0.00000  Uiso   1.00
O146   O     0.87491   0.17759   0.14606   0.00000  Uiso   1.00
O147   O     0.84118   0.15880   0.34968   0.00000  Uiso   1.00
O148   O     0.84597   0.08019   0.28213   0.00000  Uiso   1.00
O149   O     0.81298   0.26085   0.27013   0.00000  Uiso   1.00
O150   O     0.74078   0.13291   0.23413   0.00000  Uiso   1.00
O151   O     0.93360   0.19272   0.21360   0.00000  Uiso   1.00
O152   O     0.73738   0.18878   0.28213   0.00000  Uiso   1.00
O153   O     0.92158   0.15226   0.27013   0.00000  Uiso   1.00
O154   O     0.80426   0.06944   0.23413   0.00000  Uiso   1.00
O155   O     0.87012   0.25620   0.21360   0.00000  Uiso   1.00
Zn156  Zn    0.86005   0.13994   0.28734   0.00000  Uiso   1.00
Zn157  Zn    0.80046   0.12458   0.21875   0.00000  Uiso   1.00
Zn158  Zn    0.87723   0.19775   0.20657   0.00000  Uiso   1.00
Zn159  Zn    0.79560   0.20439   0.28733   0.00000  Uiso   1.00
C160   C     0.05288   0.49309   0.25973   0.00000  Uiso   1.00
C161   C     0.18202   0.50066   0.05651   0.00000  Uiso   1.00
C162   C     0.19458   0.43061   0.06353   0.00000  Uiso   1.00
C163   C     0.28066   0.50704   0.24016   0.00000  Uiso   1.00
C164   C     0.14431   0.52892   0.41932   0.00000  Uiso   1.00
C165   C     0.32635   0.50952   0.23655   0.00000  Uiso   1.00
C166   C     0.00771   0.49008   0.26415   0.00000  Uiso   1.00
C167   C     0.18011   0.65575   0.23727   0.00000  Uiso   1.00
C168   C     0.15132   0.34537   0.26397   0.00000  Uiso   1.00
C169   C     0.15626   0.38925   0.25996   0.00000  Uiso   1.00
C170   C     0.17644   0.61118   0.24033   0.00000  Uiso   1.00
C171   C     0.14544   0.58466   0.47844   0.00000  Uiso   1.00
C172   C     0.18512   0.48111   0.12942   0.00000  Uiso   1.00
C173   C     0.14837   0.51788   0.37098   0.00000  Uiso   1.00
C174   C     0.18736   0.41780   0.02158   0.00000  Uiso   1.00
C175   C     0.19085   0.47170   0.08144   0.00000  Uiso   1.00
C176   C     0.13983   0.57054   0.43612   0.00000  Uiso   1.00
C177   C     0.15693   0.55825   0.00413   0.00000  Uiso   1.00
C178   C     0.16073   0.51588   0.48907   0.00000  Uiso   1.00
C179   C     0.15145   0.50052   0.44720   0.00000  Uiso   1.00
C180   C     0.17315   0.48819   0.01433   0.00000  Uiso   1.00
C181   C     0.17521   0.44575   0.49760   0.00000  Uiso   1.00
C182   C     0.16247   0.43076   0.45860   0.00000  Uiso   1.00
C183   C     0.14914   0.45720   0.43461   0.00000  Uiso   1.00
F184   F     0.31487   0.46732   0.29686   0.00000  Uiso   1.00
F185   F     0.11676   0.66217   0.29463   0.00000  Uiso   1.00
F186   F     0.13247   0.59845   0.41060   0.00000  Uiso   1.00
F187   F     0.14187   0.62505   0.49391   0.00000  Uiso   1.00
F188   F     0.13108   0.43936   0.40099   0.00000  Uiso   1.00
H189   H     0.20690   0.33691   0.21278   0.00000  Uiso   1.00
H190   H     0.16129   0.39787   0.44739   0.00000  Uiso   1.00
H191   H     0.18896   0.38542   0.00897   0.00000  Uiso   1.00
H192   H     0.16244   0.57213   0.03570   0.00000  Uiso   1.00
H193   H     0.20069   0.40787   0.08319   0.00000  Uiso   1.00
H194   H     0.17899   0.53160   0.07263   0.00000  Uiso   1.00
H195   H     0.01517   0.52747   0.21097   0.00000  Uiso   1.00
O196   O     0.16667   0.50000   0.25000   0.00000  Uiso   1.00
O197   O     0.15451   0.45970   0.15458   0.00000  Uiso   1.00
O198   O     0.12940   0.53724   0.34968   0.00000  Uiso   1.00
O199   O     0.20824   0.51092   0.14606   0.00000  Uiso   1.00
O200   O     0.17451   0.49213   0.34968   0.00000  Uiso   1.00
O201   O     0.17930   0.41352   0.28213   0.00000  Uiso   1.00
O202   O     0.14632   0.59418   0.27013   0.00000  Uiso   1.00
O203   O     0.07412   0.46625   0.23413   0.00000  Uiso   1.00
O204   O     0.26693   0.52605   0.21360   0.00000  Uiso   1.00
O205   O     0.07071   0.52211   0.28213   0.00000  Uiso   1.00
O206   O     0.25491   0.48559   0.27013   0.00000  Uiso   1.00
O207   O     0.13760   0.40277   0.23413   0.00000  Uiso   1.00
O208   O     0.20345   0.58953   0.21360   0.00000  Uiso   1.00
Zn209  Zn    0.19338   0.47327   0.28734   0.00000  Uiso   1.00
Zn210  Zn    0.13379   0.45791   0.21875   0.00000  Uiso   1.00
Zn211  Zn    0.21056   0.53109   0.20657   0.00000  Uiso   1.00
Zn212  Zn    0.12893   0.53773   0.28733   0.00000  Uiso   1.00
C213   C     0.38621   0.49309   0.25973   0.00000  Uiso   1.00
C214   C     0.51535   0.50066   0.05651   0.00000  Uiso   1.00
C215   C     0.52791   0.43061   0.06353   0.00000  Uiso   1.00
C216   C     0.61399   0.50704   0.24016   0.00000  Uiso   1.00
C217   C     0.47764   0.52892   0.41932   0.00000  Uiso   1.00
C218   C     0.65969   0.50952   0.23655   0.00000  Uiso   1.00
C219   C     0.34104   0.49008   0.26415   0.00000  Uiso   1.00
C220   C     0.51344   0.65575   0.23727   0.00000  Uiso   1.00
C221   C     0.48465   0.34537   0.26397   0.00000  Uiso   1.00
C222   C     0.48960   0.38925   0.25996   0.00000  Uiso   1.00
C223   C     0.50977   0.61118   0.24033   0.00000  Uiso   1.00
C224   C     0.47878   0.58466   0.47844   0.00000  Uiso   1.00
C225   C     0.51845   0.48111   0.12942   0.00000  Uiso   1.00
C226   C     0.48171   0.51788   0.37098   0.00000  Uiso   1.00
C227   C     0.52069   0.41780   0.02158   0.00000  Uiso   1.00
C228   C     0.52419   0.47170   0.08144   0.00000  Uiso   1.00
C229   C     0.47317   0.57054   0.43612   0.00000  Uiso   1.00
C230   C     0.49026   0.55825   0.00413   0.00000  Uiso   1.00
C231   C     0.49406   0.51588   0.48907   0.00000  Uiso   1.00
C232   C     0.48478   0.50052   0.44720   0.00000  Uiso   1.00
C233   C     0.50648   0.48819   0.01433   0.00000  Uiso   1.00
C234   C     0.50855   0.44575   0.49760   0.00000  Uiso   1.00
C235   C     0.49580   0.43076   0.45860   0.00000  Uiso   1.00
C236   C     0.48248   0.45720   0.43461   0.00000  Uiso   1.00
F237   F     0.64821   0.46732   0.29686   0.00000  Uiso   1.00
F238   F     0.45010   0.66217   0.29463   0.00000  Uiso   1.00
F239   F     0.46580   0.59845   0.41060   0.00000  Uiso   1.00
F240   F     0.47520   0.62505   0.49391   0.00000  Uiso   1.00
F241   F     0.46442   0.43936   0.40099   0.00000  Uiso   1.00
H242   H     0.54023   0.33691   0.21278   0.00000  Uiso   1.00
H243   H     0.49463   0.39787   0.44739   0.00000  Uiso   1.00
H244   H     0.52230   0.38542   0.00897   0.00000  Uiso   1.00
H245   H     0.49577   0.57213   0.03570   0.00000  Uiso   1.00
H246   H     0.53402   0.40787   0.08319   0.00000  Uiso   1.00
H247   H     0.51232   0.53160   0.07263   0.00000  Uiso   1.00
H248   H     0.34850   0.52747   0.21097   0.00000  Uiso   1.00
O249   O     0.50000   0.50000   0.25000   0.00000  Uiso   1.00
O250   O     0.48784   0.45970   0.15458   0.00000  Uiso   1.00
O251   O     0.46274   0.53724   0.34968   0.00000  Uiso   1.00
O252   O     0.54157   0.51092   0.14606   0.00000  Uiso   1.00
O253   O     0.50785   0.49213   0.34968   0.00000  Uiso   1.00
O254   O     0.51264   0.41352   0.28213   0.00000  Uiso   1.00
O255   O     0.47965   0.59418   0.27013   0.00000  Uiso   1.00
O256   O     0.40745   0.46625   0.23413   0.00000  Uiso   1.00
O257   O     0.60026   0.52605   0.21360   0.00000  Uiso   1.00
O258   O     0.40405   0.52211   0.28213   0.00000  Uiso   1.00
O259   O     0.58824   0.48559   0.27013   0.00000  Uiso   1.00
O260   O     0.47093   0.40277   0.23413   0.00000  Uiso   1.00
O261   O     0.53678   0.58953   0.21360   0.00000  Uiso   1.00
Zn262  Zn    0.52672   0.47327   0.28734   0.00000  Uiso   1.00
Zn263  Zn    0.46713   0.45791   0.21875   0.00000  Uiso   1.00
Zn264  Zn    0.54389   0.53109   0.20657   0.00000  Uiso   1.00
Zn265  Zn    0.46226   0.53773   0.28733   0.00000  Uiso   1.00
C266   C     0.71954   0.49309   0.25973   0.00000  Uiso   1.00
C267   C     0.84869   0.50066   0.05651   0.00000  Uiso   1.00
C268   C     0.86124   0.43061   0.06353   0.00000  Uiso   1.00
C269   C     0.94733   0.50704   0.24016   0.00000  Uiso   1.00
C270   C     0.81098   0.52892   0.41932   0.00000  Uiso   1.00
C271   C     0.99302   0.50952   0.23655   0.00000  Uiso   1.00
C272   C     0.67437   0.49008   0.26415   0.00000  Uiso   1.00
C273   C     0.84678   0.65575   0.23727   0.00000  Uiso   1.00
C274   C     0.81798   0.34537   0.26397   0.00000  Uiso   1.00
C275   C     0.82293   0.38925   0.25996   0.00000  Uiso   1.00
C276   C     0.84311   0.61118   0.24033   0.00000  Uiso   1.00
C277   C     0.81211   0.58466   0.47844   0.00000  Uiso   1.00
C278   C     0.85178   0.48111   0.12942   0.00000  Uiso   1.00
C279   C     0.81504   0.51788   0.37098   0.00000  Uiso   1.00
C280   C     0.85403   0.41780   0.02158   0.00000  Uiso   1.00
C281   C     0.85752   0.47170   0.08144   0.00000  Uiso   1.00
C282   C     0.80650   0.57054   0.43612   0.00000  Uiso   1.00
C283   C     0.82359   0.55825   0.00413   0.00000  Uiso   1.00
C284   C     0.82739   0.51588   0.48907   0.00000  Uiso   1.00
C285   C     0.81811   0.50052   0.44720   0.00000  Uiso   1.00
C286   C     0.83981   0.48819   0.01433   0.00000  Uiso   1.00
C287   C     0.84188   0.44575   0.49760   0.00000  Uiso   1.00
C288   C     0.82914   0.43076   0.45860   0.00000  Uiso   1.00
C289   C     0.81581   0.45720   0.43461   0.00000  Uiso   1.00
F290   F     0.98154   0.46732   0.29686   0.00000  Uiso   1.00
F291   F     0.78343   0.66217   0.29463   0.00000  Uiso   1.00
F292   F     0.79914   0.59845   0.41060   0.00000  Uiso   1.00
F293   F     0.80854   0.62505   0.49391   0.00000  Uiso   1.00
F294   F     0.79775   0.43936   0.40099   0.00000  Uiso   1.00
H295   H     0.87356   0.33691   0.21278   0.00000  Uiso   1.00
H296   H     0.82796   0.39787   0.44739   0.00000  Uiso   1.00
H297   H     0.85563   0.38542   0.00897   0.00000  Uiso   1.00
H298   H     0.82910   0.57213   0.03570   0.00000  Uiso   1.00
H299   H     0.86735   0.40787   0.08319   0.00000  Uiso   1.00
H300   H     0.84565   0.53160   0.07263   0.00000  Uiso   1.00
H301   H     0.68183   0.52747   0.21097   0.00000  Uiso   1.00
O302   O     0.83333   0.50000   0.25000   0.00000  Uiso   1.00
O303   O     0.82118   0.45970   0.15458   0.00000  Uiso   1.00
O304   O     0.79607   0.53724   0.34968   0.00000  Uiso   1.00
O305   O     0.87491   0.51092   0.14606   0.00000  Uiso   1.00
O306   O     0.84118   0.49213   0.34968   0.00000  Uiso   1.00
O307   O     0.84597   0.41352   0.28213   0.00000  Uiso   1.00
O308   O     0.81298   0.59418   0.27013   0.00000  Uiso   1.00
O309   O     0.74078   0.46625   0.23413   0.00000  Uiso   1.00
O310   O     0.93360   0.52605   0.21360   0.00000  Uiso   1.00
O311   O     0.73738   0.52211   0.28213   0.00000  Uiso   1.00
O312   O     0.92158   0.48559   0.27013   0.00000  Uiso   1.00
O313   O     0.80426   0.40277   0.23413   0.00000  Uiso   1.00
O314   O     0.87012   0.58953   0.21360   0.00000  Uiso   1.00
Zn315  Zn    0.86005   0.47327   0.28734   0.00000  Uiso   1.00
Zn316  Zn    0.80046   0.45791   0.21875   0.00000  Uiso   1.00
Zn317  Zn    0.87723   0.53109   0.20657   0.00000  Uiso   1.00
Zn318  Zn    0.79560   0.53773   0.28733   0.00000  Uiso   1.00
C319   C     0.05288   0.82642   0.25973   0.00000  Uiso   1.00
C320   C     0.18202   0.83400   0.05651   0.00000  Uiso   1.00
C321   C     0.19458   0.76394   0.06353   0.00000  Uiso   1.00
C322   C     0.28066   0.84038   0.24016   0.00000  Uiso   1.00
C323   C     0.14431   0.86225   0.41932   0.00000  Uiso   1.00
C324   C     0.32635   0.84286   0.23655   0.00000  Uiso   1.00
C325   C     0.00771   0.82342   0.26415   0.00000  Uiso   1.00
C326   C     0.18011   0.98908   0.23727   0.00000  Uiso   1.00
C327   C     0.15132   0.67870   0.26397   0.00000  Uiso   1.00
C328   C     0.15626   0.72258   0.25996   0.00000  Uiso   1.00
C329   C     0.17644   0.94451   0.24033   0.00000  Uiso   1.00
C330   C     0.14544   0.91799   0.47844   0.00000  Uiso   1.00
C331   C     0.18512   0.81444   0.12942   0.00000  Uiso   1.00
C332   C     0.14837   0.85121   0.37098   0.00000  Uiso   1.00
C333   C     0.18736   0.75113   0.02158   0.00000  Uiso   1.00
C334   C     0.19085   0.80504   0.08144   0.00000  Uiso   1.00
C335   C     0.13983   0.90388   0.43612   0.00000  Uiso   1.00
C336   C     0.15693   0.89158   0.00413   0.00000  Uiso   1.00
C337   C     0.16073   0.84922   0.48907   0.00000  Uiso   1.00
C338   C     0.15145   0.83386   0.44720   0.00000  Uiso   1.00
C339   C     0.17315   0.82152   0.01433   0.00000  Uiso   1.00
C340   C     0.17521   0.77908   0.49760   0.00000  Uiso   1.00
C341   C     0.16247   0.76409   0.45860   0.00000  Uiso   1.00
C342   C     0.14914   0.79053   0.43461   0.00000  Uiso   1.00
F343   F     0.31487   0.80066   0.29686   0.00000  Uiso   1.00
F344   F     0.11676   0.99550   0.29463   0.00000  Uiso   1.00
F345   F     0.13247   0.93178   0.41060   0.00000  Uiso   1.00
F346   F     0.14187   0.95839   0.49391   0.00000  Uiso   1.00
F347   F     0.13108   0.77269   0.40099   0.00000  Uiso   1.00
H348   H     0.20690   0.67024   0.21278   0.00000  Uiso   1.00
H349   H     0.16129   0.73120   0.44739   0.00000  Uiso   1.00
H350   H     0.18896   0.71876   0.00897   0.00000  Uiso   1.00
H351   H     0.16244   0.90547   0.03570   0.00000  Uiso   1.00
H352   H     0.20069   0.74120   0.08319   0.00000  Uiso   1.00
H353   H     0.17899   0.86494   0.07263   0.00000  Uiso   1.00
H354   H     0.01517   0.86080   0.21097   0.00000  Uiso   1.00
O355   O     0.16667   0.83333   0.25000   0.00000  Uiso   1.00
O356   O     0.15451   0.79304   0.15458   0.00000  Uiso   1.00
O357   O     0.12940   0.87058   0.34968   0.00000  Uiso   1.00
O358   O     0.20824   0.84425   0.14606   0.00000  Uiso   1.00
O359   O     0.17451   0.82546   0.34968   0.00000  Uiso   1.00
O360   O     0.17930   0.74686   0.28213   0.00000  Uiso   1.00
O361   O     0.14632   0.92751   0.27013   0.00000  Uiso   1.00
O362   O     0.07412   0.79958   0.23413   0.00000  Uiso   1.00
O363   O     0.26693   0.85939   0.21360   0.00000  Uiso   1.00
O364   O     0.07071   0.85544   0.28213   0.00000  Uiso   1.00
O365   O     0.25491   0.81892   0.27013   0.00000  Uiso   1.00
O366   O     0.13760   0.73610   0.23413   0.00000  Uiso   1.00
O367   O     0.20345   0.92286   0.21360   0.00000  Uiso   1.00
Zn368  Zn    0.19338   0.80661   0.28734   0.00000  Uiso   1.00
Zn369  Zn    0.13379   0.79124   0.21875   0.00000  Uiso   1.00
Zn370  Zn    0.21056   0.86442   0.20657   0.00000  Uiso   1.00
Zn371  Zn    0.12893   0.87106   0.28733   0.00000  Uiso   1.00
C372   C     0.38621   0.82642   0.25973   0.00000  Uiso   1.00
C373   C     0.51535   0.83400   0.05651   0.00000  Uiso   1.00
C374   C     0.52791   0.76394   0.06353   0.00000  Uiso   1.00
C375   C     0.61399   0.84038   0.24016   0.00000  Uiso   1.00
C376   C     0.47764   0.86225   0.41932   0.00000  Uiso   1.00
C377   C     0.65969   0.84286   0.23655   0.00000  Uiso   1.00
C378   C     0.34104   0.82342   0.26415   0.00000  Uiso   1.00
C379   C     0.51344   0.98908   0.23727   0.00000  Uiso   1.00
C380   C     0.48465   0.67870   0.26397   0.00000  Uiso   1.00
C381   C     0.48960   0.72258   0.25996   0.00000  Uiso   1.00
C382   C     0.50977   0.94451   0.24033   0.00000  Uiso   1.00
C383   C     0.47878   0.91799   0.47844   0.00000  Uiso   1.00
C384   C     0.51845   0.81444   0.12942   0.00000  Uiso   1.00
C385   C     0.48171   0.85121   0.37098   0.00000  Uiso   1.00
C386   C     0.52069   0.75113   0.02158   0.00000  Uiso   1.00
C387   C     0.52419   0.80504   0.08144   0.00000  Uiso   1.00
C388   C     0.47317   0.90388   0.43612   0.00000  Uiso   1.00
C389   C     0.49026   0.89158   0.00413   0.00000  Uiso   1.00
C390   C     0.49406   0.84922   0.48907   0.00000  Uiso   1.00
C391   C     0.48478   0.83386   0.44720   0.00000  Uiso   1.00
C392   C     0.50648   0.82152   0.01433   0.00000  Uiso   1.00
C393   C     0.50855   0.77908   0.49760   0.00000  Uiso   1.00
C394   C     0.49580   0.76409   0.45860   0.00000  Uiso   1.00
C395   C     0.48248   0.79053   0.43461   0.00000  Uiso   1.00
F396   F     0.64821   0.80066   0.29686   0.00000  Uiso   1.00
F397   F     0.45010   0.99550   0.29463   0.00000  Uiso   1.00
F398   F     0.46580   0.93178   0.41060   0.00000  Uiso   1.00
F399   F     0.47520   0.95839   0.49391   0.00000  Uiso   1.00
F400   F     0.46442   0.77269   0.40099   0.00000  Uiso   1.00
H401   H     0.54023   0.67024   0.21278   0.00000  Uiso   1.00
H402   H     0.49463   0.73120   0.44739   0.00000  Uiso   1.00
H403   H     0.52230   0.71876   0.00897   0.00000  Uiso   1.00
H404   H     0.49577   0.90547   0.03570   0.00000  Uiso   1.00
H405   H     0.53402   0.74120   0.08319   0.00000  Uiso   1.00
H406   H     0.51232   0.86494   0.07263   0.00000  Uiso   1.00
H407   H     0.34850   0.86080   0.21097   0.00000  Uiso   1.00
O408   O     0.50000   0.83333   0.25000   0.00000  Uiso   1.00
O409   O     0.48784   0.79304   0.15458   0.00000  Uiso   1.00
O410   O     0.46274   0.87058   0.34968   0.00000  Uiso   1.00
O411   O     0.54157   0.84425   0.14606   0.00000  Uiso   1.00
O412   O     0.50785   0.82546   0.34968   0.00000  Uiso   1.00
O413   O     0.51264   0.74686   0.28213   0.00000  Uiso   1.00
O414   O     0.47965   0.92751   0.27013   0.00000  Uiso   1.00
O415   O     0.40745   0.79958   0.23413   0.00000  Uiso   1.00
O416   O     0.60026   0.85939   0.21360   0.00000  Uiso   1.00
O417   O     0.40405   0.85544   0.28213   0.00000  Uiso   1.00
O418   O     0.58824   0.81892   0.27013   0.00000  Uiso   1.00
O419   O     0.47093   0.73610   0.23413   0.00000  Uiso   1.00
O420   O     0.53678   0.92286   0.21360   0.00000  Uiso   1.00
Zn421  Zn    0.52672   0.80661   0.28734   0.00000  Uiso   1.00
Zn422  Zn    0.46713   0.79124   0.21875   0.00000  Uiso   1.00
Zn423  Zn    0.54389   0.86442   0.20657   0.00000  Uiso   1.00
Zn424  Zn    0.46226   0.87106   0.28733   0.00000  Uiso   1.00
C425   C     0.71954   0.82642   0.25973   0.00000  Uiso   1.00
C426   C     0.84869   0.83400   0.05651   0.00000  Uiso   1.00
C427   C     0.86124   0.76394   0.06353   0.00000  Uiso   1.00
C428   C     0.94733   0.84038   0.24016   0.00000  Uiso   1.00
C429   C     0.81098   0.86225   0.41932   0.00000  Uiso   1.00
C430   C     0.99302   0.84286   0.23655   0.00000  Uiso   1.00
C431   C     0.67437   0.82342   0.26415   0.00000  Uiso   1.00
C432   C     0.84678   0.98908   0.23727   0.00000  Uiso   1.00
C433   C     0.81798   0.67870   0.26397   0.00000  Uiso   1.00
C434   C     0.82293   0.72258   0.25996   0.00000  Uiso   1.00
C435   C     0.84311   0.94451   0.24033   0.00000  Uiso   1.00
C436   C     0.81211   0.91799   0.47844   0.00000  Uiso   1.00
C437   C     0.85178   0.81444   0.12942   0.00000  Uiso   1.00
C438   C     0.81504   0.85121   0.37098   0.00000  Uiso   1.00
C439   C     0.85403   0.75113   0.02158   0.00000  Uiso   1.00
C440   C     0.85752   0.80504   0.08144   0.00000  Uiso   1.00
C441   C     0.80650   0.90388   0.43612   0.00000  Uiso   1.00
C442   C     0.82359   0.89158   0.00413   0.00000  Uiso   1.00
C443   C     0.82739   0.84922   0.48907   0.00000  Uiso   1.00
C444   C     0.81811   0.83386   0.44720   0.00000  Uiso   1.00
C445   C     0.83981   0.82152   0.01433   0.00000  Uiso   1.00
C446   C     0.84188   0.77908   0.49760   0.00000  Uiso   1.00
C447   C     0.82914   0.76409   0.45860   0.00000  Uiso   1.00
C448   C     0.81581   0.79053   0.43461   0.00000  Uiso   1.00
F449   F     0.98154   0.80066   0.29686   0.00000  Uiso   1.00
F450   F     0.78343   0.99550   0.29463   0.00000  Uiso   1.00
F451   F     0.79914   0.93178   0.41060   0.00000  Uiso   1.00
F452   F     0.80854   0.95839   0.49391   0.00000  Uiso   1.00
F453   F     0.79775   0.77269   0.40099   0.00000  Uiso   1.00
H454   H     0.87356   0.67024   0.21278   0.00000  Uiso   1.00
H455   H     0.82796   0.73120   0.44739   0.00000  Uiso   1.00
H456   H     0.85563   0.71876   0.00897   0.00000  Uiso   1.00
H457   H     0.82910   0.90547   0.03570   0.00000  Uiso   1.00
H458   H     0.86735   0.74120   0.08319   0.00000  Uiso   1.00
H459   H     0.84565   0.86494   0.07263   0.00000  Uiso   1.00
H460   H     0.68183   0.86080   0.21097   0.00000  Uiso   1.00
O461   O     0.83333   0.83333   0.25000   0.00000  Uiso   1.00
O462   O     0.82118   0.79304   0.15458   0.00000  Uiso   1.00
O463   O     0.79607   0.87058   0.34968   0.00000  Uiso   1.00
O464   O     0.87491   0.84425   0.14606   0.00000  Uiso   1.00
O465   O     0.84118   0.82546   0.34968   0.00000  Uiso   1.00
O466   O     0.84597   0.74686   0.28213   0.00000  Uiso   1.00
O467   O     0.81298   0.92751   0.27013   0.00000  Uiso   1.00
O468   O     0.74078   0.79958   0.23413   0.00000  Uiso   1.00
O469   O     0.93360   0.85939   0.21360   0.00000  Uiso   1.00
O470   O     0.73738   0.85544   0.28213   0.00000  Uiso   1.00
O471   O     0.92158   0.81892   0.27013   0.00000  Uiso   1.00
O472   O     0.80426   0.73610   0.23413   0.00000  Uiso   1.00
O473   O     0.87012   0.92286   0.21360   0.00000  Uiso   1.00
Zn474  Zn    0.86005   0.80661   0.28734   0.00000  Uiso   1.00
Zn475  Zn    0.80046   0.79124   0.21875   0.00000  Uiso   1.00
Zn476  Zn    0.87723   0.86442   0.20657   0.00000  Uiso   1.00
Zn477  Zn    0.79560   0.87106   0.28733   0.00000  Uiso   1.00
C478   C     0.05288   0.15975   0.75973   0.00000  Uiso   1.00
C479   C     0.18202   0.16733   0.55651   0.00000  Uiso   1.00
C480   C     0.19458   0.09727   0.56353   0.00000  Uiso   1.00
C481   C     0.28066   0.17371   0.74016   0.00000  Uiso   1.00
C482   C     0.14431   0.19559   0.91932   0.00000  Uiso   1.00
C483   C     0.32635   0.17619   0.73655   0.00000  Uiso   1.00
C484   C     0.00771   0.15675   0.76415   0.00000  Uiso   1.00
C485   C     0.18011   0.32241   0.73727   0.00000  Uiso   1.00
C486   C     0.15132   0.01204   0.76397   0.00000  Uiso   1.00
C487   C     0.15626   0.05592   0.75996   0.00000  Uiso   1.00
C488   C     0.17644   0.27784   0.74033   0.00000  Uiso   1.00
C489   C     0.14544   0.25132   0.97844   0.00000  Uiso   1.00
C490   C     0.18512   0.14777   0.62942   0.00000  Uiso   1.00
C491   C     0.14837   0.18454   0.87098   0.00000  Uiso   1.00
C492   C     0.18736   0.08446   0.52158   0.00000  Uiso   1.00
C493   C     0.19085   0.13837   0.58144   0.00000  Uiso   1.00
C494   C     0.13983   0.23721   0.93612   0.00000  Uiso   1.00
C495   C     0.15693   0.22491   0.50413   0.00000  Uiso   1.00
C496   C     0.16073   0.18255   0.98907   0.00000  Uiso   1.00
C497   C     0.15145   0.16719   0.94720   0.00000  Uiso   1.00
C498   C     0.17315   0.15486   0.51433   0.00000  Uiso   1.00
C499   C     0.17521   0.11242   0.99760   0.00000  Uiso   1.00
C500   C     0.16247   0.09742   0.95860   0.00000  Uiso   1.00
C501   C     0.14914   0.12386   0.93461   0.00000  Uiso   1.00
F502   F     0.31487   0.13399   0.79686   0.00000  Uiso   1.00
F503   F     0.11676   0.32884   0.79463   0.00000  Uiso   1.00
F504   F     0.13247   0.26511   0.91060   0.00000  Uiso   1.00
F505   F     0.14187   0.29172   0.99391   0.00000  Uiso   1.00
F506   F     0.13108   0.10602   0.90099   0.00000  Uiso   1.00
H507   H     0.20690   0.00357   0.71278   0.00000  Uiso   1.00
H508   H     0.16129   0.06453   0.94739   0.00000  Uiso   1.00
H509   H     0.18896   0.05209   0.50897   0.00000  Uiso   1.00
H510   H     0.16244   0.23880   0.53570   0.00000  Uiso   1.00
H511   H     0.20069   0.07454   0.58319   0.00000  Uiso   1.00
H512   H     0.17899   0.19827   0.57263   0.00000  Uiso   1.00
H513   H     0.01517   0.19414   0.71097   0.00000  Uiso   1.00
O514   O     0.16667   0.16667   0.75000   0.00000  Uiso   1.00
O515   O     0.15451   0.12637   0.65458   0.00000  Uiso   1.00
O516   O     0.12940   0.20391   0.84968   0.00000  Uiso   1.00
O517   O     0.20824   0.17759   0.64606   0.00000  Uiso   1.00
O518   O     0.17451   0.15880   0.84968   0.00000  Uiso   1.00
O519   O     0.17930   0.08019   0.78213   0.00000  Uiso   1.00
O520   O     0.14632   0.26085   0.77013   0.00000  Uiso   1.00
O521   O     0.07412   0.13291   0.73413   0.00000  Uiso   1.00
O522   O     0.26693   0.19272   0.71360   0.00000  Uiso   1.00
O523   O     0.07071   0.18878   0.78213   0.00000  Uiso   1.00
O524   O     0.25491   0.15226   0.77013   0.00000  Uiso   1.00
O525   O     0.13760   0.06944   0.73413   0.00000  Uiso   1.00
O526   O     0.20345   0.25620   0.71360   0.00000  Uiso   1.00
Zn527  Zn    0.19338   0.13994   0.78734   0.00000  Uiso   1.00
Zn528  Zn    0.13379   0.12458   0.71875   0.00000  Uiso   1.00
Zn529  Zn    0.21056   0.19775   0.70657   0.00000  Uiso   1.00
Zn530  Zn    0.12893   0.20439   0.78733   0.00000  Uiso   1.00
C531   C     0.38621   0.15975   0.75973   0.00000  Uiso   1.00
C532   C     0.51535   0.16733   0.55651   0.00000  Uiso   1.00
C533   C     0.52791   0.09727   0.56353   0.00000  Uiso   1.00
C534   C     0.61399   0.17371   0.74016   0.00000  Uiso   1.00
C535   C     0.47764   0.19559   0.91932   0.00000  Uiso   1.00
C536   C     0.65969   0.17619   0.73655   0.00000  Uiso   1.00
C537   C     0.34104   0.15675   0.76415   0.00000  Uiso   1.00
C538   C     0.51344   0.32241   0.73727   0.00000  Uiso   1.00
C539   C     0.48465   0.01204   0.76397   0.00000  Uiso   1.00
C540   C     0.48960   0.05592   0.75996   0.00000  Uiso   1.00
C541   C     0.50977   0.27784   0.74033   0.00000  Uiso   1.00
C542   C     0.47878   0.25132   0.97844   0.00000  Uiso   1.00
C543   C     0.51845   0.14777   0.62942   0.00000  Uiso   1.00
C544   C     0.48171   0.18454   0.87098   0.00000  Uiso   1.00
C545   C     0.52069   0.08446   0.52158   0.00000  Uiso   1.00
C546   C     0.52419   0.13837   0.58144   0.00000  Uiso   1.00
C547   C     0.47317   0.23721   0.93612   0.00000  Uiso   1.00
C548   C     0.49026   0.22491   0.50413   0.00000  Uiso   1.00
C549   C     0.49406   0.18255   0.98907   0.00000  Uiso   1.00
C550   C     0.48478   0.16719   0.94720   0.00000  Uiso   1.00
C551   C     0.50648   0.15486   0.51433   0.00000  Uiso   1.00
C552   C     0.50855   0.11242   0.99760   0.00000  Uiso   1.00
C553   C     0.49580   0.09742   0.95860   0.00000  Uiso   1.00
C554   C     0.48248   0.12386   0.93461   0.00000  Uiso   1.00
F555   F     0.64821   0.13399   0.79686   0.00000  Uiso   1.00
F556   F     0.45010   0.32884   0.79463   0.00000  Uiso   1.00
F557   F     0.46580   0.26511   0.91060   0.00000  Uiso   1.00
F558   F     0.47520   0.29172   0.99391   0.00000  Uiso   1.00
F559   F     0.46442   0.10602   0.90099   0.00000  Uiso   1.00
H560   H     0.54023   0.00357   0.71278   0.00000  Uiso   1.00
H561   H     0.49463   0.06453   0.94739   0.00000  Uiso   1.00
H562   H     0.52230   0.05209   0.50897   0.00000  Uiso   1.00
H563   H     0.49577   0.23880   0.53570   0.00000  Uiso   1.00
H564   H     0.53402   0.07454   0.58319   0.00000  Uiso   1.00
H565   H     0.51232   0.19827   0.57263   0.00000  Uiso   1.00
H566   H     0.34850   0.19414   0.71097   0.00000  Uiso   1.00
O567   O     0.50000   0.16667   0.75000   0.00000  Uiso   1.00
O568   O     0.48784   0.12637   0.65458   0.00000  Uiso   1.00
O569   O     0.46274   0.20391   0.84968   0.00000  Uiso   1.00
O570   O     0.54157   0.17759   0.64606   0.00000  Uiso   1.00
O571   O     0.50785   0.15880   0.84968   0.00000  Uiso   1.00
O572   O     0.51264   0.08019   0.78213   0.00000  Uiso   1.00
O573   O     0.47965   0.26085   0.77013   0.00000  Uiso   1.00
O574   O     0.40745   0.13291   0.73413   0.00000  Uiso   1.00
O575   O     0.60026   0.19272   0.71360   0.00000  Uiso   1.00
O576   O     0.40405   0.18878   0.78213   0.00000  Uiso   1.00
O577   O     0.58824   0.15226   0.77013   0.00000  Uiso   1.00
O578   O     0.47093   0.06944   0.73413   0.00000  Uiso   1.00
O579   O     0.53678   0.25620   0.71360   0.00000  Uiso   1.00
Zn580  Zn    0.52672   0.13994   0.78734   0.00000  Uiso   1.00
Zn581  Zn    0.46713   0.12458   0.71875   0.00000  Uiso   1.00
Zn582  Zn    0.54389   0.19775   0.70657   0.00000  Uiso   1.00
Zn583  Zn    0.46226   0.20439   0.78733   0.00000  Uiso   1.00
C584   C     0.71954   0.15975   0.75973   0.00000  Uiso   1.00
C585   C     0.84869   0.16733   0.55651   0.00000  Uiso   1.00
C586   C     0.86124   0.09727   0.56353   0.00000  Uiso   1.00
C587   C     0.94733   0.17371   0.74016   0.00000  Uiso   1.00
C588   C     0.81098   0.19559   0.91932   0.00000  Uiso   1.00
C589   C     0.99302   0.17619   0.73655   0.00000  Uiso   1.00
C590   C     0.67437   0.15675   0.76415   0.00000  Uiso   1.00
C591   C     0.84678   0.32241   0.73727   0.00000  Uiso   1.00
C592   C     0.81798   0.01204   0.76397   0.00000  Uiso   1.00
C593   C     0.82293   0.05592   0.75996   0.00000  Uiso   1.00
C594   C     0.84311   0.27784   0.74033   0.00000  Uiso   1.00
C595   C     0.81211   0.25132   0.97844   0.00000  Uiso   1.00
C596   C     0.85178   0.14777   0.62942   0.00000  Uiso   1.00
C597   C     0.81504   0.18454   0.87098   0.00000  Uiso   1.00
C598   C     0.85403   0.08446   0.52158   0.00000  Uiso   1.00
C599   C     0.85752   0.13837   0.58144   0.00000  Uiso   1.00
C600   C     0.80650   0.23721   0.93612   0.00000  Uiso   1.00
C601   C     0.82359   0.22491   0.50413   0.00000  Uiso   1.00
C602   C     0.82739   0.18255   0.98907   0.00000  Uiso   1.00
C603   C     0.81811   0.16719   0.94720   0.00000  Uiso   1.00
C604   C     0.83981   0.15486   0.51433   0.00000  Uiso   1.00
C605   C     0.84188   0.11242   0.99760   0.00000  Uiso   1.00
C606   C     0.82914   0.09742   0.95860   0.00000  Uiso   1.00
C607   C     0.81581   0.12386   0.93461   0.00000  Uiso   1.00
F608   F     0.98154   0.13399   0.79686   0.00000  Uiso   1.00
F609   F     0.78343   0.32884   0.79463   0.00000  Uiso   1.00
F610   F     0.79914   0.26511   0.91060   0.00000  Uiso   1.00
F611   F     0.80854   0.29172   0.99391   0.00000  Uiso   1.00
F612   F     0.79775   0.10602   0.90099   0.00000  Uiso   1.00
H613   H     0.87356   0.00357   0.71278   0.00000  Uiso   1.00
H614   H     0.82796   0.06453   0.94739   0.00000  Uiso   1.00
H615   H     0.85563   0.05209   0.50897   0.00000  Uiso   1.00
H616   H     0.82910   0.23880   0.53570   0.00000  Uiso   1.00
H617   H     0.86735   0.07454   0.58319   0.00000  Uiso   1.00
H618   H     0.84565   0.19827   0.57263   0.00000  Uiso   1.00
H619   H     0.68183   0.19414   0.71097   0.00000  Uiso   1.00
O620   O     0.83333   0.16667   0.75000   0.00000  Uiso   1.00
O621   O     0.82118   0.12637   0.65458   0.00000  Uiso   1.00
O622   O     0.79607   0.20391   0.84968   0.00000  Uiso   1.00
O623   O     0.87491   0.17759   0.64606   0.00000  Uiso   1.00
O624   O     0.84118   0.15880   0.84968   0.00000  Uiso   1.00
O625   O     0.84597   0.08019   0.78213   0.00000  Uiso   1.00
O626   O     0.81298   0.26085   0.77013   0.00000  Uiso   1.00
O627   O     0.74078   0.13291   0.73413   0.00000  Uiso   1.00
O628   O     0.93360   0.19272   0.71360   0.00000  Uiso   1.00
O629   O     0.73738   0.18878   0.78213   0.00000  Uiso   1.00
O630   O     0.92158   0.15226   0.77013   0.00000  Uiso   1.00
O631   O     0.80426   0.06944   0.73413   0.00000  Uiso   1.00
O632   O     0.87012   0.25620   0.71360   0.00000  Uiso   1.00
Zn633  Zn    0.86005   0.13994   0.78734   0.00000  Uiso   1.00
Zn634  Zn    0.80046   0.12458   0.71875   0.00000  Uiso   1.00
Zn635  Zn    0.87723   0.19775   0.70657   0.00000  Uiso   1.00
Zn636  Zn    0.79560   0.20439   0.78733   0.00000  Uiso   1.00
C637   C     0.05288   0.49309   0.75973   0.00000  Uiso   1.00
C638   C     0.18202   0.50066   0.55651   0.00000  Uiso   1.00
C639   C     0.19458   0.43061   0.56353   0.00000  Uiso   1.00
C640   C     0.28066   0.50704   0.74016   0.00000  Uiso   1.00
C641   C     0.14431   0.52892   0.91932   0.00000  Uiso   1.00
C642   C     0.32635   0.50952   0.73655   0.00000  Uiso   1.00
C643   C     0.00771   0.49008   0.76415   0.00000  Uiso   1.00
C644   C     0.18011   0.65575   0.73727   0.00000  Uiso   1.00
C645   C     0.15132   0.34537   0.76397   0.00000  Uiso   1.00
C646   C     0.15626   0.38925   0.75996   0.00000  Uiso   1.00
C647   C     0.17644   0.61118   0.74033   0.00000  Uiso   1.00
C648   C     0.14544   0.58466   0.97844   0.00000  Uiso   1.00
C649   C     0.18512   0.48111   0.62942   0.00000  Uiso   1.00
C650   C     0.14837   0.51788   0.87098   0.00000  Uiso   1.00
C651   C     0.18736   0.41780   0.52158   0.00000  Uiso   1.00
C652   C     0.19085   0.47170   0.58144   0.00000  Uiso   1.00
C653   C     0.13983   0.57054   0.93612   0.00000  Uiso   1.00
C654   C     0.15693   0.55825   0.50413   0.00000  Uiso   1.00
C655   C     0.16073   0.51588   0.98907   0.00000  Uiso   1.00
C656   C     0.15145   0.50052   0.94720   0.00000  Uiso   1.00
C657   C     0.17315   0.48819   0.51433   0.00000  Uiso   1.00
C658   C     0.17521   0.44575   0.99760   0.00000  Uiso   1.00
C659   C     0.16247   0.43076   0.95860   0.00000  Uiso   1.00
C660   C     0.14914   0.45720   0.93461   0.00000  Uiso   1.00
F661   F     0.31487   0.46732   0.79686   0.00000  Uiso   1.00
F662   F     0.11676   0.66217   0.79463   0.00000  Uiso   1.00
F663   F     0.13247   0.59845   0.91060   0.00000  Uiso   1.00
F664   F     0.14187   0.62505   0.99391   0.00000  Uiso   1.00
F665   F     0.13108   0.43936   0.90099   0.00000  Uiso   1.00
H666   H     0.20690   0.33691   0.71278   0.00000  Uiso   1.00
H667   H     0.16129   0.39787   0.94739   0.00000  Uiso   1.00
H668   H     0.18896   0.38542   0.50897   0.00000  Uiso   1.00
H669   H     0.16244   0.57213   0.53570   0.00000  Uiso   1.00
H670   H     0.20069   0.40787   0.58319   0.00000  Uiso   1.00
H671   H     0.17899   0.53160   0.57263   0.00000  Uiso   1.00
H672   H     0.01517   0.52747   0.71097   0.00000  Uiso   1.00
O673   O     0.16667   0.50000   0.75000   0.00000  Uiso   1.00
O674   O     0.15451   0.45970   0.65458   0.00000  Uiso   1.00
O675   O     0.12940   0.53724   0.84968   0.00000  Uiso   1.00
O676   O     0.20824   0.51092   0.64606   0.00000  Uiso   1.00
O677   O     0.17451   0.49213   0.84968   0.00000  Uiso   1.00
O678   O     0.17930   0.41352   0.78213   0.00000  Uiso   1.00
O679   O     0.14632   0.59418   0.77013   0.00000  Uiso   1.00
O680   O     0.07412   0.46625   0.73413   0.00000  Uiso   1.00
O681   O     0.26693   0.52605   0.71360   0.00000  Uiso   1.00
O682   O     0.07071   0.52211   0.78213   0.00000  Uiso   1.00
O683   O     0.25491   0.48559   0.77013   0.00000  Uiso   1.00
O684   O     0.13760   0.40277   0.73413   0.00000  Uiso   1.00
O685   O     0.20345   0.58953   0.71360   0.00000  Uiso   1.00
Zn686  Zn    0.19338   0.47327   0.78734   0.00000  Uiso   1.00
Zn687  Zn    0.13379   0.45791   0.71875   0.00000  Uiso   1.00
Zn688  Zn    0.21056   0.53109   0.70657   0.00000  Uiso   1.00
Zn689  Zn    0.12893   0.53773   0.78733   0.00000  Uiso   1.00
C690   C     0.38621   0.49309   0.75973   0.00000  Uiso   1.00
C691   C     0.51535   0.50066   0.55651   0.00000  Uiso   1.00
C692   C     0.52791   0.43061   0.56353   0.00000  Uiso   1.00
C693   C     0.61399   0.50704   0.74016   0.00000  Uiso   1.00
C694   C     0.47764   0.52892   0.91932   0.00000  Uiso   1.00
C695   C     0.65969   0.50952   0.73655   0.00000  Uiso   1.00
C696   C     0.34104   0.49008   0.76415   0.00000  Uiso   1.00
C697   C     0.51344   0.65575   0.73727   0.00000  Uiso   1.00
C698   C     0.48465   0.34537   0.76397   0.00000  Uiso   1.00
C699   C     0.48960   0.38925   0.75996   0.00000  Uiso   1.00
C700   C     0.50977   0.61118   0.74033   0.00000  Uiso   1.00
C701   C     0.47878   0.58466   0.97844   0.00000  Uiso   1.00
C702   C     0.51845   0.48111   0.62942   0.00000  Uiso   1.00
C703   C     0.48171   0.51788   0.87098   0.00000  Uiso   1.00
C704   C     0.52069   0.41780   0.52158   0.00000  Uiso   1.00
C705   C     0.52419   0.47170   0.58144   0.00000  Uiso   1.00
C706   C     0.47317   0.57054   0.93612   0.00000  Uiso   1.00
C707   C     0.49026   0.55825   0.50413   0.00000  Uiso   1.00
C708   C     0.49406   0.51588   0.98907   0.00000  Uiso   1.00
C709   C     0.48478   0.50052   0.94720   0.00000  Uiso   1.00
C710   C     0.50648   0.48819   0.51433   0.00000  Uiso   1.00
C711   C     0.50855   0.44575   0.99760   0.00000  Uiso   1.00
C712   C     0.49580   0.43076   0.95860   0.00000  Uiso   1.00
C713   C     0.48248   0.45720   0.93461   0.00000  Uiso   1.00
F714   F     0.64821   0.46732   0.79686   0.00000  Uiso   1.00
F715   F     0.45010   0.66217   0.79463   0.00000  Uiso   1.00
F716   F     0.46580   0.59845   0.91060   0.00000  Uiso   1.00
F717   F     0.47520   0.62505   0.99391   0.00000  Uiso   1.00
F718   F     0.46442   0.43936   0.90099   0.00000  Uiso   1.00
H719   H     0.54023   0.33691   0.71278   0.00000  Uiso   1.00
H720   H     0.49463   0.39787   0.94739   0.00000  Uiso   1.00
H721   H     0.52230   0.38542   0.50897   0.00000  Uiso   1.00
H722   H     0.49577   0.57213   0.53570   0.00000  Uiso   1.00
H723   H     0.53402   0.40787   0.58319   0.00000  Uiso   1.00
H724   H     0.51232   0.53160   0.57263   0.00000  Uiso   1.00
H725   H     0.34850   0.52747   0.71097   0.00000  Uiso   1.00
O726   O     0.50000   0.50000   0.75000   0.00000  Uiso   1.00
O727   O     0.48784   0.45970   0.65458   0.00000  Uiso   1.00
O728   O     0.46274   0.53724   0.84968   0.00000  Uiso   1.00
O729   O     0.54157   0.51092   0.64606   0.00000  Uiso   1.00
O730   O     0.50785   0.49213   0.84968   0.00000  Uiso   1.00
O731   O     0.51264   0.41352   0.78213   0.00000  Uiso   1.00
O732   O     0.47965   0.59418   0.77013   0.00000  Uiso   1.00
O733   O     0.40745   0.46625   0.73413   0.00000  Uiso   1.00
O734   O     0.60026   0.52605   0.71360   0.00000  Uiso   1.00
O735   O     0.40405   0.52211   0.78213   0.00000  Uiso   1.00
O736   O     0.58824   0.48559   0.77013   0.00000  Uiso   1.00
O737   O     0.47093   0.40277   0.73413   0.00000  Uiso   1.00
O738   O     0.53678   0.58953   0.71360   0.00000  Uiso   1.00
Zn739  Zn    0.52672   0.47327   0.78734   0.00000  Uiso   1.00
Zn740  Zn    0.46713   0.45791   0.71875   0.00000  Uiso   1.00
Zn741  Zn    0.54389   0.53109   0.70657   0.00000  Uiso   1.00
Zn742  Zn    0.46226   0.53773   0.78733   0.00000  Uiso   1.00
C743   C     0.71954   0.49309   0.75973   0.00000  Uiso   1.00
C744   C     0.84869   0.50066   0.55651   0.00000  Uiso   1.00
C745   C     0.86124   0.43061   0.56353   0.00000  Uiso   1.00
C746   C     0.94733   0.50704   0.74016   0.00000  Uiso   1.00
C747   C     0.81098   0.52892   0.91932   0.00000  Uiso   1.00
C748   C     0.99302   0.50952   0.73655   0.00000  Uiso   1.00
C749   C     0.67437   0.49008   0.76415   0.00000  Uiso   1.00
C750   C     0.84678   0.65575   0.73727   0.00000  Uiso   1.00
C751   C     0.81798   0.34537   0.76397   0.00000  Uiso   1.00
C752   C     0.82293   0.38925   0.75996   0.00000  Uiso   1.00
C753   C     0.84311   0.61118   0.74033   0.00000  Uiso   1.00
C754   C     0.81211   0.58466   0.97844   0.00000  Uiso   1.00
C755   C     0.85178   0.48111   0.62942   0.00000  Uiso   1.00
C756   C     0.81504   0.51788   0.87098   0.00000  Uiso   1.00
C757   C     0.85403   0.41780   0.52158   0.00000  Uiso   1.00
C758   C     0.85752   0.47170   0.58144   0.00000  Uiso   1.00
C759   C     0.80650   0.57054   0.93612   0.00000  Uiso   1.00
C760   C     0.82359   0.55825   0.50413   0.00000  Uiso   1.00
C761   C     0.82739   0.51588   0.98907   0.00000  Uiso   1.00
C762   C     0.81811   0.50052   0.94720   0.00000  Uiso   1.00
C763   C     0.83981   0.48819   0.51433   0.00000  Uiso   1.00
C764   C     0.84188   0.44575   0.99760   0.00000  Uiso   1.00
C765   C     0.82914   0.43076   0.95860   0.00000  Uiso   1.00
C766   C     0.81581   0.45720   0.93461   0.00000  Uiso   1.00
F767   F     0.98154   0.46732   0.79686   0.00000  Uiso   1.00
F768   F     0.78343   0.66217   0.79463   0.00000  Uiso   1.00
F769   F     0.79914   0.59845   0.91060   0.00000  Uiso   1.00
F770   F     0.80854   0.62505   0.99391   0.00000  Uiso   1.00
F771   F     0.79775   0.43936   0.90099   0.00000  Uiso   1.00
H772   H     0.87356   0.33691   0.71278   0.00000  Uiso   1.00
H773   H     0.82796   0.39787   0.94739   0.00000  Uiso   1.00
H774   H     0.85563   0.38542   0.50897   0.00000  Uiso   1.00
H775   H     0.82910   0.57213   0.53570   0.00000  Uiso   1.00
H776   H     0.86735   0.40787   0.58319   0.00000  Uiso   1.00
H777   H     0.84565   0.53160   0.57263   0.00000  Uiso   1.00
H778   H     0.68183   0.52747   0.71097   0.00000  Uiso   1.00
O779   O     0.83333   0.50000   0.75000   0.00000  Uiso   1.00
O780   O     0.82118   0.45970   0.65458   0.00000  Uiso   1.00
O781   O     0.79607   0.53724   0.84968   0.00000  Uiso   1.00
O782   O     0.87491   0.51092   0.64606   0.00000  Uiso   1.00
O783   O     0.84118   0.49213   0.84968   0.00000  Uiso   1.00
O784   O     0.84597   0.41352   0.78213   0.00000  Uiso   1.00
O785   O     0.81298   0.59418   0.77013   0.00000  Uiso   1.00
O786   O     0.74078   0.46625   0.73413   0.00000  Uiso   1.00
O787   O     0.93360   0.52605   0.71360   0.00000  Uiso   1.00
O788   O     0.73738   0.52211   0.78213   0.00000  Uiso   1.00
O789   O     0.92158   0.48559   0.77013   0.00000  Uiso   1.00
O790   O     0.80426   0.40277   0.73413   0.00000  Uiso   1.00
O791   O     0.87012   0.58953   0.71360   0.00000  Uiso   1.00
Zn792  Zn    0.86005   0.47327   0.78734   0.00000  Uiso   1.00
Zn793  Zn    0.80046   0.45791   0.71875   0.00000  Uiso   1.00
Zn794  Zn    0.87723   0.53109   0.70657   0.00000  Uiso   1.00
Zn795  Zn    0.79560   0.53773   0.78733   0.00000  Uiso   1.00
C796   C     0.05288   0.82642   0.75973   0.00000  Uiso   1.00
C797   C     0.18202   0.83400   0.55651   0.00000  Uiso   1.00
C798   C     0.19458   0.76394   0.56353   0.00000  Uiso   1.00
C799   C     0.28066   0.84038   0.74016   0.00000  Uiso   1.00
C800   C     0.14431   0.86225   0.91932   0.00000  Uiso   1.00
C801   C     0.32635   0.84286   0.73655   0.00000  Uiso   1.00
C802   C     0.00771   0.82342   0.76415   0.00000  Uiso   1.00
C803   C     0.18011   0.98908   0.73727   0.00000  Uiso   1.00
C804   C     0.15132   0.67870   0.76397   0.00000  Uiso   1.00
C805   C     0.15626   0.72258   0.75996   0.00000  Uiso   1.00
C806   C     0.17644   0.94451   0.74033   0.00000  Uiso   1.00
C807   C     0.14544   0.91799   0.97844   0.00000  Uiso   1.00
C808   C     0.18512   0.81444   0.62942   0.00000  Uiso   1.00
C809   C     0.14837   0.85121   0.87098   0.00000  Uiso   1.00
C810   C     0.18736   0.75113   0.52158   0.00000  Uiso   1.00
C811   C     0.19085   0.80504   0.58144   0.00000  Uiso   1.00
C812   C     0.13983   0.90388   0.93612   0.00000  Uiso   1.00
C813   C     0.15693   0.89158   0.50413   0.00000  Uiso   1.00
C814   C     0.16073   0.84922   0.98907   0.00000  Uiso   1.00
C815   C     0.15145   0.83386   0.94720   0.00000  Uiso   1.00
C816   C     0.17315   0.82152   0.51433   0.00000  Uiso   1.00
C817   C     0.17521   0.77908   0.99760   0.00000  Uiso   1.00
C818   C     0.16247   0.76409   0.95860   0.00000  Uiso   1.00
C819   C     0.14914   0.79053   0.93461   0.00000  Uiso   1.00
F820   F     0.31487   0.80066   0.79686   0.00000  Uiso   1.00
F821   F     0.11676   0.99550   0.79463   0.00000  Uiso   1.00
F822   F     0.13247   0.93178   0.91060   0.00000  Uiso   1.00
F823   F     0.14187   0.95839   0.99391   0.00000  Uiso   1.00
F824   F     0.13108   0.77269   0.90099   0.00000  Uiso   1.00
H825   H     0.20690   0.67024   0.71278   0.00000  Uiso   1.00
H826   H     0.16129   0.73120   0.94739   0.00000  Uiso   1.00
H827   H     0.18896   0.71876   0.50897   0.00000  Uiso   1.00
H828   H     0.16244   0.90547   0.53570   0.00000  Uiso   1.00
H829   H     0.20069   0.74120   0.58319   0.00000  Uiso   1.00
H830   H     0.17899   0.86494   0.57263   0.00000  Uiso   1.00
H831   H     0.01517   0.86080   0.71097   0.00000  Uiso   1.00
O832   O     0.16667   0.83333   0.75000   0.00000  Uiso   1.00
O833   O     0.15451   0.79304   0.65458   0.00000  Uiso   1.00
O834   O     0.12940   0.87058   0.84968   0.00000  Uiso   1.00
O835   O     0.20824   0.84425   0.64606   0.00000  Uiso   1.00
O836   O     0.17451   0.82546   0.84968   0.00000  Uiso   1.00
O837   O     0.17930   0.74686   0.78213   0.00000  Uiso   1.00
O838   O     0.14632   0.92751   0.77013   0.00000  Uiso   1.00
O839   O     0.07412   0.79958   0.73413   0.00000  Uiso   1.00
O840   O     0.26693   0.85939   0.71360   0.00000  Uiso   1.00
O841   O     0.07071   0.85544   0.78213   0.00000  Uiso   1.00
O842   O     0.25491   0.81892   0.77013   0.00000  Uiso   1.00
O843   O     0.13760   0.73610   0.73413   0.00000  Uiso   1.00
O844   O     0.20345   0.92286   0.71360   0.00000  Uiso   1.00
Zn845  Zn    0.19338   0.80661   0.78734   0.00000  Uiso   1.00
Zn846  Zn    0.13379   0.79124   0.71875   0.00000  Uiso   1.00
Zn847  Zn    0.21056   0.86442   0.70657   0.00000  Uiso   1.00
Zn848  Zn    0.12893   0.87106   0.78733   0.00000  Uiso   1.00
C849   C     0.38621   0.82642   0.75973   0.00000  Uiso   1.00
C850   C     0.51535   0.83400   0.55651   0.00000  Uiso   1.00
C851   C     0.52791   0.76394   0.56353   0.00000  Uiso   1.00
C852   C     0.61399   0.84038   0.74016   0.00000  Uiso   1.00
C853   C     0.47764   0.86225   0.91932   0.00000  Uiso   1.00
C854   C     0.65969   0.84286   0.73655   0.00000  Uiso   1.00
C855   C     0.34104   0.82342   0.76415   0.00000  Uiso   1.00
C856   C     0.51344   0.98908   0.73727   0.00000  Uiso   1.00
C857   C     0.48465   0.67870   0.76397   0.00000  Uiso   1.00
C858   C     0.48960   0.72258   0.75996   0.00000  Uiso   1.00
C859   C     0.50977   0.94451   0.74033   0.00000  Uiso   1.00
C860   C     0.47878   0.91799   0.97844   0.00000  Uiso   1.00
C861   C     0.51845   0.81444   0.62942   0.00000  Uiso   1.00
C862   C     0.48171   0.85121   0.87098   0.00000  Uiso   1.00
C863   C     0.52069   0.75113   0.52158   0.00000  Uiso   1.00
C864   C     0.52419   0.80504   0.58144   0.00000  Uiso   1.00
C865   C     0.47317   0.90388   0.93612   0.00000  Uiso   1.00
C866   C     0.49026   0.89158   0.50413   0.00000  Uiso   1.00
C867   C     0.49406   0.84922   0.98907   0.00000  Uiso   1.00
C868   C     0.48478   0.83386   0.94720   0.00000  Uiso   1.00
C869   C     0.50648   0.82152   0.51433   0.00000  Uiso   1.00
C870   C     0.50855   0.77908   0.99760   0.00000  Uiso   1.00
C871   C     0.49580   0.76409   0.95860   0.00000  Uiso   1.00
C872   C     0.48248   0.79053   0.93461   0.00000  Uiso   1.00
F873   F     0.64821   0.80066   0.79686   0.00000  Uiso   1.00
F874   F     0.45010   0.99550   0.79463   0.00000  Uiso   1.00
F875   F     0.46580   0.93178   0.91060   0.00000  Uiso   1.00
F876   F     0.47520   0.95839   0.99391   0.00000  Uiso   1.00
F877   F     0.46442   0.77269   0.90099   0.00000  Uiso   1.00
H878   H     0.54023   0.67024   0.71278   0.00000  Uiso   1.00
H879   H     0.49463   0.73120   0.94739   0.00000  Uiso   1.00
H880   H     0.52230   0.71876   0.50897   0.00000  Uiso   1.00
H881   H     0.49577   0.90547   0.53570   0.00000  Uiso   1.00
H882   H     0.53402   0.74120   0.58319   0.00000  Uiso   1.00
H883   H     0.51232   0.86494   0.57263   0.00000  Uiso   1.00
H884   H     0.34850   0.86080   0.71097   0.00000  Uiso   1.00
O885   O     0.50000   0.83333   0.75000   0.00000  Uiso   1.00
O886   O     0.48784   0.79304   0.65458   0.00000  Uiso   1.00
O887   O     0.46274   0.87058   0.84968   0.00000  Uiso   1.00
O888   O     0.54157   0.84425   0.64606   0.00000  Uiso   1.00
O889   O     0.50785   0.82546   0.84968   0.00000  Uiso   1.00
O890   O     0.51264   0.74686   0.78213   0.00000  Uiso   1.00
O891   O     0.47965   0.92751   0.77013   0.00000  Uiso   1.00
O892   O     0.40745   0.79958   0.73413   0.00000  Uiso   1.00
O893   O     0.60026   0.85939   0.71360   0.00000  Uiso   1.00
O894   O     0.40405   0.85544   0.78213   0.00000  Uiso   1.00
O895   O     0.58824   0.81892   0.77013   0.00000  Uiso   1.00
O896   O     0.47093   0.73610   0.73413   0.00000  Uiso   1.00
O897   O     0.53678   0.92286   0.71360   0.00000  Uiso   1.00
Zn898  Zn    0.52672   0.80661   0.78734   0.00000  Uiso   1.00
Zn899  Zn    0.46713   0.79124   0.71875   0.00000  Uiso   1.00
Zn900  Zn    0.54389   0.86442   0.70657   0.00000  Uiso   1.00
Zn901  Zn    0.46226   0.87106   0.78733   0.00000  Uiso   1.00
C902   C     0.71954   0.82642   0.75973   0.00000  Uiso   1.00
C903   C     0.84869   0.83400   0.55651   0.00000  Uiso   1.00
C904   C     0.86124   0.76394   0.56353   0.00000  Uiso   1.00
C905   C     0.94733   0.84038   0.74016   0.00000  Uiso   1.00
C906   C     0.81098   0.86225   0.91932   0.00000  Uiso   1.00
C907   C     0.99302   0.84286   0.73655   0.00000  Uiso   1.00
C908   C     0.67437   0.82342   0.76415   0.00000  Uiso   1.00
C909   C     0.84678   0.98908   0.73727   0.00000  Uiso   1.00
C910   C     0.81798   0.67870   0.76397   0.00000  Uiso   1.00
C911   C     0.82293   0.72258   0.75996   0.00000  Uiso   1.00
C912   C     0.84311   0.94451   0.74033   0.00000  Uiso   1.00
C913   C     0.81211   0.91799   0.97844   0.00000  Uiso   1.00
C914   C     0.85178   0.81444   0.62942   0.00000  Uiso   1.00
C915   C     0.81504   0.85121   0.87098   0.00000  Uiso   1.00
C916   C     0.85403   0.75113   0.52158   0.00000  Uiso   1.00
C917   C     0.85752   0.80504   0.58144   0.00000  Uiso   1.00
C918   C     0.80650   0.90388   0.93612   0.00000  Uiso   1.00
C919   C     0.82359   0.89158   0.50413   0.00000  Uiso   1.00
C920   C     0.82739   0.84922   0.98907   0.00000  Uiso   1.00
C921   C     0.81811   0.83386   0.94720   0.00000  Uiso   1.00
C922   C     0.83981   0.82152   0.51433   0.00000  Uiso   1.00
C923   C     0.84188   0.77908   0.99760   0.00000  Uiso   1.00
C924   C     0.82914   0.76409   0.95860   0.00000  Uiso   1.00
C925   C     0.81581   0.79053   0.93461   0.00000  Uiso   1.00
F926   F     0.98154   0.80066   0.79686   0.00000  Uiso   1.00
F927   F     0.78343   0.99550   0.79463   0.00000  Uiso   1.00
F928   F     0.79914   0.93178   0.91060   0.00000  Uiso   1.00
F929   F     0.80854   0.95839   0.99391   0.00000  Uiso   1.00
F930   F     0.79775   0.77269   0.90099   0.00000  Uiso   1.00
H931   H     0.87356   0.67024   0.71278   0.00000  Uiso   1.00
H932   H     0.82796   0.73120   0.94739   0.00000  Uiso   1.00
H933   H     0.85563   0.71876   0.50897   0.00000  Uiso   1.00
H934   H     0.82910   0.90547   0.53570   0.00000  Uiso   1.00
H935   H     0.86735   0.74120   0.58319   0.00000  Uiso   1.00
H936   H     0.84565   0.86494   0.57263   0.00000  Uiso   1.00
H937   H     0.68183   0.86080   0.71097   0.00000  Uiso   1.00
O938   O     0.83333   0.83333   0.75000   0.00000  Uiso   1.00
O939   O     0.82118   0.79304   0.65458   0.00000  Uiso   1.00
O940   O     0.79607   0.87058   0.84968   0.00000  Uiso   1.00
O941   O     0.87491   0.84425   0.64606   0.00000  Uiso   1.00
O942   O     0.84118   0.82546   0.84968   0.00000  Uiso   1.00
O943   O     0.84597   0.74686   0.78213   0.00000  Uiso   1.00
O944   O     0.81298   0.92751   0.77013   0.00000  Uiso   1.00
O945   O     0.74078   0.79958   0.73413   0.00000  Uiso   1.00
O946   O     0.93360   0.85939   0.71360   0.00000  Uiso   1.00
O947   O     0.73738   0.85544   0.78213   0.00000  Uiso   1.00
O948   O     0.92158   0.81892   0.77013   0.00000  Uiso   1.00
O949   O     0.80426   0.73610   0.73413   0.00000  Uiso   1.00
O950   O     0.87012   0.92286   0.71360   0.00000  Uiso   1.00
Zn951  Zn    0.86005   0.80661   0.78734   0.00000  Uiso   1.00
Zn952  Zn    0.80046   0.79124   0.71875   0.00000  Uiso   1.00
Zn953  Zn    0.87723   0.86442   0.70657   0.00000  Uiso   1.00
Zn954  Zn    0.79560   0.87106   0.78733   0.00000  Uiso   1.00
loop_
_geom_bond_atom_site_label_1
_geom_bond_atom_site_label_2
_geom_bond_distance
_geom_bond_site_symmetry_2
_ccdc_geom_bond_type
C1     O44     1.267   .     A
C1     O46     1.266   .     A
C1     C7      1.432   .     S
C2     H35     1.077   .     S
C2     C16     1.393   .     A
C2     C21     1.413   .     A
C3     C15     1.387   .     A
C3     H34     1.084   .     S
C3     C16     1.397   .     A
C4     O45     1.287   .     A
C4     C6      1.455   .     S
C4     O47     1.279   .     A
C5     C20     1.420   .     A
C5     C14     1.476   .     S
C5     C17     1.408   .     A
C6     C60     1.339   .     S
C6     H89     1.088   .     S
C7     C112    1.339   1_455 S
C7     F131    1.361   1_455 S
C8     C11     1.452   .     S
C8     C168    1.336   .     S
C8     H189    1.088   .     S
C9     C10     1.431   .     S
C9     C326    1.336   1_545 S
C9     F344    1.361   1_545 S
C10    O42     1.274   .     A
C10    O48     1.273   .     A
C11    O43     1.272   .     A
C11    O49     1.276   .     A
C12    C17     1.387   .     A
C12    F28     1.357   .     S
C12    C495    1.389   .     S
C13    O38     1.270   .     A
C13    C16     1.452   .     S
C13    O40     1.282   .     A
C14    O41     1.286   .     A
C14    O39     1.282   .     A
C15    H32     1.084   .     S
C15    C499    1.400   1_554 S
C17    F27     1.358   .     S
C18    H33     1.076   .     S
C18    C489    1.389   1_554 S
C18    C496    1.416   1_554 S
C19    C20     1.426   .     A
C19    C495    1.416   .     S
C19    C498    1.426   .     S
C20    C24     1.415   .     A
C21    C496    1.426   1_554 S
C21    C499    1.423   1_554 S
C22    C23     1.391   .     A
C22    C498    1.423   .     S
C22    C492    1.400   .     S
C23    C24     1.384   .     A
C23    H31     1.085   .     S
C24    F29     1.358   .     S
F25    C60     1.361   .     S
F26    C168    1.361   .     S
H30    C326    1.088   1_545 S
H36    C112    1.088   1_455 S
O37    Zn53    1.933   .     S
O37    Zn50    1.961   .     S
O37    Zn51    1.937   .     S
O37    Zn52    1.947   .     S
O38    Zn51    1.935   .     S
O39    Zn53    1.941   .     S
O40    Zn52    1.930   .     S
O41    Zn50    1.926   .     S
O42    Zn50    1.930   .     S
O43    Zn53    1.938   .     S
O44    Zn51    1.931   .     S
O45    Zn52    1.938   .     S
O46    Zn53    1.933   .     S
O47    Zn50    1.931   .     S
O48    Zn51    1.942   .     S
O49    Zn52    1.932   .     S
C54    O97     1.267   .     A
C54    O99     1.266   .     A
C54    C60     1.432   .     S
C55    H88     1.077   .     S
C55    C69     1.393   .     A
C55    C74     1.413   .     A
C56    C68     1.387   .     A
C56    H87     1.084   .     S
C56    C69     1.397   .     A
C57    O98     1.287   .     A
C57    C59     1.455   .     S
C57    O100    1.279   .     A
C58    C73     1.420   .     A
C58    C67     1.476   .     S
C58    C70     1.408   .     A
C59    C113    1.339   .     S
C59    H142    1.088   .     S
C61    C64     1.452   .     S
C61    C221    1.336   .     S
C61    H242    1.088   .     S
C62    C63     1.431   .     S
C62    C379    1.336   1_545 S
C62    F397    1.361   1_545 S
C63    O95     1.274   .     A
C63    O101    1.273   .     A
C64    O96     1.272   .     A
C64    O102    1.276   .     A
C65    C70     1.387   .     A
C65    F81     1.357   .     S
C65    C548    1.389   .     S
C66    O91     1.270   .     A
C66    C69     1.452   .     S
C66    O93     1.282   .     A
C67    O94     1.286   .     A
C67    O92     1.282   .     A
C68    H85     1.084   .     S
C68    C552    1.400   1_554 S
C70    F80     1.358   .     S
C71    H86     1.076   .     S
C71    C542    1.389   1_554 S
C71    C549    1.416   1_554 S
C72    C73     1.426   .     A
C72    C548    1.416   .     S
C72    C551    1.426   .     S
C73    C77     1.415   .     A
C74    C549    1.426   1_554 S
C74    C552    1.423   1_554 S
C75    C76     1.391   .     A
C75    C551    1.423   .     S
C75    C545    1.400   .     S
C76    C77     1.384   .     A
C76    H84     1.085   .     S
C77    F82     1.358   .     S
F78    C113    1.361   .     S
F79    C221    1.361   .     S
H83    C379    1.088   1_545 S
O90    Zn106   1.933   .     S
O90    Zn103   1.961   .     S
O90    Zn104   1.937   .     S
O90    Zn105   1.947   .     S
O91    Zn104   1.935   .     S
O92    Zn106   1.941   .     S
O93    Zn105   1.930   .     S
O94    Zn103   1.926   .     S
O95    Zn103   1.930   .     S
O96    Zn106   1.938   .     S
O97    Zn104   1.931   .     S
O98    Zn105   1.938   .     S
O99    Zn106   1.933   .     S
O100   Zn103   1.931   .     S
O101   Zn104   1.942   .     S
O102   Zn105   1.932   .     S
C107   O150    1.267   .     A
C107   O152    1.266   .     A
C107   C113    1.432   .     S
C108   H141    1.077   .     S
C108   C122    1.393   .     A
C108   C127    1.413   .     A
C109   C121    1.387   .     A
C109   H140    1.084   .     S
C109   C122    1.397   .     A
C110   O151    1.287   .     A
C110   C112    1.455   .     S
C110   O153    1.279   .     A
C111   C126    1.420   .     A
C111   C120    1.476   .     S
C111   C123    1.408   .     A
C112   C7      1.339   1_655 S
C112   H36     1.088   1_655 S
C114   C117    1.452   .     S
C114   C274    1.336   .     S
C114   H295    1.088   .     S
C115   C116    1.431   .     S
C115   C432    1.336   1_545 S
C115   F450    1.361   1_545 S
C116   O148    1.274   .     A
C116   O154    1.273   .     A
C117   O149    1.272   .     A
C117   O155    1.276   .     A
C118   C123    1.387   .     A
C118   F134    1.357   .     S
C118   C601    1.389   .     S
C119   O144    1.270   .     A
C119   C122    1.452   .     S
C119   O146    1.282   .     A
C120   O147    1.286   .     A
C120   O145    1.282   .     A
C121   H138    1.084   .     S
C121   C605    1.400   1_554 S
C123   F133    1.358   .     S
C124   H139    1.076   .     S
C124   C595    1.389   1_554 S
C124   C602    1.416   1_554 S
C125   C126    1.426   .     A
C125   C601    1.416   .     S
C125   C604    1.426   .     S
C126   C130    1.415   .     A
C127   C602    1.426   1_554 S
C127   C605    1.423   1_554 S
C128   C129    1.391   .     A
C128   C604    1.423   .     S
C128   C598    1.400   .     S
C129   C130    1.384   .     A
C129   H137    1.085   .     S
C130   F135    1.358   .     S
F131   C7      1.361   1_655 S
F132   C274    1.361   .     S
H136   C432    1.088   1_545 S
O143   Zn159   1.933   .     S
O143   Zn156   1.961   .     S
O143   Zn157   1.937   .     S
O143   Zn158   1.947   .     S
O144   Zn157   1.935   .     S
O145   Zn159   1.941   .     S
O146   Zn158   1.930   .     S
O147   Zn156   1.926   .     S
O148   Zn156   1.930   .     S
O149   Zn159   1.938   .     S
O150   Zn157   1.931   .     S
O151   Zn158   1.938   .     S
O152   Zn159   1.933   .     S
O153   Zn156   1.931   .     S
O154   Zn157   1.942   .     S
O155   Zn158   1.932   .     S
C160   O203    1.267   .     A
C160   O205    1.266   .     A
C160   C166    1.432   .     S
C161   H194    1.077   .     S
C161   C175    1.393   .     A
C161   C180    1.413   .     A
C162   C174    1.387   .     A
C162   H193    1.084   .     S
C162   C175    1.397   .     A
C163   O204    1.287   .     A
C163   C165    1.455   .     S
C163   O206    1.279   .     A
C164   C179    1.420   .     A
C164   C173    1.476   .     S
C164   C176    1.408   .     A
C165   C219    1.339   .     S
C165   H248    1.088   .     S
C166   C271    1.339   1_455 S
C166   F290    1.361   1_455 S
C167   C170    1.452   .     S
C167   C327    1.336   .     S
C167   H348    1.088   .     S
C168   C169    1.431   .     S
C169   O201    1.274   .     A
C169   O207    1.273   .     A
C170   O202    1.272   .     A
C170   O208    1.276   .     A
C171   C176    1.387   .     A
C171   F187    1.357   .     S
C171   C654    1.389   .     S
C172   O197    1.270   .     A
C172   C175    1.452   .     S
C172   O199    1.282   .     A
C173   O200    1.286   .     A
C173   O198    1.282   .     A
C174   H191    1.084   .     S
C174   C658    1.400   1_554 S
C176   F186    1.358   .     S
C177   H192    1.076   .     S
C177   C648    1.389   1_554 S
C177   C655    1.416   1_554 S
C178   C179    1.426   .     A
C178   C654    1.416   .     S
C178   C657    1.426   .     S
C179   C183    1.415   .     A
C180   C655    1.426   1_554 S
C180   C658    1.423   1_554 S
C181   C182    1.391   .     A
C181   C657    1.423   .     S
C181   C651    1.400   .     S
C182   C183    1.384   .     A
C182   H190    1.085   .     S
C183   F188    1.358   .     S
F184   C219    1.361   .     S
F185   C327    1.361   .     S
H195   C271    1.088   1_455 S
O196   Zn212   1.933   .     S
O196   Zn209   1.961   .     S
O196   Zn210   1.937   .     S
O196   Zn211   1.947   .     S
O197   Zn210   1.935   .     S
O198   Zn212   1.941   .     S
O199   Zn211   1.930   .     S
O200   Zn209   1.926   .     S
O201   Zn209   1.930   .     S
O202   Zn212   1.938   .     S
O203   Zn210   1.931   .     S
O204   Zn211   1.938   .     S
O205   Zn212   1.933   .     S
O206   Zn209   1.931   .     S
O207   Zn210   1.942   .     S
O208   Zn211   1.932   .     S
C213   O256    1.267   .     A
C213   O258    1.266   .     A
C213   C219    1.432   .     S
C214   H247    1.077   .     S
C214   C228    1.393   .     A
C214   C233    1.413   .     A
C215   C227    1.387   .     A
C215   H246    1.084   .     S
C215   C228    1.397   .     A
C216   O257    1.287   .     A
C216   C218    1.455   .     S
C216   O259    1.279   .     A
C217   C232    1.420   .     A
C217   C226    1.476   .     S
C217   C229    1.408   .     A
C218   C272    1.339   .     S
C218   H301    1.088   .     S
C220   C223    1.452   .     S
C220   C380    1.336   .     S
C220   H401    1.088   .     S
C221   C222    1.431   .     S
C222   O254    1.274   .     A
C222   O260    1.273   .     A
C223   O255    1.272   .     A
C223   O261    1.276   .     A
C224   C229    1.387   .     A
C224   F240    1.357   .     S
C224   C707    1.389   .     S
C225   O250    1.270   .     A
C225   C228    1.452   .     S
C225   O252    1.282   .     A
C226   O253    1.286   .     A
C226   O251    1.282   .     A
C227   H244    1.084   .     S
C227   C711    1.400   1_554 S
C229   F239    1.358   .     S
C230   H245    1.076   .     S
C230   C701    1.389   1_554 S
C230   C708    1.416   1_554 S
C231   C232    1.426   .     A
C231   C707    1.416   .     S
C231   C710    1.426   .     S
C232   C236    1.415   .     A
C233   C708    1.426   1_554 S
C233   C711    1.423   1_554 S
C234   C235    1.391   .     A
C234   C710    1.423   .     S
C234   C704    1.400   .     S
C235   C236    1.384   .     A
C235   H243    1.085   .     S
C236   F241    1.358   .     S
F237   C272    1.361   .     S
F238   C380    1.361   .     S
O249   Zn265   1.933   .     S
O249   Zn262   1.961   .     S
O249   Zn263   1.937   .     S
O249   Zn264   1.947   .     S
O250   Zn263   1.935   .     S
O251   Zn265   1.941   .     S
O252   Zn264   1.930   .     S
O253   Zn262   1.926   .     S
O254   Zn262   1.930   .     S
O255   Zn265   1.938   .     S
O256   Zn263   1.931   .     S
O257   Zn264   1.938   .     S
O258   Zn265   1.933   .     S
O259   Zn262   1.931   .     S
O260   Zn263   1.942   .     S
O261   Zn264   1.932   .     S
C266   O309    1.267   .     A
C266   O311    1.266   .     A
C266   C272    1.432   .     S
C267   H300    1.077   .     S
C267   C281    1.393   .     A
C267   C286    1.413   .     A
C268   C280    1.387   .     A
C268   H299    1.084   .     S
C268   C281    1.397   .     A
C269   O310    1.287   .     A
C269   C271    1.455   .     S
C269   O312    1.279   .     A
C270   C285    1.420   .     A
C270   C279    1.476   .     S
C270   C282    1.408   .     A
C271   C166    1.339   1_655 S
C271   H195    1.088   1_655 S
C273   C276    1.452   .     S
C273   C433    1.336   .     S
C273   H454    1.088   .     S
C274   C275    1.431   .     S
C275   O307    1.274   .     A
C275   O313    1.273   .     A
C276   O308    1.272   .     A
C276   O314    1.276   .     A
C277   C282    1.387   .     A
C277   F293    1.357   .     S
C277   C760    1.389   .     S
C278   O303    1.270   .     A
C278   C281    1.452   .     S
C278   O305    1.282   .     A
C279   O306    1.286   .     A
C279   O304    1.282   .     A
C280   H297    1.084   .     S
C280   C764    1.400   1_554 S
C282   F292    1.358   .     S
C283   H298    1.076   .     S
C283   C754    1.389   1_554 S
C283   C761    1.416   1_554 S
C284   C285    1.426   .     A
C284   C760    1.416   .     S
C284   C763    1.426   .     S
C285   C289    1.415   .     A
C286   C761    1.426   1_554 S
C286   C764    1.423   1_554 S
C287   C288    1.391   .     A
C287   C763    1.423   .     S
C287   C757    1.400   .     S
C288   C289    1.384   .     A
C288   H296    1.085   .     S
C289   F294    1.358   .     S
F290   C166    1.361   1_655 S
F291   C433    1.361   .     S
O302   Zn318   1.933   .     S
O302   Zn315   1.961   .     S
O302   Zn316   1.937   .     S
O302   Zn317   1.947   .     S
O303   Zn316   1.935   .     S
O304   Zn318   1.941   .     S
O305   Zn317   1.930   .     S
O306   Zn315   1.926   .     S
O307   Zn315   1.930   .     S
O308   Zn318   1.938   .     S
O309   Zn316   1.931   .     S
O310   Zn317   1.938   .     S
O311   Zn318   1.933   .     S
O312   Zn315   1.931   .     S
O313   Zn316   1.942   .     S
O314   Zn317   1.932   .     S
C319   O362    1.267   .     A
C319   O364    1.266   .     A
C319   C325    1.432   .     S
C320   H353    1.077   .     S
C320   C334    1.393   .     A
C320   C339    1.413   .     A
C321   C333    1.387   .     A
C321   H352    1.084   .     S
C321   C334    1.397   .     A
C322   O363    1.287   .     A
C322   C324    1.455   .     S
C322   O365    1.279   .     A
C323   C338    1.420   .     A
C323   C332    1.476   .     S
C323   C335    1.408   .     A
C324   C378    1.339   .     S
C324   H407    1.088   .     S
C325   C430    1.339   1_455 S
C325   F449    1.361   1_455 S
C326   C329    1.452   .     S
C326   C9      1.336   1_565 S
C326   H30     1.088   1_565 S
C327   C328    1.431   .     S
C328   O360    1.274   .     A
C328   O366    1.273   .     A
C329   O361    1.272   .     A
C329   O367    1.276   .     A
C330   C335    1.387   .     A
C330   F346    1.357   .     S
C330   C813    1.389   .     S
C331   O356    1.270   .     A
C331   C334    1.452   .     S
C331   O358    1.282   .     A
C332   O359    1.286   .     A
C332   O357    1.282   .     A
C333   H350    1.084   .     S
C333   C817    1.400   1_554 S
C335   F345    1.358   .     S
C336   H351    1.076   .     S
C336   C807    1.389   1_554 S
C336   C814    1.416   1_554 S
C337   C338    1.426   .     A
C337   C813    1.416   .     S
C337   C816    1.426   .     S
C338   C342    1.415   .     A
C339   C814    1.426   1_554 S
C339   C817    1.423   1_554 S
C340   C341    1.391   .     A
C340   C816    1.423   .     S
C340   C810    1.400   .     S
C341   C342    1.384   .     A
C341   H349    1.085   .     S
C342   F347    1.358   .     S
F343   C378    1.361   .     S
F344   C9      1.361   1_565 S
H354   C430    1.088   1_455 S
O355   Zn371   1.933   .     S
O355   Zn368   1.961   .     S
O355   Zn369   1.937   .     S
O355   Zn370   1.947   .     S
O356   Zn369   1.935   .     S
O357   Zn371   1.941   .     S
O358   Zn370   1.930   .     S
O359   Zn368   1.926   .     S
O360   Zn368   1.930   .     S
O361   Zn371   1.938   .     S
O362   Zn369   1.931   .     S
O363   Zn370   1.938   .     S
O364   Zn371   1.933   .     S
O365   Zn368   1.931   .     S
O366   Zn369   1.942   .     S
O367   Zn370   1.932   .     S
C372   O415    1.267   .     A
C372   O417    1.266   .     A
C372   C378    1.432   .     S
C373   H406    1.077   .     S
C373   C387    1.393   .     A
C373   C392    1.413   .     A
C374   C386    1.387   .     A
C374   H405    1.084   .     S
C374   C387    1.397   .     A
C375   O416    1.287   .     A
C375   C377    1.455   .     S
C375   O418    1.279   .     A
C376   C391    1.420   .     A
C376   C385    1.476   .     S
C376   C388    1.408   .     A
C377   C431    1.339   .     S
C377   H460    1.088   .     S
C379   C382    1.452   .     S
C379   C62     1.336   1_565 S
C379   H83     1.088   1_565 S
C380   C381    1.431   .     S
C381   O413    1.274   .     A
C381   O419    1.273   .     A
C382   O414    1.272   .     A
C382   O420    1.276   .     A
C383   C388    1.387   .     A
C383   F399    1.357   .     S
C383   C866    1.389   .     S
C384   O409    1.270   .     A
C384   C387    1.452   .     S
C384   O411    1.282   .     A
C385   O412    1.286   .     A
C385   O410    1.282   .     A
C386   H403    1.084   .     S
C386   C870    1.400   1_554 S
C388   F398    1.358   .     S
C389   H404    1.076   .     S
C389   C860    1.389   1_554 S
C389   C867    1.416   1_554 S
C390   C391    1.426   .     A
C390   C866    1.416   .     S
C390   C869    1.426   .     S
C391   C395    1.415   .     A
C392   C867    1.426   1_554 S
C392   C870    1.423   1_554 S
C393   C394    1.391   .     A
C393   C869    1.423   .     S
C393   C863    1.400   .     S
C394   C395    1.384   .     A
C394   H402    1.085   .     S
C395   F400    1.358   .     S
F396   C431    1.361   .     S
F397   C62     1.361   1_565 S
O408   Zn424   1.933   .     S
O408   Zn421   1.961   .     S
O408   Zn422   1.937   .     S
O408   Zn423   1.947   .     S
O409   Zn422   1.935   .     S
O410   Zn424   1.941   .     S
O411   Zn423   1.930   .     S
O412   Zn421   1.926   .     S
O413   Zn421   1.930   .     S
O414   Zn424   1.938   .     S
O415   Zn422   1.931   .     S
O416   Zn423   1.938   .     S
O417   Zn424   1.933   .     S
O418   Zn421   1.931   .     S
O419   Zn422   1.942   .     S
O420   Zn423   1.932   .     S
C425   O468    1.267   .     A
C425   O470    1.266   .     A
C425   C431    1.432   .     S
C426   H459    1.077   .     S
C426   C440    1.393   .     A
C426   C445    1.413   .     A
C427   C439    1.387   .     A
C427   H458    1.084   .     S
C427   C440    1.397   .     A
C428   O469    1.287   .     A
C428   C430    1.455   .     S
C428   O471    1.279   .     A
C429   C444    1.420   .     A
C429   C438    1.476   .     S
C429   C441    1.408   .     A
C430   C325    1.339   1_655 S
C430   H354    1.088   1_655 S
C432   C435    1.452   .     S
C432   C115    1.336   1_565 S
C432   H136    1.088   1_565 S
C433   C434    1.431   .     S
C434   O466    1.274   .     A
C434   O472    1.273   .     A
C435   O467    1.272   .     A
C435   O473    1.276   .     A
C436   C441    1.387   .     A
C436   F452    1.357   .     S
C436   C919    1.389   .     S
C437   O462    1.270   .     A
C437   C440    1.452   .     S
C437   O464    1.282   .     A
C438   O465    1.286   .     A
C438   O463    1.282   .     A
C439   H456    1.084   .     S
C439   C923    1.400   1_554 S
C441   F451    1.358   .     S
C442   H457    1.076   .     S
C442   C913    1.389   1_554 S
C442   C920    1.416   1_554 S
C443   C444    1.426   .     A
C443   C919    1.416   .     S
C443   C922    1.426   .     S
C444   C448    1.415   .     A
C445   C920    1.426   1_554 S
C445   C923    1.423   1_554 S
C446   C447    1.391   .     A
C446   C922    1.423   .     S
C446   C916    1.400   .     S
C447   C448    1.384   .     A
C447   H455    1.085   .     S
C448   F453    1.358   .     S
F449   C325    1.361   1_655 S
F450   C115    1.361   1_565 S
O461   Zn477   1.933   .     S
O461   Zn474   1.961   .     S
O461   Zn475   1.937   .     S
O461   Zn476   1.947   .     S
O462   Zn475   1.935   .     S
O463   Zn477   1.941   .     S
O464   Zn476   1.930   .     S
O465   Zn474   1.926   .     S
O466   Zn474   1.930   .     S
O467   Zn477   1.938   .     S
O468   Zn475   1.931   .     S
O469   Zn476   1.938   .     S
O470   Zn477   1.933   .     S
O471   Zn474   1.931   .     S
O472   Zn475   1.942   .     S
O473   Zn476   1.932   .     S
C478   O521    1.267   .     A
C478   O523    1.266   .     A
C478   C484    1.432   .     S
C479   H512    1.077   .     S
C479   C493    1.393   .     A
C479   C498    1.413   .     A
C480   C492    1.387   .     A
C480   H511    1.084   .     S
C480   C493    1.397   .     A
C481   O522    1.287   .     A
C481   C483    1.455   .     S
C481   O524    1.279   .     A
C482   C497    1.420   .     A
C482   C491    1.476   .     S
C482   C494    1.408   .     A
C483   C537    1.339   .     S
C483   H566    1.088   .     S
C484   C589    1.339   1_455 S
C484   F608    1.361   1_455 S
C485   C488    1.452   .     S
C485   C645    1.336   .     S
C485   H666    1.088   .     S
C486   C487    1.431   .     S
C486   C803    1.336   1_545 S
C486   F821    1.361   1_545 S
C487   O519    1.274   .     A
C487   O525    1.273   .     A
C488   O520    1.272   .     A
C488   O526    1.276   .     A
C489   C494    1.387   .     A
C489   F505    1.357   .     S
C489   C18     1.389   1_556 S
C490   O515    1.270   .     A
C490   C493    1.452   .     S
C490   O517    1.282   .     A
C491   O518    1.286   .     A
C491   O516    1.282   .     A
C492   H509    1.084   .     S
C494   F504    1.358   .     S
C495   H510    1.076   .     S
C496   C497    1.426   .     A
C496   C18     1.416   1_556 S
C496   C21     1.426   1_556 S
C497   C501    1.415   .     A
C499   C500    1.391   .     A
C499   C21     1.423   1_556 S
C499   C15     1.400   1_556 S
C500   C501    1.384   .     A
C500   H508    1.085   .     S
C501   F506    1.358   .     S
F502   C537    1.361   .     S
F503   C645    1.361   .     S
H507   C803    1.088   1_545 S
H513   C589    1.088   1_455 S
O514   Zn530   1.933   .     S
O514   Zn527   1.961   .     S
O514   Zn528   1.937   .     S
O514   Zn529   1.947   .     S
O515   Zn528   1.935   .     S
O516   Zn530   1.941   .     S
O517   Zn529   1.930   .     S
O518   Zn527   1.926   .     S
O519   Zn527   1.930   .     S
O520   Zn530   1.938   .     S
O521   Zn528   1.931   .     S
O522   Zn529   1.938   .     S
O523   Zn530   1.933   .     S
O524   Zn527   1.931   .     S
O525   Zn528   1.942   .     S
O526   Zn529   1.932   .     S
C531   O574    1.267   .     A
C531   O576    1.266   .     A
C531   C537    1.432   .     S
C532   H565    1.077   .     S
C532   C546    1.393   .     A
C532   C551    1.413   .     A
C533   C545    1.387   .     A
C533   H564    1.084   .     S
C533   C546    1.397   .     A
C534   O575    1.287   .     A
C534   C536    1.455   .     S
C534   O577    1.279   .     A
C535   C550    1.420   .     A
C535   C544    1.476   .     S
C535   C547    1.408   .     A
C536   C590    1.339   .     S
C536   H619    1.088   .     S
C538   C541    1.452   .     S
C538   C698    1.336   .     S
C538   H719    1.088   .     S
C539   C540    1.431   .     S
C539   C856    1.336   1_545 S
C539   F874    1.361   1_545 S
C540   O572    1.274   .     A
C540   O578    1.273   .     A
C541   O573    1.272   .     A
C541   O579    1.276   .     A
C542   C547    1.387   .     A
C542   F558    1.357   .     S
C542   C71     1.389   1_556 S
C543   O568    1.270   .     A
C543   C546    1.452   .     S
C543   O570    1.282   .     A
C544   O571    1.286   .     A
C544   O569    1.282   .     A
C545   H562    1.084   .     S
C547   F557    1.358   .     S
C548   H563    1.076   .     S
C549   C550    1.426   .     A
C549   C71     1.416   1_556 S
C549   C74     1.426   1_556 S
C550   C554    1.415   .     A
C552   C553    1.391   .     A
C552   C74     1.423   1_556 S
C552   C68     1.400   1_556 S
C553   C554    1.384   .     A
C553   H561    1.085   .     S
C554   F559    1.358   .     S
F555   C590    1.361   .     S
F556   C698    1.361   .     S
H560   C856    1.088   1_545 S
O567   Zn583   1.933   .     S
O567   Zn580   1.961   .     S
O567   Zn581   1.937   .     S
O567   Zn582   1.947   .     S
O568   Zn581   1.935   .     S
O569   Zn583   1.941   .     S
O570   Zn582   1.930   .     S
O571   Zn580   1.926   .     S
O572   Zn580   1.930   .     S
O573   Zn583   1.938   .     S
O574   Zn581   1.931   .     S
O575   Zn582   1.938   .     S
O576   Zn583   1.933   .     S
O577   Zn580   1.931   .     S
O578   Zn581   1.942   .     S
O579   Zn582   1.932   .     S
C584   O627    1.267   .     A
C584   O629    1.266   .     A
C584   C590    1.432   .     S
C585   H618    1.077   .     S
C585   C599    1.393   .     A
C585   C604    1.413   .     A
C586   C598    1.387   .     A
C586   H617    1.084   .     S
C586   C599    1.397   .     A
C587   O628    1.287   .     A
C587   C589    1.455   .     S
C587   O630    1.279   .     A
C588   C603    1.420   .     A
C588   C597    1.476   .     S
C588   C600    1.408   .     A
C589   C484    1.339   1_655 S
C589   H513    1.088   1_655 S
C591   C594    1.452   .     S
C591   C751    1.336   .     S
C591   H772    1.088   .     S
C592   C593    1.431   .     S
C592   C909    1.336   1_545 S
C592   F927    1.361   1_545 S
C593   O625    1.274   .     A
C593   O631    1.273   .     A
C594   O626    1.272   .     A
C594   O632    1.276   .     A
C595   C600    1.387   .     A
C595   F611    1.357   .     S
C595   C124    1.389   1_556 S
C596   O621    1.270   .     A
C596   C599    1.452   .     S
C596   O623    1.282   .     A
C597   O624    1.286   .     A
C597   O622    1.282   .     A
C598   H615    1.084   .     S
C600   F610    1.358   .     S
C601   H616    1.076   .     S
C602   C603    1.426   .     A
C602   C124    1.416   1_556 S
C602   C127    1.426   1_556 S
C603   C607    1.415   .     A
C605   C606    1.391   .     A
C605   C127    1.423   1_556 S
C605   C121    1.400   1_556 S
C606   C607    1.384   .     A
C606   H614    1.085   .     S
C607   F612    1.358   .     S
F608   C484    1.361   1_655 S
F609   C751    1.361   .     S
H613   C909    1.088   1_545 S
O620   Zn636   1.933   .     S
O620   Zn633   1.961   .     S
O620   Zn634   1.937   .     S
O620   Zn635   1.947   .     S
O621   Zn634   1.935   .     S
O622   Zn636   1.941   .     S
O623   Zn635   1.930   .     S
O624   Zn633   1.926   .     S
O625   Zn633   1.930   .     S
O626   Zn636   1.938   .     S
O627   Zn634   1.931   .     S
O628   Zn635   1.938   .     S
O629   Zn636   1.933   .     S
O630   Zn633   1.931   .     S
O631   Zn634   1.942   .     S
O632   Zn635   1.932   .     S
C637   O680    1.267   .     A
C637   O682    1.266   .     A
C637   C643    1.432   .     S
C638   H671    1.077   .     S
C638   C652    1.393   .     A
C638   C657    1.413   .     A
C639   C651    1.387   .     A
C639   H670    1.084   .     S
C639   C652    1.397   .     A
C640   O681    1.287   .     A
C640   C642    1.455   .     S
C640   O683    1.279   .     A
C641   C656    1.420   .     A
C641   C650    1.476   .     S
C641   C653    1.408   .     A
C642   C696    1.339   .     S
C642   H725    1.088   .     S
C643   C748    1.339   1_455 S
C643   F767    1.361   1_455 S
C644   C647    1.452   .     S
C644   C804    1.336   .     S
C644   H825    1.088   .     S
C645   C646    1.431   .     S
C646   O678    1.274   .     A
C646   O684    1.273   .     A
C647   O679    1.272   .     A
C647   O685    1.276   .     A
C648   C653    1.387   .     A
C648   F664    1.357   .     S
C648   C177    1.389   1_556 S
C649   O674    1.270   .     A
C649   C652    1.452   .     S
C649   O676    1.282   .     A
C650   O677    1.286   .     A
C650   O675    1.282   .     A
C651   H668    1.084   .     S
C653   F663    1.358   .     S
C654   H669    1.076   .     S
C655   C656    1.426   .     A
C655   C177    1.416   1_556 S
C655   C180    1.426   1_556 S
C656   C660    1.415   .     A
C658   C659    1.391   .     A
C658   C180    1.423   1_556 S
C658   C174    1.400   1_556 S
C659   C660    1.384   .     A
C659   H667    1.085   .     S
C660   F665    1.358   .     S
F661   C696    1.361   .     S
F662   C804    1.361   .     S
H672   C748    1.088   1_455 S
O673   Zn689   1.933   .     S
O673   Zn686   1.961   .     S
O673   Zn687   1.937   .     S
O673   Zn688   1.947   .     S
O674   Zn687   1.935   .     S
O675   Zn689   1.941   .     S
O676   Zn688   1.930   .     S
O677   Zn686   1.926   .     S
O678   Zn686   1.930   .     S
O679   Zn689   1.938   .     S
O680   Zn687   1.931   .     S
O681   Zn688   1.938   .     S
O682   Zn689   1.933   .     S
O683   Zn686   1.931   .     S
O684   Zn687   1.942   .     S
O685   Zn688   1.932   .     S
C690   O733    1.267   .     A
C690   O735    1.266   .     A
C690   C696    1.432   .     S
C691   H724    1.077   .     S
C691   C705    1.393   .     A
C691   C710    1.413   .     A
C692   C704    1.387   .     A
C692   H723    1.084   .     S
C692   C705    1.397   .     A
C693   O734    1.287   .     A
C693   C695    1.455   .     S
C693   O736    1.279   .     A
C694   C709    1.420   .     A
C694   C703    1.476   .     S
C694   C706    1.408   .     A
C695   C749    1.339   .     S
C695   H778    1.088   .     S
C697   C700    1.452   .     S
C697   C857    1.336   .     S
C697   H878    1.088   .     S
C698   C699    1.431   .     S
C699   O731    1.274   .     A
C699   O737    1.273   .     A
C700   O732    1.272   .     A
C700   O738    1.276   .     A
C701   C706    1.387   .     A
C701   F717    1.357   .     S
C701   C230    1.389   1_556 S
C702   O727    1.270   .     A
C702   C705    1.452   .     S
C702   O729    1.282   .     A
C703   O730    1.286   .     A
C703   O728    1.282   .     A
C704   H721    1.084   .     S
C706   F716    1.358   .     S
C707   H722    1.076   .     S
C708   C709    1.426   .     A
C708   C230    1.416   1_556 S
C708   C233    1.426   1_556 S
C709   C713    1.415   .     A
C711   C712    1.391   .     A
C711   C233    1.423   1_556 S
C711   C227    1.400   1_556 S
C712   C713    1.384   .     A
C712   H720    1.085   .     S
C713   F718    1.358   .     S
F714   C749    1.361   .     S
F715   C857    1.361   .     S
O726   Zn742   1.933   .     S
O726   Zn739   1.961   .     S
O726   Zn740   1.937   .     S
O726   Zn741   1.947   .     S
O727   Zn740   1.935   .     S
O728   Zn742   1.941   .     S
O729   Zn741   1.930   .     S
O730   Zn739   1.926   .     S
O731   Zn739   1.930   .     S
O732   Zn742   1.938   .     S
O733   Zn740   1.931   .     S
O734   Zn741   1.938   .     S
O735   Zn742   1.933   .     S
O736   Zn739   1.931   .     S
O737   Zn740   1.942   .     S
O738   Zn741   1.932   .     S
C743   O786    1.267   .     A
C743   O788    1.266   .     A
C743   C749    1.432   .     S
C744   H777    1.077   .     S
C744   C758    1.393   .     A
C744   C763    1.413   .     A
C745   C757    1.387   .     A
C745   H776    1.084   .     S
C745   C758    1.397   .     A
C746   O787    1.287   .     A
C746   C748    1.455   .     S
C746   O789    1.279   .     A
C747   C762    1.420   .     A
C747   C756    1.476   .     S
C747   C759    1.408   .     A
C748   C643    1.339   1_655 S
C748   H672    1.088   1_655 S
C750   C753    1.452   .     S
C750   C910    1.336   .     S
C750   H931    1.088   .     S
C751   C752    1.431   .     S
C752   O784    1.274   .     A
C752   O790    1.273   .     A
C753   O785    1.272   .     A
C753   O791    1.276   .     A
C754   C759    1.387   .     A
C754   F770    1.357   .     S
C754   C283    1.389   1_556 S
C755   O780    1.270   .     A
C755   C758    1.452   .     S
C755   O782    1.282   .     A
C756   O783    1.286   .     A
C756   O781    1.282   .     A
C757   H774    1.084   .     S
C759   F769    1.358   .     S
C760   H775    1.076   .     S
C761   C762    1.426   .     A
C761   C283    1.416   1_556 S
C761   C286    1.426   1_556 S
C762   C766    1.415   .     A
C764   C765    1.391   .     A
C764   C286    1.423   1_556 S
C764   C280    1.400   1_556 S
C765   C766    1.384   .     A
C765   H773    1.085   .     S
C766   F771    1.358   .     S
F767   C643    1.361   1_655 S
F768   C910    1.361   .     S
O779   Zn795   1.933   .     S
O779   Zn792   1.961   .     S
O779   Zn793   1.937   .     S
O779   Zn794   1.947   .     S
O780   Zn793   1.935   .     S
O781   Zn795   1.941   .     S
O782   Zn794   1.930   .     S
O783   Zn792   1.926   .     S
O784   Zn792   1.930   .     S
O785   Zn795   1.938   .     S
O786   Zn793   1.931   .     S
O787   Zn794   1.938   .     S
O788   Zn795   1.933   .     S
O789   Zn792   1.931   .     S
O790   Zn793   1.942   .     S
O791   Zn794   1.932   .     S
C796   O839    1.267   .     A
C796   O841    1.266   .     A
C796   C802    1.432   .     S
C797   H830    1.077   .     S
C797   C811    1.393   .     A
C797   C816    1.413   .     A
C798   C810    1.387   .     A
C798   H829    1.084   .     S
C798   C811    1.397   .     A
C799   O840    1.287   .     A
C799   C801    1.455   .     S
C799   O842    1.279   .     A
C800   C815    1.420   .     A
C800   C809    1.476   .     S
C800   C812    1.408   .     A
C801   C855    1.339   .     S
C801   H884    1.088   .     S
C802   C907    1.339   1_455 S
C802   F926    1.361   1_455 S
C803   C806    1.452   .     S
C803   C486    1.336   1_565 S
C803   H507    1.088   1_565 S
C804   C805    1.431   .     S
C805   O837    1.274   .     A
C805   O843    1.273   .     A
C806   O838    1.272   .     A
C806   O844    1.276   .     A
C807   C812    1.387   .     A
C807   F823    1.357   .     S
C807   C336    1.389   1_556 S
C808   O833    1.270   .     A
C808   C811    1.452   .     S
C808   O835    1.282   .     A
C809   O836    1.286   .     A
C809   O834    1.282   .     A
C810   H827    1.084   .     S
C812   F822    1.358   .     S
C813   H828    1.076   .     S
C814   C815    1.426   .     A
C814   C336    1.416   1_556 S
C814   C339    1.426   1_556 S
C815   C819    1.415   .     A
C817   C818    1.391   .     A
C817   C339    1.423   1_556 S
C817   C333    1.400   1_556 S
C818   C819    1.384   .     A
C818   H826    1.085   .     S
C819   F824    1.358   .     S
F820   C855    1.361   .     S
F821   C486    1.361   1_565 S
H831   C907    1.088   1_455 S
O832   Zn848   1.933   .     S
O832   Zn845   1.961   .     S
O832   Zn846   1.937   .     S
O832   Zn847   1.947   .     S
O833   Zn846   1.935   .     S
O834   Zn848   1.941   .     S
O835   Zn847   1.930   .     S
O836   Zn845   1.926   .     S
O837   Zn845   1.930   .     S
O838   Zn848   1.938   .     S
O839   Zn846   1.931   .     S
O840   Zn847   1.938   .     S
O841   Zn848   1.933   .     S
O842   Zn845   1.931   .     S
O843   Zn846   1.942   .     S
O844   Zn847   1.932   .     S
C849   O892    1.267   .     A
C849   O894    1.266   .     A
C849   C855    1.432   .     S
C850   H883    1.077   .     S
C850   C864    1.393   .     A
C850   C869    1.413   .     A
C851   C863    1.387   .     A
C851   H882    1.084   .     S
C851   C864    1.397   .     A
C852   O893    1.287   .     A
C852   C854    1.455   .     S
C852   O895    1.279   .     A
C853   C868    1.420   .     A
C853   C862    1.476   .     S
C853   C865    1.408   .     A
C854   C908    1.339   .     S
C854   H937    1.088   .     S
C856   C859    1.452   .     S
C856   C539    1.336   1_565 S
C856   H560    1.088   1_565 S
C857   C858    1.431   .     S
C858   O890    1.274   .     A
C858   O896    1.273   .     A
C859   O891    1.272   .     A
C859   O897    1.276   .     A
C860   C865    1.387   .     A
C860   F876    1.357   .     S
C860   C389    1.389   1_556 S
C861   O886    1.270   .     A
C861   C864    1.452   .     S
C861   O888    1.282   .     A
C862   O889    1.286   .     A
C862   O887    1.282   .     A
C863   H880    1.084   .     S
C865   F875    1.358   .     S
C866   H881    1.076   .     S
C867   C868    1.426   .     A
C867   C389    1.416   1_556 S
C867   C392    1.426   1_556 S
C868   C872    1.415   .     A
C870   C871    1.391   .     A
C870   C392    1.423   1_556 S
C870   C386    1.400   1_556 S
C871   C872    1.384   .     A
C871   H879    1.085   .     S
C872   F877    1.358   .     S
F873   C908    1.361   .     S
F874   C539    1.361   1_565 S
O885   Zn901   1.933   .     S
O885   Zn898   1.961   .     S
O885   Zn899   1.937   .     S
O885   Zn900   1.947   .     S
O886   Zn899   1.935   .     S
O887   Zn901   1.941   .     S
O888   Zn900   1.930   .     S
O889   Zn898   1.926   .     S
O890   Zn898   1.930   .     S
O891   Zn901   1.938   .     S
O892   Zn899   1.931   .     S
O893   Zn900   1.938   .     S
O894   Zn901   1.933   .     S
O895   Zn898   1.931   .     S
O896   Zn899   1.942   .     S
O897   Zn900   1.932   .     S
C902   O945    1.267   .     A
C902   O947    1.266   .     A
C902   C908    1.432   .     S
C903   H936    1.077   .     S
C903   C917    1.393   .     A
C903   C922    1.413   .     A
C904   C916    1.387   .     A
C904   H935    1.084   .     S
C904   C917    1.397   .     A
C905   O946    1.287   .     A
C905   C907    1.455   .     S
C905   O948    1.279   .     A
C906   C921    1.420   .     A
C906   C915    1.476   .     S
C906   C918    1.408   .     A
C907   C802    1.339   1_655 S
C907   H831    1.088   1_655 S
C909   C912    1.452   .     S
C909   C592    1.336   1_565 S
C909   H613    1.088   1_565 S
C910   C911    1.431   .     S
C911   O943    1.274   .     A
C911   O949    1.273   .     A
C912   O944    1.272   .     A
C912   O950    1.276   .     A
C913   C918    1.387   .     A
C913   F929    1.357   .     S
C913   C442    1.389   1_556 S
C914   O939    1.270   .     A
C914   C917    1.452   .     S
C914   O941    1.282   .     A
C915   O942    1.286   .     A
C915   O940    1.282   .     A
C916   H933    1.084   .     S
C918   F928    1.358   .     S
C919   H934    1.076   .     S
C920   C921    1.426   .     A
C920   C442    1.416   1_556 S
C920   C445    1.426   1_556 S
C921   C925    1.415   .     A
C923   C924    1.391   .     A
C923   C445    1.423   1_556 S
C923   C439    1.400   1_556 S
C924   C925    1.384   .     A
C924   H932    1.085   .     S
C925   F930    1.358   .     S
F926   C802    1.361   1_655 S
F927   C592    1.361   1_565 S
O938   Zn954   1.933   .     S
O938   Zn951   1.961   .     S
O938   Zn952   1.937   .     S
O938   Zn953   1.947   .     S
O939   Zn952   1.935   .     S
O940   Zn954   1.941   .     S
O941   Zn953   1.930   .     S
O942   Zn951   1.926   .     S
O943   Zn951   1.930   .     S
O944   Zn954   1.938   .     S
O945   Zn952   1.931   .     S
O946   Zn953   1.938   .     S
O947   Zn954   1.933   .     S
O948   Zn951   1.931   .     S
O949   Zn952   1.942   .     S
O950   Zn953   1.932   .     S
