data_str_m1_o10_o16_pcu_sym.15
_audit_creation_date              2020-01-03
_audit_creation_method            'Materials Studio'
_symmetry_space_group_name_H-M    'P1'
_symmetry_Int_Tables_number       1
_symmetry_cell_setting            triclinic
loop_
_symmetry_equiv_pos_as_xyz
  x,y,z
_cell_length_a                    32.6214
_cell_length_b                    32.7266
_cell_length_c                    30.7202
_cell_angle_alpha                 97.0949
_cell_angle_beta                  74.8155
_cell_angle_gamma                 99.0393
loop_
_atom_site_label
_atom_site_type_symbol
_atom_site_fract_x
_atom_site_fract_y
_atom_site_fract_z
_atom_site_U_iso_or_equiv
_atom_site_adp_type
_atom_site_occupancy
C1     C     0.05299   0.15960   0.25944   0.00000  Uiso   1.00
C2     C     0.18728   0.16587   0.05092   0.00000  Uiso   1.00
C3     C     0.19409   0.09621   0.06418   0.00000  Uiso   1.00
C4     C     0.28072   0.17385   0.24026   0.00000  Uiso   1.00
C5     C     0.13657   0.18959   0.42199   0.00000  Uiso   1.00
C6     C     0.32617   0.17842   0.23872   0.00000  Uiso   1.00
C7     C     0.00804   0.15522   0.26295   0.00000  Uiso   1.00
C8     C     0.18349   0.32382   0.24226   0.00000  Uiso   1.00
C9     C     0.14923   0.01158   0.26184   0.00000  Uiso   1.00
C10    C     0.15530   0.05600   0.26030   0.00000  Uiso   1.00
C11    C     0.17734   0.27822   0.24120   0.00000  Uiso   1.00
C12    C     0.11101   0.22996   0.49385   0.00000  Uiso   1.00
C13    C     0.18478   0.14839   0.12882   0.00000  Uiso   1.00
C14    C     0.14775   0.18428   0.37146   0.00000  Uiso   1.00
C15    C     0.18990   0.08111   0.02092   0.00000  Uiso   1.00
C16    C     0.19239   0.13792   0.07968   0.00000  Uiso   1.00
C17    C     0.11862   0.22539   0.44639   0.00000  Uiso   1.00
C18    C     0.22790   0.01477   0.22320   0.00000  Uiso   1.00
C19    C     0.26556   0.32331   0.20313   0.00000  Uiso   1.00
C20    C     0.10287   0.32384   0.27867   0.00000  Uiso   1.00
C21    C     0.06714   0.01815   0.28770   0.00000  Uiso   1.00
C22    C     0.20419   0.21199   0.05816   0.00000  Uiso   1.00
C23    C     0.12778   0.20423   0.01556   0.00000  Uiso   1.00
C24    C     0.23472   0.22879   0.01534   0.00000  Uiso   1.00
C25    C     0.15058   0.17225   0.49121   0.00000  Uiso   1.00
C26    C     0.14671   0.16012   0.44681   0.00000  Uiso   1.00
C27    C     0.17209   0.14899   0.01208   0.00000  Uiso   1.00
C28    C     0.17923   0.10773   0.49339   0.00000  Uiso   1.00
C29    C     0.17224   0.09450   0.44982   0.00000  Uiso   1.00
C30    C     0.15184   0.11874   0.42958   0.00000  Uiso   1.00
H31    H     0.19734   0.07475   0.08692   0.00000  Uiso   1.00
H32    H     0.03606   0.00009   0.30328   0.00000  Uiso   1.00
H33    H     0.09548   0.29865   0.25301   0.00000  Uiso   1.00
H34    H     0.10010   0.31047   0.31102   0.00000  Uiso   1.00
H35    H     0.25031   0.26038   0.02387   0.00000  Uiso   1.00
H36    H     0.26005   0.20835   0.00098   0.00000  Uiso   1.00
H37    H     0.21742   0.23127   0.48937   0.00000  Uiso   1.00
H38    H     0.22341   0.21690   0.08356   0.00000  Uiso   1.00
H39    H     0.17832   0.23167   0.07175   0.00000  Uiso   1.00
H40    H     0.12061   0.20786   0.05208   0.00000  Uiso   1.00
H41    H     0.26924   0.30326   0.22816   0.00000  Uiso   1.00
H42    H     0.26153   0.30459   0.17147   0.00000  Uiso   1.00
H43    H     0.29556   0.01188   0.19428   0.00000  Uiso   1.00
H44    H     0.22551   0.03380   0.19660   0.00000  Uiso   1.00
H45    H     0.23705   0.03622   0.25104   0.00000  Uiso   1.00
H46    H     0.07281   0.04563   0.31133   0.00000  Uiso   1.00
H47    H     0.06434   0.02829   0.25554   0.00000  Uiso   1.00
I48    I     0.30811   0.10379   0.30055   0.00000  Uiso   1.00
I49    I     0.20422   0.04803   0.40395   0.00000  Uiso   1.00
I50    I     0.18744   0.01520   0.01082   0.00000  Uiso   1.00
I51    I     0.10362   0.27435   0.41495   0.00000  Uiso   1.00
I52    I     0.07467   0.27491   0.03613   0.00000  Uiso   1.00
I53    I     0.11025   0.08557   0.38979   0.00000  Uiso   1.00
I54    I     0.03398   0.22412   0.19764   0.00000  Uiso   1.00
O55    O     0.16667   0.16667   0.25000   0.00000  Uiso   1.00
O56    O     0.15451   0.12637   0.15459   0.00000  Uiso   1.00
O57    O     0.12940   0.20391   0.34968   0.00000  Uiso   1.00
O58    O     0.20824   0.17759   0.14606   0.00000  Uiso   1.00
O59    O     0.17451   0.15880   0.34968   0.00000  Uiso   1.00
O60    O     0.17930   0.08019   0.28214   0.00000  Uiso   1.00
O61    O     0.14632   0.26085   0.27014   0.00000  Uiso   1.00
O62    O     0.07412   0.13291   0.23413   0.00000  Uiso   1.00
O63    O     0.26693   0.19272   0.21361   0.00000  Uiso   1.00
O64    O     0.07071   0.18878   0.28213   0.00000  Uiso   1.00
O65    O     0.25491   0.15226   0.27014   0.00000  Uiso   1.00
O66    O     0.13760   0.06944   0.23413   0.00000  Uiso   1.00
O67    O     0.20345   0.25620   0.21361   0.00000  Uiso   1.00
Zn68   Zn    0.19338   0.13994   0.28734   0.00000  Uiso   1.00
Zn69   Zn    0.13379   0.12458   0.21876   0.00000  Uiso   1.00
Zn70   Zn    0.21056   0.19775   0.20657   0.00000  Uiso   1.00
Zn71   Zn    0.12893   0.20439   0.28734   0.00000  Uiso   1.00
C72    C     0.38632   0.15960   0.25944   0.00000  Uiso   1.00
C73    C     0.52061   0.16587   0.05092   0.00000  Uiso   1.00
C74    C     0.52742   0.09621   0.06418   0.00000  Uiso   1.00
C75    C     0.61406   0.17385   0.24026   0.00000  Uiso   1.00
C76    C     0.46990   0.18959   0.42199   0.00000  Uiso   1.00
C77    C     0.65951   0.17842   0.23872   0.00000  Uiso   1.00
C78    C     0.34137   0.15522   0.26295   0.00000  Uiso   1.00
C79    C     0.51682   0.32382   0.24226   0.00000  Uiso   1.00
C80    C     0.48256   0.01158   0.26184   0.00000  Uiso   1.00
C81    C     0.48864   0.05600   0.26030   0.00000  Uiso   1.00
C82    C     0.51068   0.27822   0.24120   0.00000  Uiso   1.00
C83    C     0.44435   0.22996   0.49385   0.00000  Uiso   1.00
C84    C     0.51812   0.14839   0.12882   0.00000  Uiso   1.00
C85    C     0.48108   0.18428   0.37146   0.00000  Uiso   1.00
C86    C     0.52323   0.08111   0.02092   0.00000  Uiso   1.00
C87    C     0.52572   0.13792   0.07968   0.00000  Uiso   1.00
C88    C     0.45196   0.22539   0.44639   0.00000  Uiso   1.00
C89    C     0.56124   0.01477   0.22320   0.00000  Uiso   1.00
C90    C     0.59889   0.32331   0.20313   0.00000  Uiso   1.00
C91    C     0.43621   0.32384   0.27867   0.00000  Uiso   1.00
C92    C     0.40047   0.01815   0.28770   0.00000  Uiso   1.00
C93    C     0.53752   0.21199   0.05816   0.00000  Uiso   1.00
C94    C     0.46112   0.20423   0.01556   0.00000  Uiso   1.00
C95    C     0.56805   0.22879   0.01534   0.00000  Uiso   1.00
C96    C     0.48391   0.17225   0.49121   0.00000  Uiso   1.00
C97    C     0.48005   0.16012   0.44681   0.00000  Uiso   1.00
C98    C     0.50542   0.14899   0.01208   0.00000  Uiso   1.00
C99    C     0.51256   0.10773   0.49339   0.00000  Uiso   1.00
C100   C     0.50557   0.09450   0.44982   0.00000  Uiso   1.00
C101   C     0.48518   0.11874   0.42958   0.00000  Uiso   1.00
H102   H     0.53067   0.07475   0.08692   0.00000  Uiso   1.00
H103   H     0.36939   0.00009   0.30328   0.00000  Uiso   1.00
H104   H     0.42882   0.29865   0.25301   0.00000  Uiso   1.00
H105   H     0.43343   0.31047   0.31102   0.00000  Uiso   1.00
H106   H     0.58364   0.26038   0.02387   0.00000  Uiso   1.00
H107   H     0.59338   0.20835   0.00098   0.00000  Uiso   1.00
H108   H     0.55075   0.23127   0.48937   0.00000  Uiso   1.00
H109   H     0.55675   0.21690   0.08356   0.00000  Uiso   1.00
H110   H     0.51165   0.23167   0.07175   0.00000  Uiso   1.00
H111   H     0.45394   0.20786   0.05208   0.00000  Uiso   1.00
H112   H     0.60257   0.30326   0.22816   0.00000  Uiso   1.00
H113   H     0.59486   0.30459   0.17147   0.00000  Uiso   1.00
H114   H     0.62890   0.01188   0.19428   0.00000  Uiso   1.00
H115   H     0.55885   0.03380   0.19660   0.00000  Uiso   1.00
H116   H     0.57039   0.03622   0.25104   0.00000  Uiso   1.00
H117   H     0.40614   0.04563   0.31133   0.00000  Uiso   1.00
H118   H     0.39767   0.02829   0.25554   0.00000  Uiso   1.00
I119   I     0.64145   0.10379   0.30055   0.00000  Uiso   1.00
I120   I     0.53755   0.04803   0.40395   0.00000  Uiso   1.00
I121   I     0.52077   0.01520   0.01082   0.00000  Uiso   1.00
I122   I     0.43696   0.27435   0.41495   0.00000  Uiso   1.00
I123   I     0.40800   0.27491   0.03613   0.00000  Uiso   1.00
I124   I     0.44358   0.08557   0.38979   0.00000  Uiso   1.00
I125   I     0.36731   0.22412   0.19764   0.00000  Uiso   1.00
O126   O     0.50000   0.16667   0.25000   0.00000  Uiso   1.00
O127   O     0.48784   0.12637   0.15459   0.00000  Uiso   1.00
O128   O     0.46274   0.20391   0.34968   0.00000  Uiso   1.00
O129   O     0.54157   0.17759   0.14606   0.00000  Uiso   1.00
O130   O     0.50785   0.15880   0.34968   0.00000  Uiso   1.00
O131   O     0.51264   0.08019   0.28214   0.00000  Uiso   1.00
O132   O     0.47965   0.26085   0.27014   0.00000  Uiso   1.00
O133   O     0.40745   0.13291   0.23413   0.00000  Uiso   1.00
O134   O     0.60026   0.19272   0.21361   0.00000  Uiso   1.00
O135   O     0.40405   0.18878   0.28213   0.00000  Uiso   1.00
O136   O     0.58824   0.15226   0.27014   0.00000  Uiso   1.00
O137   O     0.47093   0.06944   0.23413   0.00000  Uiso   1.00
O138   O     0.53678   0.25620   0.21361   0.00000  Uiso   1.00
Zn139  Zn    0.52672   0.13994   0.28734   0.00000  Uiso   1.00
Zn140  Zn    0.46713   0.12458   0.21876   0.00000  Uiso   1.00
Zn141  Zn    0.54389   0.19775   0.20657   0.00000  Uiso   1.00
Zn142  Zn    0.46226   0.20439   0.28734   0.00000  Uiso   1.00
C143   C     0.71965   0.15960   0.25944   0.00000  Uiso   1.00
C144   C     0.85395   0.16587   0.05092   0.00000  Uiso   1.00
C145   C     0.86076   0.09621   0.06418   0.00000  Uiso   1.00
C146   C     0.94739   0.17385   0.24026   0.00000  Uiso   1.00
C147   C     0.80324   0.18959   0.42199   0.00000  Uiso   1.00
C148   C     0.99284   0.17842   0.23872   0.00000  Uiso   1.00
C149   C     0.67471   0.15522   0.26295   0.00000  Uiso   1.00
C150   C     0.85016   0.32382   0.24226   0.00000  Uiso   1.00
C151   C     0.81590   0.01158   0.26184   0.00000  Uiso   1.00
C152   C     0.82197   0.05600   0.26030   0.00000  Uiso   1.00
C153   C     0.84401   0.27822   0.24120   0.00000  Uiso   1.00
C154   C     0.77768   0.22996   0.49385   0.00000  Uiso   1.00
C155   C     0.85145   0.14839   0.12882   0.00000  Uiso   1.00
C156   C     0.81442   0.18428   0.37146   0.00000  Uiso   1.00
C157   C     0.85657   0.08111   0.02092   0.00000  Uiso   1.00
C158   C     0.85905   0.13792   0.07968   0.00000  Uiso   1.00
C159   C     0.78529   0.22539   0.44639   0.00000  Uiso   1.00
C160   C     0.89457   0.01477   0.22320   0.00000  Uiso   1.00
C161   C     0.93222   0.32331   0.20313   0.00000  Uiso   1.00
C162   C     0.76954   0.32384   0.27867   0.00000  Uiso   1.00
C163   C     0.73380   0.01815   0.28770   0.00000  Uiso   1.00
C164   C     0.87086   0.21199   0.05816   0.00000  Uiso   1.00
C165   C     0.79445   0.20423   0.01556   0.00000  Uiso   1.00
C166   C     0.90139   0.22879   0.01534   0.00000  Uiso   1.00
C167   C     0.81725   0.17225   0.49121   0.00000  Uiso   1.00
C168   C     0.81338   0.16012   0.44681   0.00000  Uiso   1.00
C169   C     0.83875   0.14899   0.01208   0.00000  Uiso   1.00
C170   C     0.84589   0.10773   0.49339   0.00000  Uiso   1.00
C171   C     0.83890   0.09450   0.44982   0.00000  Uiso   1.00
C172   C     0.81851   0.11874   0.42958   0.00000  Uiso   1.00
H173   H     0.86401   0.07475   0.08692   0.00000  Uiso   1.00
H174   H     0.70273   0.00009   0.30328   0.00000  Uiso   1.00
H175   H     0.76215   0.29865   0.25301   0.00000  Uiso   1.00
H176   H     0.76677   0.31047   0.31102   0.00000  Uiso   1.00
H177   H     0.91698   0.26038   0.02387   0.00000  Uiso   1.00
H178   H     0.92671   0.20835   0.00098   0.00000  Uiso   1.00
H179   H     0.88408   0.23127   0.48937   0.00000  Uiso   1.00
H180   H     0.89008   0.21690   0.08356   0.00000  Uiso   1.00
H181   H     0.84498   0.23167   0.07175   0.00000  Uiso   1.00
H182   H     0.78728   0.20786   0.05208   0.00000  Uiso   1.00
H183   H     0.93591   0.30326   0.22816   0.00000  Uiso   1.00
H184   H     0.92820   0.30459   0.17147   0.00000  Uiso   1.00
H185   H     0.96223   0.01188   0.19428   0.00000  Uiso   1.00
H186   H     0.89218   0.03380   0.19660   0.00000  Uiso   1.00
H187   H     0.90372   0.03622   0.25104   0.00000  Uiso   1.00
H188   H     0.73948   0.04563   0.31133   0.00000  Uiso   1.00
H189   H     0.73101   0.02829   0.25554   0.00000  Uiso   1.00
I190   I     0.97478   0.10379   0.30055   0.00000  Uiso   1.00
I191   I     0.87089   0.04803   0.40395   0.00000  Uiso   1.00
I192   I     0.85411   0.01520   0.01082   0.00000  Uiso   1.00
I193   I     0.77029   0.27435   0.41495   0.00000  Uiso   1.00
I194   I     0.74133   0.27491   0.03613   0.00000  Uiso   1.00
I195   I     0.77692   0.08557   0.38979   0.00000  Uiso   1.00
I196   I     0.70065   0.22412   0.19764   0.00000  Uiso   1.00
O197   O     0.83333   0.16667   0.25000   0.00000  Uiso   1.00
O198   O     0.82118   0.12637   0.15459   0.00000  Uiso   1.00
O199   O     0.79607   0.20391   0.34968   0.00000  Uiso   1.00
O200   O     0.87491   0.17759   0.14606   0.00000  Uiso   1.00
O201   O     0.84118   0.15880   0.34968   0.00000  Uiso   1.00
O202   O     0.84597   0.08019   0.28214   0.00000  Uiso   1.00
O203   O     0.81298   0.26085   0.27014   0.00000  Uiso   1.00
O204   O     0.74078   0.13291   0.23413   0.00000  Uiso   1.00
O205   O     0.93360   0.19272   0.21361   0.00000  Uiso   1.00
O206   O     0.73738   0.18878   0.28213   0.00000  Uiso   1.00
O207   O     0.92158   0.15226   0.27014   0.00000  Uiso   1.00
O208   O     0.80426   0.06944   0.23413   0.00000  Uiso   1.00
O209   O     0.87012   0.25620   0.21361   0.00000  Uiso   1.00
Zn210  Zn    0.86005   0.13994   0.28734   0.00000  Uiso   1.00
Zn211  Zn    0.80046   0.12458   0.21876   0.00000  Uiso   1.00
Zn212  Zn    0.87723   0.19775   0.20657   0.00000  Uiso   1.00
Zn213  Zn    0.79560   0.20439   0.28734   0.00000  Uiso   1.00
C214   C     0.05299   0.49293   0.25944   0.00000  Uiso   1.00
C215   C     0.18728   0.49920   0.05092   0.00000  Uiso   1.00
C216   C     0.19409   0.42954   0.06418   0.00000  Uiso   1.00
C217   C     0.28072   0.50718   0.24026   0.00000  Uiso   1.00
C218   C     0.13657   0.52293   0.42199   0.00000  Uiso   1.00
C219   C     0.32617   0.51176   0.23872   0.00000  Uiso   1.00
C220   C     0.00804   0.48855   0.26295   0.00000  Uiso   1.00
C221   C     0.18349   0.65715   0.24226   0.00000  Uiso   1.00
C222   C     0.14923   0.34491   0.26184   0.00000  Uiso   1.00
C223   C     0.15530   0.38933   0.26030   0.00000  Uiso   1.00
C224   C     0.17734   0.61155   0.24120   0.00000  Uiso   1.00
C225   C     0.11101   0.56329   0.49385   0.00000  Uiso   1.00
C226   C     0.18478   0.48173   0.12882   0.00000  Uiso   1.00
C227   C     0.14775   0.51761   0.37146   0.00000  Uiso   1.00
C228   C     0.18990   0.41444   0.02092   0.00000  Uiso   1.00
C229   C     0.19239   0.47125   0.07968   0.00000  Uiso   1.00
C230   C     0.11862   0.55872   0.44639   0.00000  Uiso   1.00
C231   C     0.22790   0.34810   0.22320   0.00000  Uiso   1.00
C232   C     0.26556   0.65665   0.20313   0.00000  Uiso   1.00
C233   C     0.10287   0.65717   0.27867   0.00000  Uiso   1.00
C234   C     0.06714   0.35148   0.28770   0.00000  Uiso   1.00
C235   C     0.20419   0.54533   0.05816   0.00000  Uiso   1.00
C236   C     0.12778   0.53756   0.01556   0.00000  Uiso   1.00
C237   C     0.23472   0.56212   0.01534   0.00000  Uiso   1.00
C238   C     0.15058   0.50558   0.49121   0.00000  Uiso   1.00
C239   C     0.14671   0.49345   0.44681   0.00000  Uiso   1.00
C240   C     0.17209   0.48232   0.01208   0.00000  Uiso   1.00
C241   C     0.17923   0.44106   0.49339   0.00000  Uiso   1.00
C242   C     0.17224   0.42783   0.44982   0.00000  Uiso   1.00
C243   C     0.15184   0.45208   0.42958   0.00000  Uiso   1.00
H244   H     0.19734   0.40808   0.08692   0.00000  Uiso   1.00
H245   H     0.03606   0.33342   0.30328   0.00000  Uiso   1.00
H246   H     0.09548   0.63198   0.25301   0.00000  Uiso   1.00
H247   H     0.10010   0.64381   0.31102   0.00000  Uiso   1.00
H248   H     0.25031   0.59371   0.02387   0.00000  Uiso   1.00
H249   H     0.26005   0.54168   0.00098   0.00000  Uiso   1.00
H250   H     0.21742   0.56461   0.48937   0.00000  Uiso   1.00
H251   H     0.22341   0.55023   0.08356   0.00000  Uiso   1.00
H252   H     0.17832   0.56500   0.07175   0.00000  Uiso   1.00
H253   H     0.12061   0.54119   0.05208   0.00000  Uiso   1.00
H254   H     0.26924   0.63659   0.22816   0.00000  Uiso   1.00
H255   H     0.26153   0.63793   0.17147   0.00000  Uiso   1.00
H256   H     0.29556   0.34521   0.19428   0.00000  Uiso   1.00
H257   H     0.22551   0.36713   0.19660   0.00000  Uiso   1.00
H258   H     0.23705   0.36956   0.25104   0.00000  Uiso   1.00
H259   H     0.07281   0.37897   0.31133   0.00000  Uiso   1.00
H260   H     0.06434   0.36163   0.25554   0.00000  Uiso   1.00
I261   I     0.30811   0.43713   0.30055   0.00000  Uiso   1.00
I262   I     0.20422   0.38137   0.40395   0.00000  Uiso   1.00
I263   I     0.18744   0.34854   0.01082   0.00000  Uiso   1.00
I264   I     0.10362   0.60768   0.41495   0.00000  Uiso   1.00
I265   I     0.07467   0.60825   0.03613   0.00000  Uiso   1.00
I266   I     0.11025   0.41890   0.38979   0.00000  Uiso   1.00
I267   I     0.03398   0.55746   0.19764   0.00000  Uiso   1.00
O268   O     0.16667   0.50000   0.25000   0.00000  Uiso   1.00
O269   O     0.15451   0.45970   0.15459   0.00000  Uiso   1.00
O270   O     0.12940   0.53724   0.34968   0.00000  Uiso   1.00
O271   O     0.20824   0.51092   0.14606   0.00000  Uiso   1.00
O272   O     0.17451   0.49213   0.34968   0.00000  Uiso   1.00
O273   O     0.17930   0.41352   0.28214   0.00000  Uiso   1.00
O274   O     0.14632   0.59418   0.27014   0.00000  Uiso   1.00
O275   O     0.07412   0.46625   0.23413   0.00000  Uiso   1.00
O276   O     0.26693   0.52605   0.21361   0.00000  Uiso   1.00
O277   O     0.07071   0.52211   0.28213   0.00000  Uiso   1.00
O278   O     0.25491   0.48559   0.27014   0.00000  Uiso   1.00
O279   O     0.13760   0.40277   0.23413   0.00000  Uiso   1.00
O280   O     0.20345   0.58953   0.21361   0.00000  Uiso   1.00
Zn281  Zn    0.19338   0.47327   0.28734   0.00000  Uiso   1.00
Zn282  Zn    0.13379   0.45791   0.21876   0.00000  Uiso   1.00
Zn283  Zn    0.21056   0.53109   0.20657   0.00000  Uiso   1.00
Zn284  Zn    0.12893   0.53773   0.28734   0.00000  Uiso   1.00
C285   C     0.38632   0.49293   0.25944   0.00000  Uiso   1.00
C286   C     0.52061   0.49920   0.05092   0.00000  Uiso   1.00
C287   C     0.52742   0.42954   0.06418   0.00000  Uiso   1.00
C288   C     0.61406   0.50718   0.24026   0.00000  Uiso   1.00
C289   C     0.46990   0.52293   0.42199   0.00000  Uiso   1.00
C290   C     0.65951   0.51176   0.23872   0.00000  Uiso   1.00
C291   C     0.34137   0.48855   0.26295   0.00000  Uiso   1.00
C292   C     0.51682   0.65715   0.24226   0.00000  Uiso   1.00
C293   C     0.48256   0.34491   0.26184   0.00000  Uiso   1.00
C294   C     0.48864   0.38933   0.26030   0.00000  Uiso   1.00
C295   C     0.51068   0.61155   0.24120   0.00000  Uiso   1.00
C296   C     0.44435   0.56329   0.49385   0.00000  Uiso   1.00
C297   C     0.51812   0.48173   0.12882   0.00000  Uiso   1.00
C298   C     0.48108   0.51761   0.37146   0.00000  Uiso   1.00
C299   C     0.52323   0.41444   0.02092   0.00000  Uiso   1.00
C300   C     0.52572   0.47125   0.07968   0.00000  Uiso   1.00
C301   C     0.45196   0.55872   0.44639   0.00000  Uiso   1.00
C302   C     0.56124   0.34810   0.22320   0.00000  Uiso   1.00
C303   C     0.59889   0.65665   0.20313   0.00000  Uiso   1.00
C304   C     0.43621   0.65717   0.27867   0.00000  Uiso   1.00
C305   C     0.40047   0.35148   0.28770   0.00000  Uiso   1.00
C306   C     0.53752   0.54533   0.05816   0.00000  Uiso   1.00
C307   C     0.46112   0.53756   0.01556   0.00000  Uiso   1.00
C308   C     0.56805   0.56212   0.01534   0.00000  Uiso   1.00
C309   C     0.48391   0.50558   0.49121   0.00000  Uiso   1.00
C310   C     0.48005   0.49345   0.44681   0.00000  Uiso   1.00
C311   C     0.50542   0.48232   0.01208   0.00000  Uiso   1.00
C312   C     0.51256   0.44106   0.49339   0.00000  Uiso   1.00
C313   C     0.50557   0.42783   0.44982   0.00000  Uiso   1.00
C314   C     0.48518   0.45208   0.42958   0.00000  Uiso   1.00
H315   H     0.53067   0.40808   0.08692   0.00000  Uiso   1.00
H316   H     0.36939   0.33342   0.30328   0.00000  Uiso   1.00
H317   H     0.42882   0.63198   0.25301   0.00000  Uiso   1.00
H318   H     0.43343   0.64381   0.31102   0.00000  Uiso   1.00
H319   H     0.58364   0.59371   0.02387   0.00000  Uiso   1.00
H320   H     0.59338   0.54168   0.00098   0.00000  Uiso   1.00
H321   H     0.55075   0.56461   0.48937   0.00000  Uiso   1.00
H322   H     0.55675   0.55023   0.08356   0.00000  Uiso   1.00
H323   H     0.51165   0.56500   0.07175   0.00000  Uiso   1.00
H324   H     0.45394   0.54119   0.05208   0.00000  Uiso   1.00
H325   H     0.60257   0.63659   0.22816   0.00000  Uiso   1.00
H326   H     0.59486   0.63793   0.17147   0.00000  Uiso   1.00
H327   H     0.62890   0.34521   0.19428   0.00000  Uiso   1.00
H328   H     0.55885   0.36713   0.19660   0.00000  Uiso   1.00
H329   H     0.57039   0.36956   0.25104   0.00000  Uiso   1.00
H330   H     0.40614   0.37897   0.31133   0.00000  Uiso   1.00
H331   H     0.39767   0.36163   0.25554   0.00000  Uiso   1.00
I332   I     0.64145   0.43713   0.30055   0.00000  Uiso   1.00
I333   I     0.53755   0.38137   0.40395   0.00000  Uiso   1.00
I334   I     0.52077   0.34854   0.01082   0.00000  Uiso   1.00
I335   I     0.43696   0.60768   0.41495   0.00000  Uiso   1.00
I336   I     0.40800   0.60825   0.03613   0.00000  Uiso   1.00
I337   I     0.44358   0.41890   0.38979   0.00000  Uiso   1.00
I338   I     0.36731   0.55746   0.19764   0.00000  Uiso   1.00
O339   O     0.50000   0.50000   0.25000   0.00000  Uiso   1.00
O340   O     0.48784   0.45970   0.15459   0.00000  Uiso   1.00
O341   O     0.46274   0.53724   0.34968   0.00000  Uiso   1.00
O342   O     0.54157   0.51092   0.14606   0.00000  Uiso   1.00
O343   O     0.50785   0.49213   0.34968   0.00000  Uiso   1.00
O344   O     0.51264   0.41352   0.28214   0.00000  Uiso   1.00
O345   O     0.47965   0.59418   0.27014   0.00000  Uiso   1.00
O346   O     0.40745   0.46625   0.23413   0.00000  Uiso   1.00
O347   O     0.60026   0.52605   0.21361   0.00000  Uiso   1.00
O348   O     0.40405   0.52211   0.28213   0.00000  Uiso   1.00
O349   O     0.58824   0.48559   0.27014   0.00000  Uiso   1.00
O350   O     0.47093   0.40277   0.23413   0.00000  Uiso   1.00
O351   O     0.53678   0.58953   0.21361   0.00000  Uiso   1.00
Zn352  Zn    0.52672   0.47327   0.28734   0.00000  Uiso   1.00
Zn353  Zn    0.46713   0.45791   0.21876   0.00000  Uiso   1.00
Zn354  Zn    0.54389   0.53109   0.20657   0.00000  Uiso   1.00
Zn355  Zn    0.46226   0.53773   0.28734   0.00000  Uiso   1.00
C356   C     0.71965   0.49293   0.25944   0.00000  Uiso   1.00
C357   C     0.85395   0.49920   0.05092   0.00000  Uiso   1.00
C358   C     0.86076   0.42954   0.06418   0.00000  Uiso   1.00
C359   C     0.94739   0.50718   0.24026   0.00000  Uiso   1.00
C360   C     0.80324   0.52293   0.42199   0.00000  Uiso   1.00
C361   C     0.99284   0.51176   0.23872   0.00000  Uiso   1.00
C362   C     0.67471   0.48855   0.26295   0.00000  Uiso   1.00
C363   C     0.85016   0.65715   0.24226   0.00000  Uiso   1.00
C364   C     0.81590   0.34491   0.26184   0.00000  Uiso   1.00
C365   C     0.82197   0.38933   0.26030   0.00000  Uiso   1.00
C366   C     0.84401   0.61155   0.24120   0.00000  Uiso   1.00
C367   C     0.77768   0.56329   0.49385   0.00000  Uiso   1.00
C368   C     0.85145   0.48173   0.12882   0.00000  Uiso   1.00
C369   C     0.81442   0.51761   0.37146   0.00000  Uiso   1.00
C370   C     0.85657   0.41444   0.02092   0.00000  Uiso   1.00
C371   C     0.85905   0.47125   0.07968   0.00000  Uiso   1.00
C372   C     0.78529   0.55872   0.44639   0.00000  Uiso   1.00
C373   C     0.89457   0.34810   0.22320   0.00000  Uiso   1.00
C374   C     0.93222   0.65665   0.20313   0.00000  Uiso   1.00
C375   C     0.76954   0.65717   0.27867   0.00000  Uiso   1.00
C376   C     0.73380   0.35148   0.28770   0.00000  Uiso   1.00
C377   C     0.87086   0.54533   0.05816   0.00000  Uiso   1.00
C378   C     0.79445   0.53756   0.01556   0.00000  Uiso   1.00
C379   C     0.90139   0.56212   0.01534   0.00000  Uiso   1.00
C380   C     0.81725   0.50558   0.49121   0.00000  Uiso   1.00
C381   C     0.81338   0.49345   0.44681   0.00000  Uiso   1.00
C382   C     0.83875   0.48232   0.01208   0.00000  Uiso   1.00
C383   C     0.84589   0.44106   0.49339   0.00000  Uiso   1.00
C384   C     0.83890   0.42783   0.44982   0.00000  Uiso   1.00
C385   C     0.81851   0.45208   0.42958   0.00000  Uiso   1.00
H386   H     0.86401   0.40808   0.08692   0.00000  Uiso   1.00
H387   H     0.70273   0.33342   0.30328   0.00000  Uiso   1.00
H388   H     0.76215   0.63198   0.25301   0.00000  Uiso   1.00
H389   H     0.76677   0.64381   0.31102   0.00000  Uiso   1.00
H390   H     0.91698   0.59371   0.02387   0.00000  Uiso   1.00
H391   H     0.92671   0.54168   0.00098   0.00000  Uiso   1.00
H392   H     0.88408   0.56461   0.48937   0.00000  Uiso   1.00
H393   H     0.89008   0.55023   0.08356   0.00000  Uiso   1.00
H394   H     0.84498   0.56500   0.07175   0.00000  Uiso   1.00
H395   H     0.78728   0.54119   0.05208   0.00000  Uiso   1.00
H396   H     0.93591   0.63659   0.22816   0.00000  Uiso   1.00
H397   H     0.92820   0.63793   0.17147   0.00000  Uiso   1.00
H398   H     0.96223   0.34521   0.19428   0.00000  Uiso   1.00
H399   H     0.89218   0.36713   0.19660   0.00000  Uiso   1.00
H400   H     0.90372   0.36956   0.25104   0.00000  Uiso   1.00
H401   H     0.73948   0.37897   0.31133   0.00000  Uiso   1.00
H402   H     0.73101   0.36163   0.25554   0.00000  Uiso   1.00
I403   I     0.97478   0.43713   0.30055   0.00000  Uiso   1.00
I404   I     0.87089   0.38137   0.40395   0.00000  Uiso   1.00
I405   I     0.85411   0.34854   0.01082   0.00000  Uiso   1.00
I406   I     0.77029   0.60768   0.41495   0.00000  Uiso   1.00
I407   I     0.74133   0.60825   0.03613   0.00000  Uiso   1.00
I408   I     0.77692   0.41890   0.38979   0.00000  Uiso   1.00
I409   I     0.70065   0.55746   0.19764   0.00000  Uiso   1.00
O410   O     0.83333   0.50000   0.25000   0.00000  Uiso   1.00
O411   O     0.82118   0.45970   0.15459   0.00000  Uiso   1.00
O412   O     0.79607   0.53724   0.34968   0.00000  Uiso   1.00
O413   O     0.87491   0.51092   0.14606   0.00000  Uiso   1.00
O414   O     0.84118   0.49213   0.34968   0.00000  Uiso   1.00
O415   O     0.84597   0.41352   0.28214   0.00000  Uiso   1.00
O416   O     0.81298   0.59418   0.27014   0.00000  Uiso   1.00
O417   O     0.74078   0.46625   0.23413   0.00000  Uiso   1.00
O418   O     0.93360   0.52605   0.21361   0.00000  Uiso   1.00
O419   O     0.73738   0.52211   0.28213   0.00000  Uiso   1.00
O420   O     0.92158   0.48559   0.27014   0.00000  Uiso   1.00
O421   O     0.80426   0.40277   0.23413   0.00000  Uiso   1.00
O422   O     0.87012   0.58953   0.21361   0.00000  Uiso   1.00
Zn423  Zn    0.86005   0.47327   0.28734   0.00000  Uiso   1.00
Zn424  Zn    0.80046   0.45791   0.21876   0.00000  Uiso   1.00
Zn425  Zn    0.87723   0.53109   0.20657   0.00000  Uiso   1.00
Zn426  Zn    0.79560   0.53773   0.28734   0.00000  Uiso   1.00
C427   C     0.05299   0.82626   0.25944   0.00000  Uiso   1.00
C428   C     0.18728   0.83254   0.05092   0.00000  Uiso   1.00
C429   C     0.19409   0.76287   0.06418   0.00000  Uiso   1.00
C430   C     0.28072   0.84051   0.24026   0.00000  Uiso   1.00
C431   C     0.13657   0.85626   0.42199   0.00000  Uiso   1.00
C432   C     0.32617   0.84509   0.23872   0.00000  Uiso   1.00
C433   C     0.00804   0.82188   0.26295   0.00000  Uiso   1.00
C434   C     0.18349   0.99049   0.24226   0.00000  Uiso   1.00
C435   C     0.14923   0.67825   0.26184   0.00000  Uiso   1.00
C436   C     0.15530   0.72267   0.26030   0.00000  Uiso   1.00
C437   C     0.17734   0.94489   0.24120   0.00000  Uiso   1.00
C438   C     0.11101   0.89662   0.49385   0.00000  Uiso   1.00
C439   C     0.18478   0.81506   0.12882   0.00000  Uiso   1.00
C440   C     0.14775   0.85094   0.37146   0.00000  Uiso   1.00
C441   C     0.18990   0.74778   0.02092   0.00000  Uiso   1.00
C442   C     0.19239   0.80459   0.07968   0.00000  Uiso   1.00
C443   C     0.11862   0.89206   0.44639   0.00000  Uiso   1.00
C444   C     0.22790   0.68143   0.22320   0.00000  Uiso   1.00
C445   C     0.26556   0.98998   0.20313   0.00000  Uiso   1.00
C446   C     0.10287   0.99051   0.27867   0.00000  Uiso   1.00
C447   C     0.06714   0.68481   0.28770   0.00000  Uiso   1.00
C448   C     0.20419   0.87866   0.05816   0.00000  Uiso   1.00
C449   C     0.12778   0.87089   0.01556   0.00000  Uiso   1.00
C450   C     0.23472   0.89546   0.01534   0.00000  Uiso   1.00
C451   C     0.15058   0.83892   0.49121   0.00000  Uiso   1.00
C452   C     0.14671   0.82678   0.44681   0.00000  Uiso   1.00
C453   C     0.17209   0.81566   0.01208   0.00000  Uiso   1.00
C454   C     0.17923   0.77440   0.49339   0.00000  Uiso   1.00
C455   C     0.17224   0.76116   0.44982   0.00000  Uiso   1.00
C456   C     0.15184   0.78541   0.42958   0.00000  Uiso   1.00
H457   H     0.19734   0.74142   0.08692   0.00000  Uiso   1.00
H458   H     0.03606   0.66675   0.30328   0.00000  Uiso   1.00
H459   H     0.09548   0.96531   0.25301   0.00000  Uiso   1.00
H460   H     0.10010   0.97714   0.31102   0.00000  Uiso   1.00
H461   H     0.25031   0.92705   0.02387   0.00000  Uiso   1.00
H462   H     0.26005   0.87502   0.00098   0.00000  Uiso   1.00
H463   H     0.21742   0.89794   0.48937   0.00000  Uiso   1.00
H464   H     0.22341   0.88356   0.08356   0.00000  Uiso   1.00
H465   H     0.17832   0.89834   0.07175   0.00000  Uiso   1.00
H466   H     0.12061   0.87452   0.05208   0.00000  Uiso   1.00
H467   H     0.26924   0.96993   0.22816   0.00000  Uiso   1.00
H468   H     0.26153   0.97126   0.17147   0.00000  Uiso   1.00
H469   H     0.29556   0.67854   0.19428   0.00000  Uiso   1.00
H470   H     0.22551   0.70046   0.19660   0.00000  Uiso   1.00
H471   H     0.23705   0.70289   0.25104   0.00000  Uiso   1.00
H472   H     0.07281   0.71230   0.31133   0.00000  Uiso   1.00
H473   H     0.06434   0.69496   0.25554   0.00000  Uiso   1.00
I474   I     0.30811   0.77046   0.30055   0.00000  Uiso   1.00
I475   I     0.20422   0.71470   0.40395   0.00000  Uiso   1.00
I476   I     0.18744   0.68187   0.01082   0.00000  Uiso   1.00
I477   I     0.10362   0.94101   0.41495   0.00000  Uiso   1.00
I478   I     0.07467   0.94158   0.03613   0.00000  Uiso   1.00
I479   I     0.11025   0.75224   0.38979   0.00000  Uiso   1.00
I480   I     0.03398   0.89079   0.19764   0.00000  Uiso   1.00
O481   O     0.16667   0.83333   0.25000   0.00000  Uiso   1.00
O482   O     0.15451   0.79304   0.15459   0.00000  Uiso   1.00
O483   O     0.12940   0.87058   0.34968   0.00000  Uiso   1.00
O484   O     0.20824   0.84425   0.14606   0.00000  Uiso   1.00
O485   O     0.17451   0.82546   0.34968   0.00000  Uiso   1.00
O486   O     0.17930   0.74686   0.28214   0.00000  Uiso   1.00
O487   O     0.14632   0.92751   0.27014   0.00000  Uiso   1.00
O488   O     0.07412   0.79958   0.23413   0.00000  Uiso   1.00
O489   O     0.26693   0.85939   0.21361   0.00000  Uiso   1.00
O490   O     0.07071   0.85544   0.28213   0.00000  Uiso   1.00
O491   O     0.25491   0.81892   0.27014   0.00000  Uiso   1.00
O492   O     0.13760   0.73610   0.23413   0.00000  Uiso   1.00
O493   O     0.20345   0.92286   0.21361   0.00000  Uiso   1.00
Zn494  Zn    0.19338   0.80661   0.28734   0.00000  Uiso   1.00
Zn495  Zn    0.13379   0.79124   0.21876   0.00000  Uiso   1.00
Zn496  Zn    0.21056   0.86442   0.20657   0.00000  Uiso   1.00
Zn497  Zn    0.12893   0.87106   0.28734   0.00000  Uiso   1.00
C498   C     0.38632   0.82626   0.25944   0.00000  Uiso   1.00
C499   C     0.52061   0.83254   0.05092   0.00000  Uiso   1.00
C500   C     0.52742   0.76287   0.06418   0.00000  Uiso   1.00
C501   C     0.61406   0.84051   0.24026   0.00000  Uiso   1.00
C502   C     0.46990   0.85626   0.42199   0.00000  Uiso   1.00
C503   C     0.65951   0.84509   0.23872   0.00000  Uiso   1.00
C504   C     0.34137   0.82188   0.26295   0.00000  Uiso   1.00
C505   C     0.51682   0.99049   0.24226   0.00000  Uiso   1.00
C506   C     0.48256   0.67825   0.26184   0.00000  Uiso   1.00
C507   C     0.48864   0.72267   0.26030   0.00000  Uiso   1.00
C508   C     0.51068   0.94489   0.24120   0.00000  Uiso   1.00
C509   C     0.44435   0.89662   0.49385   0.00000  Uiso   1.00
C510   C     0.51812   0.81506   0.12882   0.00000  Uiso   1.00
C511   C     0.48108   0.85094   0.37146   0.00000  Uiso   1.00
C512   C     0.52323   0.74778   0.02092   0.00000  Uiso   1.00
C513   C     0.52572   0.80459   0.07968   0.00000  Uiso   1.00
C514   C     0.45196   0.89206   0.44639   0.00000  Uiso   1.00
C515   C     0.56124   0.68143   0.22320   0.00000  Uiso   1.00
C516   C     0.59889   0.98998   0.20313   0.00000  Uiso   1.00
C517   C     0.43621   0.99051   0.27867   0.00000  Uiso   1.00
C518   C     0.40047   0.68481   0.28770   0.00000  Uiso   1.00
C519   C     0.53752   0.87866   0.05816   0.00000  Uiso   1.00
C520   C     0.46112   0.87089   0.01556   0.00000  Uiso   1.00
C521   C     0.56805   0.89546   0.01534   0.00000  Uiso   1.00
C522   C     0.48391   0.83892   0.49121   0.00000  Uiso   1.00
C523   C     0.48005   0.82678   0.44681   0.00000  Uiso   1.00
C524   C     0.50542   0.81566   0.01208   0.00000  Uiso   1.00
C525   C     0.51256   0.77440   0.49339   0.00000  Uiso   1.00
C526   C     0.50557   0.76116   0.44982   0.00000  Uiso   1.00
C527   C     0.48518   0.78541   0.42958   0.00000  Uiso   1.00
H528   H     0.53067   0.74142   0.08692   0.00000  Uiso   1.00
H529   H     0.36939   0.66675   0.30328   0.00000  Uiso   1.00
H530   H     0.42882   0.96531   0.25301   0.00000  Uiso   1.00
H531   H     0.43343   0.97714   0.31102   0.00000  Uiso   1.00
H532   H     0.58364   0.92705   0.02387   0.00000  Uiso   1.00
H533   H     0.59338   0.87502   0.00098   0.00000  Uiso   1.00
H534   H     0.55075   0.89794   0.48937   0.00000  Uiso   1.00
H535   H     0.55675   0.88356   0.08356   0.00000  Uiso   1.00
H536   H     0.51165   0.89834   0.07175   0.00000  Uiso   1.00
H537   H     0.45394   0.87452   0.05208   0.00000  Uiso   1.00
H538   H     0.60257   0.96993   0.22816   0.00000  Uiso   1.00
H539   H     0.59486   0.97126   0.17147   0.00000  Uiso   1.00
H540   H     0.62890   0.67854   0.19428   0.00000  Uiso   1.00
H541   H     0.55885   0.70046   0.19660   0.00000  Uiso   1.00
H542   H     0.57039   0.70289   0.25104   0.00000  Uiso   1.00
H543   H     0.40614   0.71230   0.31133   0.00000  Uiso   1.00
H544   H     0.39767   0.69496   0.25554   0.00000  Uiso   1.00
I545   I     0.64145   0.77046   0.30055   0.00000  Uiso   1.00
I546   I     0.53755   0.71470   0.40395   0.00000  Uiso   1.00
I547   I     0.52077   0.68187   0.01082   0.00000  Uiso   1.00
I548   I     0.43696   0.94101   0.41495   0.00000  Uiso   1.00
I549   I     0.40800   0.94158   0.03613   0.00000  Uiso   1.00
I550   I     0.44358   0.75224   0.38979   0.00000  Uiso   1.00
I551   I     0.36731   0.89079   0.19764   0.00000  Uiso   1.00
O552   O     0.50000   0.83333   0.25000   0.00000  Uiso   1.00
O553   O     0.48784   0.79304   0.15459   0.00000  Uiso   1.00
O554   O     0.46274   0.87058   0.34968   0.00000  Uiso   1.00
O555   O     0.54157   0.84425   0.14606   0.00000  Uiso   1.00
O556   O     0.50785   0.82546   0.34968   0.00000  Uiso   1.00
O557   O     0.51264   0.74686   0.28214   0.00000  Uiso   1.00
O558   O     0.47965   0.92751   0.27014   0.00000  Uiso   1.00
O559   O     0.40745   0.79958   0.23413   0.00000  Uiso   1.00
O560   O     0.60026   0.85939   0.21361   0.00000  Uiso   1.00
O561   O     0.40405   0.85544   0.28213   0.00000  Uiso   1.00
O562   O     0.58824   0.81892   0.27014   0.00000  Uiso   1.00
O563   O     0.47093   0.73610   0.23413   0.00000  Uiso   1.00
O564   O     0.53678   0.92286   0.21361   0.00000  Uiso   1.00
Zn565  Zn    0.52672   0.80661   0.28734   0.00000  Uiso   1.00
Zn566  Zn    0.46713   0.79124   0.21876   0.00000  Uiso   1.00
Zn567  Zn    0.54389   0.86442   0.20657   0.00000  Uiso   1.00
Zn568  Zn    0.46226   0.87106   0.28734   0.00000  Uiso   1.00
C569   C     0.71965   0.82626   0.25944   0.00000  Uiso   1.00
C570   C     0.85395   0.83254   0.05092   0.00000  Uiso   1.00
C571   C     0.86076   0.76287   0.06418   0.00000  Uiso   1.00
C572   C     0.94739   0.84051   0.24026   0.00000  Uiso   1.00
C573   C     0.80324   0.85626   0.42199   0.00000  Uiso   1.00
C574   C     0.99284   0.84509   0.23872   0.00000  Uiso   1.00
C575   C     0.67471   0.82188   0.26295   0.00000  Uiso   1.00
C576   C     0.85016   0.99049   0.24226   0.00000  Uiso   1.00
C577   C     0.81590   0.67825   0.26184   0.00000  Uiso   1.00
C578   C     0.82197   0.72267   0.26030   0.00000  Uiso   1.00
C579   C     0.84401   0.94489   0.24120   0.00000  Uiso   1.00
C580   C     0.77768   0.89662   0.49385   0.00000  Uiso   1.00
C581   C     0.85145   0.81506   0.12882   0.00000  Uiso   1.00
C582   C     0.81442   0.85094   0.37146   0.00000  Uiso   1.00
C583   C     0.85657   0.74778   0.02092   0.00000  Uiso   1.00
C584   C     0.85905   0.80459   0.07968   0.00000  Uiso   1.00
C585   C     0.78529   0.89206   0.44639   0.00000  Uiso   1.00
C586   C     0.89457   0.68143   0.22320   0.00000  Uiso   1.00
C587   C     0.93222   0.98998   0.20313   0.00000  Uiso   1.00
C588   C     0.76954   0.99051   0.27867   0.00000  Uiso   1.00
C589   C     0.73380   0.68481   0.28770   0.00000  Uiso   1.00
C590   C     0.87086   0.87866   0.05816   0.00000  Uiso   1.00
C591   C     0.79445   0.87089   0.01556   0.00000  Uiso   1.00
C592   C     0.90139   0.89546   0.01534   0.00000  Uiso   1.00
C593   C     0.81725   0.83892   0.49121   0.00000  Uiso   1.00
C594   C     0.81338   0.82678   0.44681   0.00000  Uiso   1.00
C595   C     0.83875   0.81566   0.01208   0.00000  Uiso   1.00
C596   C     0.84589   0.77440   0.49339   0.00000  Uiso   1.00
C597   C     0.83890   0.76116   0.44982   0.00000  Uiso   1.00
C598   C     0.81851   0.78541   0.42958   0.00000  Uiso   1.00
H599   H     0.86401   0.74142   0.08692   0.00000  Uiso   1.00
H600   H     0.70273   0.66675   0.30328   0.00000  Uiso   1.00
H601   H     0.76215   0.96531   0.25301   0.00000  Uiso   1.00
H602   H     0.76677   0.97714   0.31102   0.00000  Uiso   1.00
H603   H     0.91698   0.92705   0.02387   0.00000  Uiso   1.00
H604   H     0.92671   0.87502   0.00098   0.00000  Uiso   1.00
H605   H     0.88408   0.89794   0.48937   0.00000  Uiso   1.00
H606   H     0.89008   0.88356   0.08356   0.00000  Uiso   1.00
H607   H     0.84498   0.89834   0.07175   0.00000  Uiso   1.00
H608   H     0.78728   0.87452   0.05208   0.00000  Uiso   1.00
H609   H     0.93591   0.96993   0.22816   0.00000  Uiso   1.00
H610   H     0.92820   0.97126   0.17147   0.00000  Uiso   1.00
H611   H     0.96223   0.67854   0.19428   0.00000  Uiso   1.00
H612   H     0.89218   0.70046   0.19660   0.00000  Uiso   1.00
H613   H     0.90372   0.70289   0.25104   0.00000  Uiso   1.00
H614   H     0.73948   0.71230   0.31133   0.00000  Uiso   1.00
H615   H     0.73101   0.69496   0.25554   0.00000  Uiso   1.00
I616   I     0.97478   0.77046   0.30055   0.00000  Uiso   1.00
I617   I     0.87089   0.71470   0.40395   0.00000  Uiso   1.00
I618   I     0.85411   0.68187   0.01082   0.00000  Uiso   1.00
I619   I     0.77029   0.94101   0.41495   0.00000  Uiso   1.00
I620   I     0.74133   0.94158   0.03613   0.00000  Uiso   1.00
I621   I     0.77692   0.75224   0.38979   0.00000  Uiso   1.00
I622   I     0.70065   0.89079   0.19764   0.00000  Uiso   1.00
O623   O     0.83333   0.83333   0.25000   0.00000  Uiso   1.00
O624   O     0.82118   0.79304   0.15459   0.00000  Uiso   1.00
O625   O     0.79607   0.87058   0.34968   0.00000  Uiso   1.00
O626   O     0.87491   0.84425   0.14606   0.00000  Uiso   1.00
O627   O     0.84118   0.82546   0.34968   0.00000  Uiso   1.00
O628   O     0.84597   0.74686   0.28214   0.00000  Uiso   1.00
O629   O     0.81298   0.92751   0.27014   0.00000  Uiso   1.00
O630   O     0.74078   0.79958   0.23413   0.00000  Uiso   1.00
O631   O     0.93360   0.85939   0.21361   0.00000  Uiso   1.00
O632   O     0.73738   0.85544   0.28213   0.00000  Uiso   1.00
O633   O     0.92158   0.81892   0.27014   0.00000  Uiso   1.00
O634   O     0.80426   0.73610   0.23413   0.00000  Uiso   1.00
O635   O     0.87012   0.92286   0.21361   0.00000  Uiso   1.00
Zn636  Zn    0.86005   0.80661   0.28734   0.00000  Uiso   1.00
Zn637  Zn    0.80046   0.79124   0.21876   0.00000  Uiso   1.00
Zn638  Zn    0.87723   0.86442   0.20657   0.00000  Uiso   1.00
Zn639  Zn    0.79560   0.87106   0.28734   0.00000  Uiso   1.00
C640   C     0.05299   0.15960   0.75944   0.00000  Uiso   1.00
C641   C     0.18728   0.16587   0.55092   0.00000  Uiso   1.00
C642   C     0.19409   0.09621   0.56418   0.00000  Uiso   1.00
C643   C     0.28072   0.17385   0.74026   0.00000  Uiso   1.00
C644   C     0.13657   0.18959   0.92199   0.00000  Uiso   1.00
C645   C     0.32617   0.17842   0.73872   0.00000  Uiso   1.00
C646   C     0.00804   0.15522   0.76295   0.00000  Uiso   1.00
C647   C     0.18349   0.32382   0.74226   0.00000  Uiso   1.00
C648   C     0.14923   0.01158   0.76184   0.00000  Uiso   1.00
C649   C     0.15530   0.05600   0.76030   0.00000  Uiso   1.00
C650   C     0.17734   0.27822   0.74120   0.00000  Uiso   1.00
C651   C     0.11101   0.22996   0.99385   0.00000  Uiso   1.00
C652   C     0.18478   0.14839   0.62882   0.00000  Uiso   1.00
C653   C     0.14775   0.18428   0.87146   0.00000  Uiso   1.00
C654   C     0.18990   0.08111   0.52092   0.00000  Uiso   1.00
C655   C     0.19239   0.13792   0.57968   0.00000  Uiso   1.00
C656   C     0.11862   0.22539   0.94639   0.00000  Uiso   1.00
C657   C     0.22790   0.01477   0.72320   0.00000  Uiso   1.00
C658   C     0.26556   0.32331   0.70313   0.00000  Uiso   1.00
C659   C     0.10287   0.32384   0.77867   0.00000  Uiso   1.00
C660   C     0.06714   0.01815   0.78770   0.00000  Uiso   1.00
C661   C     0.20419   0.21199   0.55816   0.00000  Uiso   1.00
C662   C     0.12778   0.20423   0.51556   0.00000  Uiso   1.00
C663   C     0.23472   0.22879   0.51534   0.00000  Uiso   1.00
C664   C     0.15058   0.17225   0.99121   0.00000  Uiso   1.00
C665   C     0.14671   0.16012   0.94681   0.00000  Uiso   1.00
C666   C     0.17209   0.14899   0.51208   0.00000  Uiso   1.00
C667   C     0.17923   0.10773   0.99339   0.00000  Uiso   1.00
C668   C     0.17224   0.09450   0.94982   0.00000  Uiso   1.00
C669   C     0.15184   0.11874   0.92958   0.00000  Uiso   1.00
H670   H     0.19734   0.07475   0.58692   0.00000  Uiso   1.00
H671   H     0.03606   0.00009   0.80328   0.00000  Uiso   1.00
H672   H     0.09548   0.29865   0.75301   0.00000  Uiso   1.00
H673   H     0.10010   0.31047   0.81102   0.00000  Uiso   1.00
H674   H     0.25031   0.26038   0.52387   0.00000  Uiso   1.00
H675   H     0.26005   0.20835   0.50098   0.00000  Uiso   1.00
H676   H     0.21742   0.23127   0.98937   0.00000  Uiso   1.00
H677   H     0.22341   0.21690   0.58356   0.00000  Uiso   1.00
H678   H     0.17832   0.23167   0.57175   0.00000  Uiso   1.00
H679   H     0.12061   0.20786   0.55208   0.00000  Uiso   1.00
H680   H     0.26924   0.30326   0.72816   0.00000  Uiso   1.00
H681   H     0.26153   0.30459   0.67147   0.00000  Uiso   1.00
H682   H     0.29556   0.01188   0.69428   0.00000  Uiso   1.00
H683   H     0.22551   0.03380   0.69660   0.00000  Uiso   1.00
H684   H     0.23705   0.03622   0.75104   0.00000  Uiso   1.00
H685   H     0.07281   0.04563   0.81133   0.00000  Uiso   1.00
H686   H     0.06434   0.02829   0.75554   0.00000  Uiso   1.00
I687   I     0.30811   0.10379   0.80055   0.00000  Uiso   1.00
I688   I     0.20422   0.04803   0.90395   0.00000  Uiso   1.00
I689   I     0.18744   0.01520   0.51082   0.00000  Uiso   1.00
I690   I     0.10362   0.27435   0.91495   0.00000  Uiso   1.00
I691   I     0.07467   0.27491   0.53613   0.00000  Uiso   1.00
I692   I     0.11025   0.08557   0.88979   0.00000  Uiso   1.00
I693   I     0.03398   0.22412   0.69764   0.00000  Uiso   1.00
O694   O     0.16667   0.16667   0.75000   0.00000  Uiso   1.00
O695   O     0.15451   0.12637   0.65459   0.00000  Uiso   1.00
O696   O     0.12940   0.20391   0.84968   0.00000  Uiso   1.00
O697   O     0.20824   0.17759   0.64606   0.00000  Uiso   1.00
O698   O     0.17451   0.15880   0.84968   0.00000  Uiso   1.00
O699   O     0.17930   0.08019   0.78214   0.00000  Uiso   1.00
O700   O     0.14632   0.26085   0.77014   0.00000  Uiso   1.00
O701   O     0.07412   0.13291   0.73413   0.00000  Uiso   1.00
O702   O     0.26693   0.19272   0.71361   0.00000  Uiso   1.00
O703   O     0.07071   0.18878   0.78213   0.00000  Uiso   1.00
O704   O     0.25491   0.15226   0.77014   0.00000  Uiso   1.00
O705   O     0.13760   0.06944   0.73413   0.00000  Uiso   1.00
O706   O     0.20345   0.25620   0.71361   0.00000  Uiso   1.00
Zn707  Zn    0.19338   0.13994   0.78734   0.00000  Uiso   1.00
Zn708  Zn    0.13379   0.12458   0.71876   0.00000  Uiso   1.00
Zn709  Zn    0.21056   0.19775   0.70657   0.00000  Uiso   1.00
Zn710  Zn    0.12893   0.20439   0.78734   0.00000  Uiso   1.00
C711   C     0.38632   0.15960   0.75944   0.00000  Uiso   1.00
C712   C     0.52061   0.16587   0.55092   0.00000  Uiso   1.00
C713   C     0.52742   0.09621   0.56418   0.00000  Uiso   1.00
C714   C     0.61406   0.17385   0.74026   0.00000  Uiso   1.00
C715   C     0.46990   0.18959   0.92199   0.00000  Uiso   1.00
C716   C     0.65951   0.17842   0.73872   0.00000  Uiso   1.00
C717   C     0.34137   0.15522   0.76295   0.00000  Uiso   1.00
C718   C     0.51682   0.32382   0.74226   0.00000  Uiso   1.00
C719   C     0.48256   0.01158   0.76184   0.00000  Uiso   1.00
C720   C     0.48864   0.05600   0.76030   0.00000  Uiso   1.00
C721   C     0.51068   0.27822   0.74120   0.00000  Uiso   1.00
C722   C     0.44435   0.22996   0.99385   0.00000  Uiso   1.00
C723   C     0.51812   0.14839   0.62882   0.00000  Uiso   1.00
C724   C     0.48108   0.18428   0.87146   0.00000  Uiso   1.00
C725   C     0.52323   0.08111   0.52092   0.00000  Uiso   1.00
C726   C     0.52572   0.13792   0.57968   0.00000  Uiso   1.00
C727   C     0.45196   0.22539   0.94639   0.00000  Uiso   1.00
C728   C     0.56124   0.01477   0.72320   0.00000  Uiso   1.00
C729   C     0.59889   0.32331   0.70313   0.00000  Uiso   1.00
C730   C     0.43621   0.32384   0.77867   0.00000  Uiso   1.00
C731   C     0.40047   0.01815   0.78770   0.00000  Uiso   1.00
C732   C     0.53752   0.21199   0.55816   0.00000  Uiso   1.00
C733   C     0.46112   0.20423   0.51556   0.00000  Uiso   1.00
C734   C     0.56805   0.22879   0.51534   0.00000  Uiso   1.00
C735   C     0.48391   0.17225   0.99121   0.00000  Uiso   1.00
C736   C     0.48005   0.16012   0.94681   0.00000  Uiso   1.00
C737   C     0.50542   0.14899   0.51208   0.00000  Uiso   1.00
C738   C     0.51256   0.10773   0.99339   0.00000  Uiso   1.00
C739   C     0.50557   0.09450   0.94982   0.00000  Uiso   1.00
C740   C     0.48518   0.11874   0.92958   0.00000  Uiso   1.00
H741   H     0.53067   0.07475   0.58692   0.00000  Uiso   1.00
H742   H     0.36939   0.00009   0.80328   0.00000  Uiso   1.00
H743   H     0.42882   0.29865   0.75301   0.00000  Uiso   1.00
H744   H     0.43343   0.31047   0.81102   0.00000  Uiso   1.00
H745   H     0.58364   0.26038   0.52387   0.00000  Uiso   1.00
H746   H     0.59338   0.20835   0.50098   0.00000  Uiso   1.00
H747   H     0.55075   0.23127   0.98937   0.00000  Uiso   1.00
H748   H     0.55675   0.21690   0.58356   0.00000  Uiso   1.00
H749   H     0.51165   0.23167   0.57175   0.00000  Uiso   1.00
H750   H     0.45394   0.20786   0.55208   0.00000  Uiso   1.00
H751   H     0.60257   0.30326   0.72816   0.00000  Uiso   1.00
H752   H     0.59486   0.30459   0.67147   0.00000  Uiso   1.00
H753   H     0.62890   0.01188   0.69428   0.00000  Uiso   1.00
H754   H     0.55885   0.03380   0.69660   0.00000  Uiso   1.00
H755   H     0.57039   0.03622   0.75104   0.00000  Uiso   1.00
H756   H     0.40614   0.04563   0.81133   0.00000  Uiso   1.00
H757   H     0.39767   0.02829   0.75554   0.00000  Uiso   1.00
I758   I     0.64145   0.10379   0.80055   0.00000  Uiso   1.00
I759   I     0.53755   0.04803   0.90395   0.00000  Uiso   1.00
I760   I     0.52077   0.01520   0.51082   0.00000  Uiso   1.00
I761   I     0.43696   0.27435   0.91495   0.00000  Uiso   1.00
I762   I     0.40800   0.27491   0.53613   0.00000  Uiso   1.00
I763   I     0.44358   0.08557   0.88979   0.00000  Uiso   1.00
I764   I     0.36731   0.22412   0.69764   0.00000  Uiso   1.00
O765   O     0.50000   0.16667   0.75000   0.00000  Uiso   1.00
O766   O     0.48784   0.12637   0.65459   0.00000  Uiso   1.00
O767   O     0.46274   0.20391   0.84968   0.00000  Uiso   1.00
O768   O     0.54157   0.17759   0.64606   0.00000  Uiso   1.00
O769   O     0.50785   0.15880   0.84968   0.00000  Uiso   1.00
O770   O     0.51264   0.08019   0.78214   0.00000  Uiso   1.00
O771   O     0.47965   0.26085   0.77014   0.00000  Uiso   1.00
O772   O     0.40745   0.13291   0.73413   0.00000  Uiso   1.00
O773   O     0.60026   0.19272   0.71361   0.00000  Uiso   1.00
O774   O     0.40405   0.18878   0.78213   0.00000  Uiso   1.00
O775   O     0.58824   0.15226   0.77014   0.00000  Uiso   1.00
O776   O     0.47093   0.06944   0.73413   0.00000  Uiso   1.00
O777   O     0.53678   0.25620   0.71361   0.00000  Uiso   1.00
Zn778  Zn    0.52672   0.13994   0.78734   0.00000  Uiso   1.00
Zn779  Zn    0.46713   0.12458   0.71876   0.00000  Uiso   1.00
Zn780  Zn    0.54389   0.19775   0.70657   0.00000  Uiso   1.00
Zn781  Zn    0.46226   0.20439   0.78734   0.00000  Uiso   1.00
C782   C     0.71965   0.15960   0.75944   0.00000  Uiso   1.00
C783   C     0.85395   0.16587   0.55092   0.00000  Uiso   1.00
C784   C     0.86076   0.09621   0.56418   0.00000  Uiso   1.00
C785   C     0.94739   0.17385   0.74026   0.00000  Uiso   1.00
C786   C     0.80324   0.18959   0.92199   0.00000  Uiso   1.00
C787   C     0.99284   0.17842   0.73872   0.00000  Uiso   1.00
C788   C     0.67471   0.15522   0.76295   0.00000  Uiso   1.00
C789   C     0.85016   0.32382   0.74226   0.00000  Uiso   1.00
C790   C     0.81590   0.01158   0.76184   0.00000  Uiso   1.00
C791   C     0.82197   0.05600   0.76030   0.00000  Uiso   1.00
C792   C     0.84401   0.27822   0.74120   0.00000  Uiso   1.00
C793   C     0.77768   0.22996   0.99385   0.00000  Uiso   1.00
C794   C     0.85145   0.14839   0.62882   0.00000  Uiso   1.00
C795   C     0.81442   0.18428   0.87146   0.00000  Uiso   1.00
C796   C     0.85657   0.08111   0.52092   0.00000  Uiso   1.00
C797   C     0.85905   0.13792   0.57968   0.00000  Uiso   1.00
C798   C     0.78529   0.22539   0.94639   0.00000  Uiso   1.00
C799   C     0.89457   0.01477   0.72320   0.00000  Uiso   1.00
C800   C     0.93222   0.32331   0.70313   0.00000  Uiso   1.00
C801   C     0.76954   0.32384   0.77867   0.00000  Uiso   1.00
C802   C     0.73380   0.01815   0.78770   0.00000  Uiso   1.00
C803   C     0.87086   0.21199   0.55816   0.00000  Uiso   1.00
C804   C     0.79445   0.20423   0.51556   0.00000  Uiso   1.00
C805   C     0.90139   0.22879   0.51534   0.00000  Uiso   1.00
C806   C     0.81725   0.17225   0.99121   0.00000  Uiso   1.00
C807   C     0.81338   0.16012   0.94681   0.00000  Uiso   1.00
C808   C     0.83875   0.14899   0.51208   0.00000  Uiso   1.00
C809   C     0.84589   0.10773   0.99339   0.00000  Uiso   1.00
C810   C     0.83890   0.09450   0.94982   0.00000  Uiso   1.00
C811   C     0.81851   0.11874   0.92958   0.00000  Uiso   1.00
H812   H     0.86401   0.07475   0.58692   0.00000  Uiso   1.00
H813   H     0.70273   0.00009   0.80328   0.00000  Uiso   1.00
H814   H     0.76215   0.29865   0.75301   0.00000  Uiso   1.00
H815   H     0.76677   0.31047   0.81102   0.00000  Uiso   1.00
H816   H     0.91698   0.26038   0.52387   0.00000  Uiso   1.00
H817   H     0.92671   0.20835   0.50098   0.00000  Uiso   1.00
H818   H     0.88408   0.23127   0.98937   0.00000  Uiso   1.00
H819   H     0.89008   0.21690   0.58356   0.00000  Uiso   1.00
H820   H     0.84498   0.23167   0.57175   0.00000  Uiso   1.00
H821   H     0.78728   0.20786   0.55208   0.00000  Uiso   1.00
H822   H     0.93591   0.30326   0.72816   0.00000  Uiso   1.00
H823   H     0.92820   0.30459   0.67147   0.00000  Uiso   1.00
H824   H     0.96223   0.01188   0.69428   0.00000  Uiso   1.00
H825   H     0.89218   0.03380   0.69660   0.00000  Uiso   1.00
H826   H     0.90372   0.03622   0.75104   0.00000  Uiso   1.00
H827   H     0.73948   0.04563   0.81133   0.00000  Uiso   1.00
H828   H     0.73101   0.02829   0.75554   0.00000  Uiso   1.00
I829   I     0.97478   0.10379   0.80055   0.00000  Uiso   1.00
I830   I     0.87089   0.04803   0.90395   0.00000  Uiso   1.00
I831   I     0.85411   0.01520   0.51082   0.00000  Uiso   1.00
I832   I     0.77029   0.27435   0.91495   0.00000  Uiso   1.00
I833   I     0.74133   0.27491   0.53613   0.00000  Uiso   1.00
I834   I     0.77692   0.08557   0.88979   0.00000  Uiso   1.00
I835   I     0.70065   0.22412   0.69764   0.00000  Uiso   1.00
O836   O     0.83333   0.16667   0.75000   0.00000  Uiso   1.00
O837   O     0.82118   0.12637   0.65459   0.00000  Uiso   1.00
O838   O     0.79607   0.20391   0.84968   0.00000  Uiso   1.00
O839   O     0.87491   0.17759   0.64606   0.00000  Uiso   1.00
O840   O     0.84118   0.15880   0.84968   0.00000  Uiso   1.00
O841   O     0.84597   0.08019   0.78214   0.00000  Uiso   1.00
O842   O     0.81298   0.26085   0.77014   0.00000  Uiso   1.00
O843   O     0.74078   0.13291   0.73413   0.00000  Uiso   1.00
O844   O     0.93360   0.19272   0.71361   0.00000  Uiso   1.00
O845   O     0.73738   0.18878   0.78213   0.00000  Uiso   1.00
O846   O     0.92158   0.15226   0.77014   0.00000  Uiso   1.00
O847   O     0.80426   0.06944   0.73413   0.00000  Uiso   1.00
O848   O     0.87012   0.25620   0.71361   0.00000  Uiso   1.00
Zn849  Zn    0.86005   0.13994   0.78734   0.00000  Uiso   1.00
Zn850  Zn    0.80046   0.12458   0.71876   0.00000  Uiso   1.00
Zn851  Zn    0.87723   0.19775   0.70657   0.00000  Uiso   1.00
Zn852  Zn    0.79560   0.20439   0.78734   0.00000  Uiso   1.00
C853   C     0.05299   0.49293   0.75944   0.00000  Uiso   1.00
C854   C     0.18728   0.49920   0.55092   0.00000  Uiso   1.00
C855   C     0.19409   0.42954   0.56418   0.00000  Uiso   1.00
C856   C     0.28072   0.50718   0.74026   0.00000  Uiso   1.00
C857   C     0.13657   0.52293   0.92199   0.00000  Uiso   1.00
C858   C     0.32617   0.51176   0.73872   0.00000  Uiso   1.00
C859   C     0.00804   0.48855   0.76295   0.00000  Uiso   1.00
C860   C     0.18349   0.65715   0.74226   0.00000  Uiso   1.00
C861   C     0.14923   0.34491   0.76184   0.00000  Uiso   1.00
C862   C     0.15530   0.38933   0.76030   0.00000  Uiso   1.00
C863   C     0.17734   0.61155   0.74120   0.00000  Uiso   1.00
C864   C     0.11101   0.56329   0.99385   0.00000  Uiso   1.00
C865   C     0.18478   0.48173   0.62882   0.00000  Uiso   1.00
C866   C     0.14775   0.51761   0.87146   0.00000  Uiso   1.00
C867   C     0.18990   0.41444   0.52092   0.00000  Uiso   1.00
C868   C     0.19239   0.47125   0.57968   0.00000  Uiso   1.00
C869   C     0.11862   0.55872   0.94639   0.00000  Uiso   1.00
C870   C     0.22790   0.34810   0.72320   0.00000  Uiso   1.00
C871   C     0.26556   0.65665   0.70313   0.00000  Uiso   1.00
C872   C     0.10287   0.65717   0.77867   0.00000  Uiso   1.00
C873   C     0.06714   0.35148   0.78770   0.00000  Uiso   1.00
C874   C     0.20419   0.54533   0.55816   0.00000  Uiso   1.00
C875   C     0.12778   0.53756   0.51556   0.00000  Uiso   1.00
C876   C     0.23472   0.56212   0.51534   0.00000  Uiso   1.00
C877   C     0.15058   0.50558   0.99121   0.00000  Uiso   1.00
C878   C     0.14671   0.49345   0.94681   0.00000  Uiso   1.00
C879   C     0.17209   0.48232   0.51208   0.00000  Uiso   1.00
C880   C     0.17923   0.44106   0.99339   0.00000  Uiso   1.00
C881   C     0.17224   0.42783   0.94982   0.00000  Uiso   1.00
C882   C     0.15184   0.45208   0.92958   0.00000  Uiso   1.00
H883   H     0.19734   0.40808   0.58692   0.00000  Uiso   1.00
H884   H     0.03606   0.33342   0.80328   0.00000  Uiso   1.00
H885   H     0.09548   0.63198   0.75301   0.00000  Uiso   1.00
H886   H     0.10010   0.64381   0.81102   0.00000  Uiso   1.00
H887   H     0.25031   0.59371   0.52387   0.00000  Uiso   1.00
H888   H     0.26005   0.54168   0.50098   0.00000  Uiso   1.00
H889   H     0.21742   0.56461   0.98937   0.00000  Uiso   1.00
H890   H     0.22341   0.55023   0.58356   0.00000  Uiso   1.00
H891   H     0.17832   0.56500   0.57175   0.00000  Uiso   1.00
H892   H     0.12061   0.54119   0.55208   0.00000  Uiso   1.00
H893   H     0.26924   0.63659   0.72816   0.00000  Uiso   1.00
H894   H     0.26153   0.63793   0.67147   0.00000  Uiso   1.00
H895   H     0.29556   0.34521   0.69428   0.00000  Uiso   1.00
H896   H     0.22551   0.36713   0.69660   0.00000  Uiso   1.00
H897   H     0.23705   0.36956   0.75104   0.00000  Uiso   1.00
H898   H     0.07281   0.37897   0.81133   0.00000  Uiso   1.00
H899   H     0.06434   0.36163   0.75554   0.00000  Uiso   1.00
I900   I     0.30811   0.43713   0.80055   0.00000  Uiso   1.00
I901   I     0.20422   0.38137   0.90395   0.00000  Uiso   1.00
I902   I     0.18744   0.34854   0.51082   0.00000  Uiso   1.00
I903   I     0.10362   0.60768   0.91495   0.00000  Uiso   1.00
I904   I     0.07467   0.60825   0.53613   0.00000  Uiso   1.00
I905   I     0.11025   0.41890   0.88979   0.00000  Uiso   1.00
I906   I     0.03398   0.55746   0.69764   0.00000  Uiso   1.00
O907   O     0.16667   0.50000   0.75000   0.00000  Uiso   1.00
O908   O     0.15451   0.45970   0.65459   0.00000  Uiso   1.00
O909   O     0.12940   0.53724   0.84968   0.00000  Uiso   1.00
O910   O     0.20824   0.51092   0.64606   0.00000  Uiso   1.00
O911   O     0.17451   0.49213   0.84968   0.00000  Uiso   1.00
O912   O     0.17930   0.41352   0.78214   0.00000  Uiso   1.00
O913   O     0.14632   0.59418   0.77014   0.00000  Uiso   1.00
O914   O     0.07412   0.46625   0.73413   0.00000  Uiso   1.00
O915   O     0.26693   0.52605   0.71361   0.00000  Uiso   1.00
O916   O     0.07071   0.52211   0.78213   0.00000  Uiso   1.00
O917   O     0.25491   0.48559   0.77014   0.00000  Uiso   1.00
O918   O     0.13760   0.40277   0.73413   0.00000  Uiso   1.00
O919   O     0.20345   0.58953   0.71361   0.00000  Uiso   1.00
Zn920  Zn    0.19338   0.47327   0.78734   0.00000  Uiso   1.00
Zn921  Zn    0.13379   0.45791   0.71876   0.00000  Uiso   1.00
Zn922  Zn    0.21056   0.53109   0.70657   0.00000  Uiso   1.00
Zn923  Zn    0.12893   0.53773   0.78734   0.00000  Uiso   1.00
C924   C     0.38632   0.49293   0.75944   0.00000  Uiso   1.00
C925   C     0.52061   0.49920   0.55092   0.00000  Uiso   1.00
C926   C     0.52742   0.42954   0.56418   0.00000  Uiso   1.00
C927   C     0.61406   0.50718   0.74026   0.00000  Uiso   1.00
C928   C     0.46990   0.52293   0.92199   0.00000  Uiso   1.00
C929   C     0.65951   0.51176   0.73872   0.00000  Uiso   1.00
C930   C     0.34137   0.48855   0.76295   0.00000  Uiso   1.00
C931   C     0.51682   0.65715   0.74226   0.00000  Uiso   1.00
C932   C     0.48256   0.34491   0.76184   0.00000  Uiso   1.00
C933   C     0.48864   0.38933   0.76030   0.00000  Uiso   1.00
C934   C     0.51068   0.61155   0.74120   0.00000  Uiso   1.00
C935   C     0.44435   0.56329   0.99385   0.00000  Uiso   1.00
C936   C     0.51812   0.48173   0.62882   0.00000  Uiso   1.00
C937   C     0.48108   0.51761   0.87146   0.00000  Uiso   1.00
C938   C     0.52323   0.41444   0.52092   0.00000  Uiso   1.00
C939   C     0.52572   0.47125   0.57968   0.00000  Uiso   1.00
C940   C     0.45196   0.55872   0.94639   0.00000  Uiso   1.00
C941   C     0.56124   0.34810   0.72320   0.00000  Uiso   1.00
C942   C     0.59889   0.65665   0.70313   0.00000  Uiso   1.00
C943   C     0.43621   0.65717   0.77867   0.00000  Uiso   1.00
C944   C     0.40047   0.35148   0.78770   0.00000  Uiso   1.00
C945   C     0.53752   0.54533   0.55816   0.00000  Uiso   1.00
C946   C     0.46112   0.53756   0.51556   0.00000  Uiso   1.00
C947   C     0.56805   0.56212   0.51534   0.00000  Uiso   1.00
C948   C     0.48391   0.50558   0.99121   0.00000  Uiso   1.00
C949   C     0.48005   0.49345   0.94681   0.00000  Uiso   1.00
C950   C     0.50542   0.48232   0.51208   0.00000  Uiso   1.00
C951   C     0.51256   0.44106   0.99339   0.00000  Uiso   1.00
C952   C     0.50557   0.42783   0.94982   0.00000  Uiso   1.00
C953   C     0.48518   0.45208   0.92958   0.00000  Uiso   1.00
H954   H     0.53067   0.40808   0.58692   0.00000  Uiso   1.00
H955   H     0.36939   0.33342   0.80328   0.00000  Uiso   1.00
H956   H     0.42882   0.63198   0.75301   0.00000  Uiso   1.00
H957   H     0.43343   0.64381   0.81102   0.00000  Uiso   1.00
H958   H     0.58364   0.59371   0.52387   0.00000  Uiso   1.00
H959   H     0.59338   0.54168   0.50098   0.00000  Uiso   1.00
H960   H     0.55075   0.56461   0.98937   0.00000  Uiso   1.00
H961   H     0.55675   0.55023   0.58356   0.00000  Uiso   1.00
H962   H     0.51165   0.56500   0.57175   0.00000  Uiso   1.00
H963   H     0.45394   0.54119   0.55208   0.00000  Uiso   1.00
H964   H     0.60257   0.63659   0.72816   0.00000  Uiso   1.00
H965   H     0.59486   0.63793   0.67147   0.00000  Uiso   1.00
H966   H     0.62890   0.34521   0.69428   0.00000  Uiso   1.00
H967   H     0.55885   0.36713   0.69660   0.00000  Uiso   1.00
H968   H     0.57039   0.36956   0.75104   0.00000  Uiso   1.00
H969   H     0.40614   0.37897   0.81133   0.00000  Uiso   1.00
H970   H     0.39767   0.36163   0.75554   0.00000  Uiso   1.00
I971   I     0.64145   0.43713   0.80055   0.00000  Uiso   1.00
I972   I     0.53755   0.38137   0.90395   0.00000  Uiso   1.00
I973   I     0.52077   0.34854   0.51082   0.00000  Uiso   1.00
I974   I     0.43696   0.60768   0.91495   0.00000  Uiso   1.00
I975   I     0.40800   0.60825   0.53613   0.00000  Uiso   1.00
I976   I     0.44358   0.41890   0.88979   0.00000  Uiso   1.00
I977   I     0.36731   0.55746   0.69764   0.00000  Uiso   1.00
O978   O     0.50000   0.50000   0.75000   0.00000  Uiso   1.00
O979   O     0.48784   0.45970   0.65459   0.00000  Uiso   1.00
O980   O     0.46274   0.53724   0.84968   0.00000  Uiso   1.00
O981   O     0.54157   0.51092   0.64606   0.00000  Uiso   1.00
O982   O     0.50785   0.49213   0.84968   0.00000  Uiso   1.00
O983   O     0.51264   0.41352   0.78214   0.00000  Uiso   1.00
O984   O     0.47965   0.59418   0.77014   0.00000  Uiso   1.00
O985   O     0.40745   0.46625   0.73413   0.00000  Uiso   1.00
O986   O     0.60026   0.52605   0.71361   0.00000  Uiso   1.00
O987   O     0.40405   0.52211   0.78213   0.00000  Uiso   1.00
O988   O     0.58824   0.48559   0.77014   0.00000  Uiso   1.00
O989   O     0.47093   0.40277   0.73413   0.00000  Uiso   1.00
O990   O     0.53678   0.58953   0.71361   0.00000  Uiso   1.00
Zn991  Zn    0.52672   0.47327   0.78734   0.00000  Uiso   1.00
Zn992  Zn    0.46713   0.45791   0.71876   0.00000  Uiso   1.00
Zn993  Zn    0.54389   0.53109   0.70657   0.00000  Uiso   1.00
Zn994  Zn    0.46226   0.53773   0.78734   0.00000  Uiso   1.00
C995   C     0.71965   0.49293   0.75944   0.00000  Uiso   1.00
C996   C     0.85395   0.49920   0.55092   0.00000  Uiso   1.00
C997   C     0.86076   0.42954   0.56418   0.00000  Uiso   1.00
C998   C     0.94739   0.50718   0.74026   0.00000  Uiso   1.00
C999   C     0.80324   0.52293   0.92199   0.00000  Uiso   1.00
C1000  C     0.99284   0.51176   0.73872   0.00000  Uiso   1.00
C1001  C     0.67471   0.48855   0.76295   0.00000  Uiso   1.00
C1002  C     0.85016   0.65715   0.74226   0.00000  Uiso   1.00
C1003  C     0.81590   0.34491   0.76184   0.00000  Uiso   1.00
C1004  C     0.82197   0.38933   0.76030   0.00000  Uiso   1.00
C1005  C     0.84401   0.61155   0.74120   0.00000  Uiso   1.00
C1006  C     0.77768   0.56329   0.99385   0.00000  Uiso   1.00
C1007  C     0.85145   0.48173   0.62882   0.00000  Uiso   1.00
C1008  C     0.81442   0.51761   0.87146   0.00000  Uiso   1.00
C1009  C     0.85657   0.41444   0.52092   0.00000  Uiso   1.00
C1010  C     0.85905   0.47125   0.57968   0.00000  Uiso   1.00
C1011  C     0.78529   0.55872   0.94639   0.00000  Uiso   1.00
C1012  C     0.89457   0.34810   0.72320   0.00000  Uiso   1.00
C1013  C     0.93222   0.65665   0.70313   0.00000  Uiso   1.00
C1014  C     0.76954   0.65717   0.77867   0.00000  Uiso   1.00
C1015  C     0.73380   0.35148   0.78770   0.00000  Uiso   1.00
C1016  C     0.87086   0.54533   0.55816   0.00000  Uiso   1.00
C1017  C     0.79445   0.53756   0.51556   0.00000  Uiso   1.00
C1018  C     0.90139   0.56212   0.51534   0.00000  Uiso   1.00
C1019  C     0.81725   0.50558   0.99121   0.00000  Uiso   1.00
C1020  C     0.81338   0.49345   0.94681   0.00000  Uiso   1.00
C1021  C     0.83875   0.48232   0.51208   0.00000  Uiso   1.00
C1022  C     0.84589   0.44106   0.99339   0.00000  Uiso   1.00
C1023  C     0.83890   0.42783   0.94982   0.00000  Uiso   1.00
C1024  C     0.81851   0.45208   0.92958   0.00000  Uiso   1.00
H1025  H     0.86401   0.40808   0.58692   0.00000  Uiso   1.00
H1026  H     0.70273   0.33342   0.80328   0.00000  Uiso   1.00
H1027  H     0.76215   0.63198   0.75301   0.00000  Uiso   1.00
H1028  H     0.76677   0.64381   0.81102   0.00000  Uiso   1.00
H1029  H     0.91698   0.59371   0.52387   0.00000  Uiso   1.00
H1030  H     0.92671   0.54168   0.50098   0.00000  Uiso   1.00
H1031  H     0.88408   0.56461   0.98937   0.00000  Uiso   1.00
H1032  H     0.89008   0.55023   0.58356   0.00000  Uiso   1.00
H1033  H     0.84498   0.56500   0.57175   0.00000  Uiso   1.00
H1034  H     0.78728   0.54119   0.55208   0.00000  Uiso   1.00
H1035  H     0.93591   0.63659   0.72816   0.00000  Uiso   1.00
H1036  H     0.92820   0.63793   0.67147   0.00000  Uiso   1.00
H1037  H     0.96223   0.34521   0.69428   0.00000  Uiso   1.00
H1038  H     0.89218   0.36713   0.69660   0.00000  Uiso   1.00
H1039  H     0.90372   0.36956   0.75104   0.00000  Uiso   1.00
H1040  H     0.73948   0.37897   0.81133   0.00000  Uiso   1.00
H1041  H     0.73101   0.36163   0.75554   0.00000  Uiso   1.00
I1042  I     0.97478   0.43713   0.80055   0.00000  Uiso   1.00
I1043  I     0.87089   0.38137   0.90395   0.00000  Uiso   1.00
I1044  I     0.85411   0.34854   0.51082   0.00000  Uiso   1.00
I1045  I     0.77029   0.60768   0.91495   0.00000  Uiso   1.00
I1046  I     0.74133   0.60825   0.53613   0.00000  Uiso   1.00
I1047  I     0.77692   0.41890   0.88979   0.00000  Uiso   1.00
I1048  I     0.70065   0.55746   0.69764   0.00000  Uiso   1.00
O1049  O     0.83333   0.50000   0.75000   0.00000  Uiso   1.00
O1050  O     0.82118   0.45970   0.65459   0.00000  Uiso   1.00
O1051  O     0.79607   0.53724   0.84968   0.00000  Uiso   1.00
O1052  O     0.87491   0.51092   0.64606   0.00000  Uiso   1.00
O1053  O     0.84118   0.49213   0.84968   0.00000  Uiso   1.00
O1054  O     0.84597   0.41352   0.78214   0.00000  Uiso   1.00
O1055  O     0.81298   0.59418   0.77014   0.00000  Uiso   1.00
O1056  O     0.74078   0.46625   0.73413   0.00000  Uiso   1.00
O1057  O     0.93360   0.52605   0.71361   0.00000  Uiso   1.00
O1058  O     0.73738   0.52211   0.78213   0.00000  Uiso   1.00
O1059  O     0.92158   0.48559   0.77014   0.00000  Uiso   1.00
O1060  O     0.80426   0.40277   0.73413   0.00000  Uiso   1.00
O1061  O     0.87012   0.58953   0.71361   0.00000  Uiso   1.00
Zn1062 Zn    0.86005   0.47327   0.78734   0.00000  Uiso   1.00
Zn1063 Zn    0.80046   0.45791   0.71876   0.00000  Uiso   1.00
Zn1064 Zn    0.87723   0.53109   0.70657   0.00000  Uiso   1.00
Zn1065 Zn    0.79560   0.53773   0.78734   0.00000  Uiso   1.00
C1066  C     0.05299   0.82626   0.75944   0.00000  Uiso   1.00
C1067  C     0.18728   0.83254   0.55092   0.00000  Uiso   1.00
C1068  C     0.19409   0.76287   0.56418   0.00000  Uiso   1.00
C1069  C     0.28072   0.84051   0.74026   0.00000  Uiso   1.00
C1070  C     0.13657   0.85626   0.92199   0.00000  Uiso   1.00
C1071  C     0.32617   0.84509   0.73872   0.00000  Uiso   1.00
C1072  C     0.00804   0.82188   0.76295   0.00000  Uiso   1.00
C1073  C     0.18349   0.99049   0.74226   0.00000  Uiso   1.00
C1074  C     0.14923   0.67825   0.76184   0.00000  Uiso   1.00
C1075  C     0.15530   0.72267   0.76030   0.00000  Uiso   1.00
C1076  C     0.17734   0.94489   0.74120   0.00000  Uiso   1.00
C1077  C     0.11101   0.89662   0.99385   0.00000  Uiso   1.00
C1078  C     0.18478   0.81506   0.62882   0.00000  Uiso   1.00
C1079  C     0.14775   0.85094   0.87146   0.00000  Uiso   1.00
C1080  C     0.18990   0.74778   0.52092   0.00000  Uiso   1.00
C1081  C     0.19239   0.80459   0.57968   0.00000  Uiso   1.00
C1082  C     0.11862   0.89206   0.94639   0.00000  Uiso   1.00
C1083  C     0.22790   0.68143   0.72320   0.00000  Uiso   1.00
C1084  C     0.26556   0.98998   0.70313   0.00000  Uiso   1.00
C1085  C     0.10287   0.99051   0.77867   0.00000  Uiso   1.00
C1086  C     0.06714   0.68481   0.78770   0.00000  Uiso   1.00
C1087  C     0.20419   0.87866   0.55816   0.00000  Uiso   1.00
C1088  C     0.12778   0.87089   0.51556   0.00000  Uiso   1.00
C1089  C     0.23472   0.89546   0.51534   0.00000  Uiso   1.00
C1090  C     0.15058   0.83892   0.99121   0.00000  Uiso   1.00
C1091  C     0.14671   0.82678   0.94681   0.00000  Uiso   1.00
C1092  C     0.17209   0.81566   0.51208   0.00000  Uiso   1.00
C1093  C     0.17923   0.77440   0.99339   0.00000  Uiso   1.00
C1094  C     0.17224   0.76116   0.94982   0.00000  Uiso   1.00
C1095  C     0.15184   0.78541   0.92958   0.00000  Uiso   1.00
H1096  H     0.19734   0.74142   0.58692   0.00000  Uiso   1.00
H1097  H     0.03606   0.66675   0.80328   0.00000  Uiso   1.00
H1098  H     0.09548   0.96531   0.75301   0.00000  Uiso   1.00
H1099  H     0.10010   0.97714   0.81102   0.00000  Uiso   1.00
H1100  H     0.25031   0.92705   0.52387   0.00000  Uiso   1.00
H1101  H     0.26005   0.87502   0.50098   0.00000  Uiso   1.00
H1102  H     0.21742   0.89794   0.98937   0.00000  Uiso   1.00
H1103  H     0.22341   0.88356   0.58356   0.00000  Uiso   1.00
H1104  H     0.17832   0.89834   0.57175   0.00000  Uiso   1.00
H1105  H     0.12061   0.87452   0.55208   0.00000  Uiso   1.00
H1106  H     0.26924   0.96993   0.72816   0.00000  Uiso   1.00
H1107  H     0.26153   0.97126   0.67147   0.00000  Uiso   1.00
H1108  H     0.29556   0.67854   0.69428   0.00000  Uiso   1.00
H1109  H     0.22551   0.70046   0.69660   0.00000  Uiso   1.00
H1110  H     0.23705   0.70289   0.75104   0.00000  Uiso   1.00
H1111  H     0.07281   0.71230   0.81133   0.00000  Uiso   1.00
H1112  H     0.06434   0.69496   0.75554   0.00000  Uiso   1.00
I1113  I     0.30811   0.77046   0.80055   0.00000  Uiso   1.00
I1114  I     0.20422   0.71470   0.90395   0.00000  Uiso   1.00
I1115  I     0.18744   0.68187   0.51082   0.00000  Uiso   1.00
I1116  I     0.10362   0.94101   0.91495   0.00000  Uiso   1.00
I1117  I     0.07467   0.94158   0.53613   0.00000  Uiso   1.00
I1118  I     0.11025   0.75224   0.88979   0.00000  Uiso   1.00
I1119  I     0.03398   0.89079   0.69764   0.00000  Uiso   1.00
O1120  O     0.16667   0.83333   0.75000   0.00000  Uiso   1.00
O1121  O     0.15451   0.79304   0.65459   0.00000  Uiso   1.00
O1122  O     0.12940   0.87058   0.84968   0.00000  Uiso   1.00
O1123  O     0.20824   0.84425   0.64606   0.00000  Uiso   1.00
O1124  O     0.17451   0.82546   0.84968   0.00000  Uiso   1.00
O1125  O     0.17930   0.74686   0.78214   0.00000  Uiso   1.00
O1126  O     0.14632   0.92751   0.77014   0.00000  Uiso   1.00
O1127  O     0.07412   0.79958   0.73413   0.00000  Uiso   1.00
O1128  O     0.26693   0.85939   0.71361   0.00000  Uiso   1.00
O1129  O     0.07071   0.85544   0.78213   0.00000  Uiso   1.00
O1130  O     0.25491   0.81892   0.77014   0.00000  Uiso   1.00
O1131  O     0.13760   0.73610   0.73413   0.00000  Uiso   1.00
O1132  O     0.20345   0.92286   0.71361   0.00000  Uiso   1.00
Zn1133 Zn    0.19338   0.80661   0.78734   0.00000  Uiso   1.00
Zn1134 Zn    0.13379   0.79124   0.71876   0.00000  Uiso   1.00
Zn1135 Zn    0.21056   0.86442   0.70657   0.00000  Uiso   1.00
Zn1136 Zn    0.12893   0.87106   0.78734   0.00000  Uiso   1.00
C1137  C     0.38632   0.82626   0.75944   0.00000  Uiso   1.00
C1138  C     0.52061   0.83254   0.55092   0.00000  Uiso   1.00
C1139  C     0.52742   0.76287   0.56418   0.00000  Uiso   1.00
C1140  C     0.61406   0.84051   0.74026   0.00000  Uiso   1.00
C1141  C     0.46990   0.85626   0.92199   0.00000  Uiso   1.00
C1142  C     0.65951   0.84509   0.73872   0.00000  Uiso   1.00
C1143  C     0.34137   0.82188   0.76295   0.00000  Uiso   1.00
C1144  C     0.51682   0.99049   0.74226   0.00000  Uiso   1.00
C1145  C     0.48256   0.67825   0.76184   0.00000  Uiso   1.00
C1146  C     0.48864   0.72267   0.76030   0.00000  Uiso   1.00
C1147  C     0.51068   0.94489   0.74120   0.00000  Uiso   1.00
C1148  C     0.44435   0.89662   0.99385   0.00000  Uiso   1.00
C1149  C     0.51812   0.81506   0.62882   0.00000  Uiso   1.00
C1150  C     0.48108   0.85094   0.87146   0.00000  Uiso   1.00
C1151  C     0.52323   0.74778   0.52092   0.00000  Uiso   1.00
C1152  C     0.52572   0.80459   0.57968   0.00000  Uiso   1.00
C1153  C     0.45196   0.89206   0.94639   0.00000  Uiso   1.00
C1154  C     0.56124   0.68143   0.72320   0.00000  Uiso   1.00
C1155  C     0.59889   0.98998   0.70313   0.00000  Uiso   1.00
C1156  C     0.43621   0.99051   0.77867   0.00000  Uiso   1.00
C1157  C     0.40047   0.68481   0.78770   0.00000  Uiso   1.00
C1158  C     0.53752   0.87866   0.55816   0.00000  Uiso   1.00
C1159  C     0.46112   0.87089   0.51556   0.00000  Uiso   1.00
C1160  C     0.56805   0.89546   0.51534   0.00000  Uiso   1.00
C1161  C     0.48391   0.83892   0.99121   0.00000  Uiso   1.00
C1162  C     0.48005   0.82678   0.94681   0.00000  Uiso   1.00
C1163  C     0.50542   0.81566   0.51208   0.00000  Uiso   1.00
C1164  C     0.51256   0.77440   0.99339   0.00000  Uiso   1.00
C1165  C     0.50557   0.76116   0.94982   0.00000  Uiso   1.00
C1166  C     0.48518   0.78541   0.92958   0.00000  Uiso   1.00
H1167  H     0.53067   0.74142   0.58692   0.00000  Uiso   1.00
H1168  H     0.36939   0.66675   0.80328   0.00000  Uiso   1.00
H1169  H     0.42882   0.96531   0.75301   0.00000  Uiso   1.00
H1170  H     0.43343   0.97714   0.81102   0.00000  Uiso   1.00
H1171  H     0.58364   0.92705   0.52387   0.00000  Uiso   1.00
H1172  H     0.59338   0.87502   0.50098   0.00000  Uiso   1.00
H1173  H     0.55075   0.89794   0.98937   0.00000  Uiso   1.00
H1174  H     0.55675   0.88356   0.58356   0.00000  Uiso   1.00
H1175  H     0.51165   0.89834   0.57175   0.00000  Uiso   1.00
H1176  H     0.45394   0.87452   0.55208   0.00000  Uiso   1.00
H1177  H     0.60257   0.96993   0.72816   0.00000  Uiso   1.00
H1178  H     0.59486   0.97126   0.67147   0.00000  Uiso   1.00
H1179  H     0.62890   0.67854   0.69428   0.00000  Uiso   1.00
H1180  H     0.55885   0.70046   0.69660   0.00000  Uiso   1.00
H1181  H     0.57039   0.70289   0.75104   0.00000  Uiso   1.00
H1182  H     0.40614   0.71230   0.81133   0.00000  Uiso   1.00
H1183  H     0.39767   0.69496   0.75554   0.00000  Uiso   1.00
I1184  I     0.64145   0.77046   0.80055   0.00000  Uiso   1.00
I1185  I     0.53755   0.71470   0.90395   0.00000  Uiso   1.00
I1186  I     0.52077   0.68187   0.51082   0.00000  Uiso   1.00
I1187  I     0.43696   0.94101   0.91495   0.00000  Uiso   1.00
I1188  I     0.40800   0.94158   0.53613   0.00000  Uiso   1.00
I1189  I     0.44358   0.75224   0.88979   0.00000  Uiso   1.00
I1190  I     0.36731   0.89079   0.69764   0.00000  Uiso   1.00
O1191  O     0.50000   0.83333   0.75000   0.00000  Uiso   1.00
O1192  O     0.48784   0.79304   0.65459   0.00000  Uiso   1.00
O1193  O     0.46274   0.87058   0.84968   0.00000  Uiso   1.00
O1194  O     0.54157   0.84425   0.64606   0.00000  Uiso   1.00
O1195  O     0.50785   0.82546   0.84968   0.00000  Uiso   1.00
O1196  O     0.51264   0.74686   0.78214   0.00000  Uiso   1.00
O1197  O     0.47965   0.92751   0.77014   0.00000  Uiso   1.00
O1198  O     0.40745   0.79958   0.73413   0.00000  Uiso   1.00
O1199  O     0.60026   0.85939   0.71361   0.00000  Uiso   1.00
O1200  O     0.40405   0.85544   0.78213   0.00000  Uiso   1.00
O1201  O     0.58824   0.81892   0.77014   0.00000  Uiso   1.00
O1202  O     0.47093   0.73610   0.73413   0.00000  Uiso   1.00
O1203  O     0.53678   0.92286   0.71361   0.00000  Uiso   1.00
Zn1204 Zn    0.52672   0.80661   0.78734   0.00000  Uiso   1.00
Zn1205 Zn    0.46713   0.79124   0.71876   0.00000  Uiso   1.00
Zn1206 Zn    0.54389   0.86442   0.70657   0.00000  Uiso   1.00
Zn1207 Zn    0.46226   0.87106   0.78734   0.00000  Uiso   1.00
C1208  C     0.71965   0.82626   0.75944   0.00000  Uiso   1.00
C1209  C     0.85395   0.83254   0.55092   0.00000  Uiso   1.00
C1210  C     0.86076   0.76287   0.56418   0.00000  Uiso   1.00
C1211  C     0.94739   0.84051   0.74026   0.00000  Uiso   1.00
C1212  C     0.80324   0.85626   0.92199   0.00000  Uiso   1.00
C1213  C     0.99284   0.84509   0.73872   0.00000  Uiso   1.00
C1214  C     0.67471   0.82188   0.76295   0.00000  Uiso   1.00
C1215  C     0.85016   0.99049   0.74226   0.00000  Uiso   1.00
C1216  C     0.81590   0.67825   0.76184   0.00000  Uiso   1.00
C1217  C     0.82197   0.72267   0.76030   0.00000  Uiso   1.00
C1218  C     0.84401   0.94489   0.74120   0.00000  Uiso   1.00
C1219  C     0.77768   0.89662   0.99385   0.00000  Uiso   1.00
C1220  C     0.85145   0.81506   0.62882   0.00000  Uiso   1.00
C1221  C     0.81442   0.85094   0.87146   0.00000  Uiso   1.00
C1222  C     0.85657   0.74778   0.52092   0.00000  Uiso   1.00
C1223  C     0.85905   0.80459   0.57968   0.00000  Uiso   1.00
C1224  C     0.78529   0.89206   0.94639   0.00000  Uiso   1.00
C1225  C     0.89457   0.68143   0.72320   0.00000  Uiso   1.00
C1226  C     0.93222   0.98998   0.70313   0.00000  Uiso   1.00
C1227  C     0.76954   0.99051   0.77867   0.00000  Uiso   1.00
C1228  C     0.73380   0.68481   0.78770   0.00000  Uiso   1.00
C1229  C     0.87086   0.87866   0.55816   0.00000  Uiso   1.00
C1230  C     0.79445   0.87089   0.51556   0.00000  Uiso   1.00
C1231  C     0.90139   0.89546   0.51534   0.00000  Uiso   1.00
C1232  C     0.81725   0.83892   0.99121   0.00000  Uiso   1.00
C1233  C     0.81338   0.82678   0.94681   0.00000  Uiso   1.00
C1234  C     0.83875   0.81566   0.51208   0.00000  Uiso   1.00
C1235  C     0.84589   0.77440   0.99339   0.00000  Uiso   1.00
C1236  C     0.83890   0.76116   0.94982   0.00000  Uiso   1.00
C1237  C     0.81851   0.78541   0.92958   0.00000  Uiso   1.00
H1238  H     0.86401   0.74142   0.58692   0.00000  Uiso   1.00
H1239  H     0.70273   0.66675   0.80328   0.00000  Uiso   1.00
H1240  H     0.76215   0.96531   0.75301   0.00000  Uiso   1.00
H1241  H     0.76677   0.97714   0.81102   0.00000  Uiso   1.00
H1242  H     0.91698   0.92705   0.52387   0.00000  Uiso   1.00
H1243  H     0.92671   0.87502   0.50098   0.00000  Uiso   1.00
H1244  H     0.88408   0.89794   0.98937   0.00000  Uiso   1.00
H1245  H     0.89008   0.88356   0.58356   0.00000  Uiso   1.00
H1246  H     0.84498   0.89834   0.57175   0.00000  Uiso   1.00
H1247  H     0.78728   0.87452   0.55208   0.00000  Uiso   1.00
H1248  H     0.93591   0.96993   0.72816   0.00000  Uiso   1.00
H1249  H     0.92820   0.97126   0.67147   0.00000  Uiso   1.00
H1250  H     0.96223   0.67854   0.69428   0.00000  Uiso   1.00
H1251  H     0.89218   0.70046   0.69660   0.00000  Uiso   1.00
H1252  H     0.90372   0.70289   0.75104   0.00000  Uiso   1.00
H1253  H     0.73948   0.71230   0.81133   0.00000  Uiso   1.00
H1254  H     0.73101   0.69496   0.75554   0.00000  Uiso   1.00
I1255  I     0.97478   0.77046   0.80055   0.00000  Uiso   1.00
I1256  I     0.87089   0.71470   0.90395   0.00000  Uiso   1.00
I1257  I     0.85411   0.68187   0.51082   0.00000  Uiso   1.00
I1258  I     0.77029   0.94101   0.91495   0.00000  Uiso   1.00
I1259  I     0.74133   0.94158   0.53613   0.00000  Uiso   1.00
I1260  I     0.77692   0.75224   0.88979   0.00000  Uiso   1.00
I1261  I     0.70065   0.89079   0.69764   0.00000  Uiso   1.00
O1262  O     0.83333   0.83333   0.75000   0.00000  Uiso   1.00
O1263  O     0.82118   0.79304   0.65459   0.00000  Uiso   1.00
O1264  O     0.79607   0.87058   0.84968   0.00000  Uiso   1.00
O1265  O     0.87491   0.84425   0.64606   0.00000  Uiso   1.00
O1266  O     0.84118   0.82546   0.84968   0.00000  Uiso   1.00
O1267  O     0.84597   0.74686   0.78214   0.00000  Uiso   1.00
O1268  O     0.81298   0.92751   0.77014   0.00000  Uiso   1.00
O1269  O     0.74078   0.79958   0.73413   0.00000  Uiso   1.00
O1270  O     0.93360   0.85939   0.71361   0.00000  Uiso   1.00
O1271  O     0.73738   0.85544   0.78213   0.00000  Uiso   1.00
O1272  O     0.92158   0.81892   0.77014   0.00000  Uiso   1.00
O1273  O     0.80426   0.73610   0.73413   0.00000  Uiso   1.00
O1274  O     0.87012   0.92286   0.71361   0.00000  Uiso   1.00
Zn1275 Zn    0.86005   0.80661   0.78734   0.00000  Uiso   1.00
Zn1276 Zn    0.80046   0.79124   0.71876   0.00000  Uiso   1.00
Zn1277 Zn    0.87723   0.86442   0.70657   0.00000  Uiso   1.00
Zn1278 Zn    0.79560   0.87106   0.78734   0.00000  Uiso   1.00
loop_
_geom_bond_atom_site_label_1
_geom_bond_atom_site_label_2
_geom_bond_distance
_geom_bond_site_symmetry_2
_ccdc_geom_bond_type
C1     O62     1.258   .     A
C1     C7      1.427   .     S
C1     O64     1.267   .     A
C2     C22     1.534   .     S
C2     C16     1.403   .     A
C2     C27     1.427   .     A
C3     H31     1.084   .     S
C3     C15     1.393   .     A
C3     C16     1.394   .     A
C4     O63     1.288   .     A
C4     O65     1.272   .     A
C4     C6      1.455   .     S
C5     C14     1.493   .     S
C5     C17     1.430   .     A
C5     C26     1.427   .     A
C6     C78     1.352   .     S
C6     I125    2.140   .     S
C7     C148    1.352   1_455 S
C7     I190    2.143   1_455 S
C8     C11     1.472   .     S
C8     C222    1.369   .     S
C8     C231    1.543   .     S
C9     C10     1.441   .     S
C9     C434    1.369   1_545 S
C9     C446    1.543   1_545 S
C10    O60     1.280   .     A
C10    O66     1.258   .     A
C11    O67     1.276   .     A
C11    O61     1.269   .     A
C12    C17     1.406   .     A
C12    C662    1.389   .     S
C12    I691    2.128   .     S
C13    O58     1.279   .     A
C13    C16     1.470   .     S
C13    O56     1.276   .     A
C14    O59     1.300   .     A
C14    O57     1.287   .     A
C15    I50     2.133   .     S
C15    C667    1.424   1_554 S
C17    I51     2.148   .     S
C18    H44     1.112   .     S
C18    H45     1.110   .     S
C18    C434    1.543   1_545 S
C18    C445    1.530   1_545 S
C19    H42     1.110   .     S
C19    H41     1.111   .     S
C19    C231    1.530   .     S
C19    H256    1.111   .     S
C20    H34     1.111   .     S
C20    H33     1.112   .     S
C20    C222    1.543   .     S
C20    C234    1.534   .     S
C21    H32     1.111   .     S
C21    H47     1.110   .     S
C21    H46     1.108   .     S
C21    C446    1.534   1_545 S
C22    C24     1.531   .     S
C22    H39     1.105   .     S
C22    H38     1.105   .     S
C23    H40     1.080   .     S
C23    C651    1.389   1_554 S
C23    C664    1.403   1_554 S
C24    H36     1.111   .     S
C24    H35     1.111   .     S
C24    H676    1.108   1_554 S
C25    C26     1.405   .     A
C25    C662    1.403   .     S
C25    C666    1.417   .     S
C26    C30     1.410   .     A
C27    C664    1.417   1_554 S
C27    C667    1.430   1_554 S
C28    C29     1.420   .     A
C28    C654    1.424   .     S
C28    C666    1.430   .     S
C29    C30     1.401   .     A
C29    I49     2.141   .     S
C30    I53     2.143   .     S
H37    C663    1.108   .     S
H43    C445    1.111   1_545 S
I48    C78     2.143   .     S
I52    C651    2.128   1_554 S
I54    C148    2.140   1_455 S
O55    Zn71    1.935   .     S
O55    Zn68    1.963   .     S
O55    Zn69    1.928   .     S
O55    Zn70    1.934   .     S
O56    Zn69    1.914   .     S
O57    Zn71    1.921   .     S
O58    Zn70    1.911   .     S
O59    Zn68    1.907   .     S
O60    Zn68    1.934   .     S
O61    Zn71    1.941   .     S
O62    Zn69    1.934   .     S
O63    Zn70    1.941   .     S
O64    Zn71    1.931   .     S
O65    Zn68    1.927   .     S
O66    Zn69    1.951   .     S
O67    Zn70    1.942   .     S
C72    O133    1.258   .     A
C72    C78     1.427   .     S
C72    O135    1.267   .     A
C73    C93     1.534   .     S
C73    C87     1.403   .     A
C73    C98     1.427   .     A
C74    H102    1.084   .     S
C74    C86     1.393   .     A
C74    C87     1.394   .     A
C75    O134    1.288   .     A
C75    O136    1.272   .     A
C75    C77     1.455   .     S
C76    C85     1.493   .     S
C76    C88     1.430   .     A
C76    C97     1.427   .     A
C77    C149    1.352   .     S
C77    I196    2.140   .     S
C79    C82     1.472   .     S
C79    C293    1.369   .     S
C79    C302    1.543   .     S
C80    C81     1.441   .     S
C80    C505    1.369   1_545 S
C80    C517    1.543   1_545 S
C81    O131    1.280   .     A
C81    O137    1.258   .     A
C82    O138    1.276   .     A
C82    O132    1.269   .     A
C83    C88     1.406   .     A
C83    C733    1.389   .     S
C83    I762    2.128   .     S
C84    O129    1.279   .     A
C84    C87     1.470   .     S
C84    O127    1.276   .     A
C85    O130    1.300   .     A
C85    O128    1.287   .     A
C86    I121    2.133   .     S
C86    C738    1.424   1_554 S
C88    I122    2.148   .     S
C89    H115    1.112   .     S
C89    H116    1.110   .     S
C89    C505    1.543   1_545 S
C89    C516    1.530   1_545 S
C90    H113    1.110   .     S
C90    H112    1.111   .     S
C90    C302    1.530   .     S
C90    H327    1.111   .     S
C91    H105    1.111   .     S
C91    H104    1.112   .     S
C91    C293    1.543   .     S
C91    C305    1.534   .     S
C92    H103    1.111   .     S
C92    H118    1.110   .     S
C92    H117    1.108   .     S
C92    C517    1.534   1_545 S
C93    C95     1.531   .     S
C93    H110    1.105   .     S
C93    H109    1.105   .     S
C94    H111    1.080   .     S
C94    C722    1.389   1_554 S
C94    C735    1.403   1_554 S
C95    H107    1.111   .     S
C95    H106    1.111   .     S
C95    H747    1.108   1_554 S
C96    C97     1.405   .     A
C96    C733    1.403   .     S
C96    C737    1.417   .     S
C97    C101    1.410   .     A
C98    C735    1.417   1_554 S
C98    C738    1.430   1_554 S
C99    C100    1.420   .     A
C99    C725    1.424   .     S
C99    C737    1.430   .     S
C100   C101    1.401   .     A
C100   I120    2.141   .     S
C101   I124    2.143   .     S
H108   C734    1.108   .     S
H114   C516    1.111   1_545 S
I119   C149    2.143   .     S
I123   C722    2.128   1_554 S
O126   Zn142   1.935   .     S
O126   Zn139   1.963   .     S
O126   Zn140   1.928   .     S
O126   Zn141   1.934   .     S
O127   Zn140   1.914   .     S
O128   Zn142   1.921   .     S
O129   Zn141   1.911   .     S
O130   Zn139   1.907   .     S
O131   Zn139   1.934   .     S
O132   Zn142   1.941   .     S
O133   Zn140   1.934   .     S
O134   Zn141   1.941   .     S
O135   Zn142   1.931   .     S
O136   Zn139   1.927   .     S
O137   Zn140   1.951   .     S
O138   Zn141   1.942   .     S
C143   O204    1.258   .     A
C143   C149    1.427   .     S
C143   O206    1.267   .     A
C144   C164    1.534   .     S
C144   C158    1.403   .     A
C144   C169    1.427   .     A
C145   H173    1.084   .     S
C145   C157    1.393   .     A
C145   C158    1.394   .     A
C146   O205    1.288   .     A
C146   O207    1.272   .     A
C146   C148    1.455   .     S
C147   C156    1.493   .     S
C147   C159    1.430   .     A
C147   C168    1.427   .     A
C148   C7      1.352   1_655 S
C148   I54     2.140   1_655 S
C150   C153    1.472   .     S
C150   C364    1.369   .     S
C150   C373    1.543   .     S
C151   C152    1.441   .     S
C151   C576    1.369   1_545 S
C151   C588    1.543   1_545 S
C152   O202    1.280   .     A
C152   O208    1.258   .     A
C153   O209    1.276   .     A
C153   O203    1.269   .     A
C154   C159    1.406   .     A
C154   C804    1.389   .     S
C154   I833    2.128   .     S
C155   O200    1.279   .     A
C155   C158    1.470   .     S
C155   O198    1.276   .     A
C156   O201    1.300   .     A
C156   O199    1.287   .     A
C157   I192    2.133   .     S
C157   C809    1.424   1_554 S
C159   I193    2.148   .     S
C160   H186    1.112   .     S
C160   H187    1.110   .     S
C160   C576    1.543   1_545 S
C160   C587    1.530   1_545 S
C161   H184    1.110   .     S
C161   H183    1.111   .     S
C161   C373    1.530   .     S
C161   H398    1.111   .     S
C162   H176    1.111   .     S
C162   H175    1.112   .     S
C162   C364    1.543   .     S
C162   C376    1.534   .     S
C163   H174    1.111   .     S
C163   H189    1.110   .     S
C163   H188    1.108   .     S
C163   C588    1.534   1_545 S
C164   C166    1.531   .     S
C164   H181    1.105   .     S
C164   H180    1.105   .     S
C165   H182    1.080   .     S
C165   C793    1.389   1_554 S
C165   C806    1.403   1_554 S
C166   H178    1.111   .     S
C166   H177    1.111   .     S
C166   H818    1.108   1_554 S
C167   C168    1.405   .     A
C167   C804    1.403   .     S
C167   C808    1.417   .     S
C168   C172    1.410   .     A
C169   C806    1.417   1_554 S
C169   C809    1.430   1_554 S
C170   C171    1.420   .     A
C170   C796    1.424   .     S
C170   C808    1.430   .     S
C171   C172    1.401   .     A
C171   I191    2.141   .     S
C172   I195    2.143   .     S
H179   C805    1.108   .     S
H185   C587    1.111   1_545 S
I190   C7      2.143   1_655 S
I194   C793    2.128   1_554 S
O197   Zn213   1.935   .     S
O197   Zn210   1.963   .     S
O197   Zn211   1.928   .     S
O197   Zn212   1.934   .     S
O198   Zn211   1.914   .     S
O199   Zn213   1.921   .     S
O200   Zn212   1.911   .     S
O201   Zn210   1.907   .     S
O202   Zn210   1.934   .     S
O203   Zn213   1.941   .     S
O204   Zn211   1.934   .     S
O205   Zn212   1.941   .     S
O206   Zn213   1.931   .     S
O207   Zn210   1.927   .     S
O208   Zn211   1.951   .     S
O209   Zn212   1.942   .     S
C214   O275    1.258   .     A
C214   C220    1.427   .     S
C214   O277    1.267   .     A
C215   C235    1.534   .     S
C215   C229    1.403   .     A
C215   C240    1.427   .     A
C216   H244    1.084   .     S
C216   C228    1.393   .     A
C216   C229    1.394   .     A
C217   O276    1.288   .     A
C217   O278    1.272   .     A
C217   C219    1.455   .     S
C218   C227    1.493   .     S
C218   C230    1.430   .     A
C218   C239    1.427   .     A
C219   C291    1.352   .     S
C219   I338    2.140   .     S
C220   C361    1.352   1_455 S
C220   I403    2.143   1_455 S
C221   C224    1.472   .     S
C221   C435    1.369   .     S
C221   C444    1.543   .     S
C222   C223    1.441   .     S
C223   O273    1.280   .     A
C223   O279    1.258   .     A
C224   O280    1.276   .     A
C224   O274    1.269   .     A
C225   C230    1.406   .     A
C225   C875    1.389   .     S
C225   I904    2.128   .     S
C226   O271    1.279   .     A
C226   C229    1.470   .     S
C226   O269    1.276   .     A
C227   O272    1.300   .     A
C227   O270    1.287   .     A
C228   I263    2.133   .     S
C228   C880    1.424   1_554 S
C230   I264    2.148   .     S
C231   H257    1.112   .     S
C231   H258    1.110   .     S
C232   H255    1.110   .     S
C232   H254    1.111   .     S
C232   C444    1.530   .     S
C232   H469    1.111   .     S
C233   H247    1.111   .     S
C233   H246    1.112   .     S
C233   C435    1.543   .     S
C233   C447    1.534   .     S
C234   H245    1.111   .     S
C234   H260    1.110   .     S
C234   H259    1.108   .     S
C235   C237    1.531   .     S
C235   H252    1.105   .     S
C235   H251    1.105   .     S
C236   H253    1.080   .     S
C236   C864    1.389   1_554 S
C236   C877    1.403   1_554 S
C237   H249    1.111   .     S
C237   H248    1.111   .     S
C237   H889    1.108   1_554 S
C238   C239    1.405   .     A
C238   C875    1.403   .     S
C238   C879    1.417   .     S
C239   C243    1.410   .     A
C240   C877    1.417   1_554 S
C240   C880    1.430   1_554 S
C241   C242    1.420   .     A
C241   C867    1.424   .     S
C241   C879    1.430   .     S
C242   C243    1.401   .     A
C242   I262    2.141   .     S
C243   I266    2.143   .     S
H250   C876    1.108   .     S
I261   C291    2.143   .     S
I265   C864    2.128   1_554 S
I267   C361    2.140   1_455 S
O268   Zn284   1.935   .     S
O268   Zn281   1.963   .     S
O268   Zn282   1.928   .     S
O268   Zn283   1.934   .     S
O269   Zn282   1.914   .     S
O270   Zn284   1.921   .     S
O271   Zn283   1.911   .     S
O272   Zn281   1.907   .     S
O273   Zn281   1.934   .     S
O274   Zn284   1.941   .     S
O275   Zn282   1.934   .     S
O276   Zn283   1.941   .     S
O277   Zn284   1.931   .     S
O278   Zn281   1.927   .     S
O279   Zn282   1.951   .     S
O280   Zn283   1.942   .     S
C285   O346    1.258   .     A
C285   C291    1.427   .     S
C285   O348    1.267   .     A
C286   C306    1.534   .     S
C286   C300    1.403   .     A
C286   C311    1.427   .     A
C287   H315    1.084   .     S
C287   C299    1.393   .     A
C287   C300    1.394   .     A
C288   O347    1.288   .     A
C288   O349    1.272   .     A
C288   C290    1.455   .     S
C289   C298    1.493   .     S
C289   C301    1.430   .     A
C289   C310    1.427   .     A
C290   C362    1.352   .     S
C290   I409    2.140   .     S
C292   C295    1.472   .     S
C292   C506    1.369   .     S
C292   C515    1.543   .     S
C293   C294    1.441   .     S
C294   O344    1.280   .     A
C294   O350    1.258   .     A
C295   O351    1.276   .     A
C295   O345    1.269   .     A
C296   C301    1.406   .     A
C296   C946    1.389   .     S
C296   I975    2.128   .     S
C297   O342    1.279   .     A
C297   C300    1.470   .     S
C297   O340    1.276   .     A
C298   O343    1.300   .     A
C298   O341    1.287   .     A
C299   I334    2.133   .     S
C299   C951    1.424   1_554 S
C301   I335    2.148   .     S
C302   H328    1.112   .     S
C302   H329    1.110   .     S
C303   H326    1.110   .     S
C303   H325    1.111   .     S
C303   C515    1.530   .     S
C303   H540    1.111   .     S
C304   H318    1.111   .     S
C304   H317    1.112   .     S
C304   C506    1.543   .     S
C304   C518    1.534   .     S
C305   H316    1.111   .     S
C305   H331    1.110   .     S
C305   H330    1.108   .     S
C306   C308    1.531   .     S
C306   H323    1.105   .     S
C306   H322    1.105   .     S
C307   H324    1.080   .     S
C307   C935    1.389   1_554 S
C307   C948    1.403   1_554 S
C308   H320    1.111   .     S
C308   H319    1.111   .     S
C308   H960    1.108   1_554 S
C309   C310    1.405   .     A
C309   C946    1.403   .     S
C309   C950    1.417   .     S
C310   C314    1.410   .     A
C311   C948    1.417   1_554 S
C311   C951    1.430   1_554 S
C312   C313    1.420   .     A
C312   C938    1.424   .     S
C312   C950    1.430   .     S
C313   C314    1.401   .     A
C313   I333    2.141   .     S
C314   I337    2.143   .     S
H321   C947    1.108   .     S
I332   C362    2.143   .     S
I336   C935    2.128   1_554 S
O339   Zn355   1.935   .     S
O339   Zn352   1.963   .     S
O339   Zn353   1.928   .     S
O339   Zn354   1.934   .     S
O340   Zn353   1.914   .     S
O341   Zn355   1.921   .     S
O342   Zn354   1.911   .     S
O343   Zn352   1.907   .     S
O344   Zn352   1.934   .     S
O345   Zn355   1.941   .     S
O346   Zn353   1.934   .     S
O347   Zn354   1.941   .     S
O348   Zn355   1.931   .     S
O349   Zn352   1.927   .     S
O350   Zn353   1.951   .     S
O351   Zn354   1.942   .     S
C356   O417    1.258   .     A
C356   C362    1.427   .     S
C356   O419    1.267   .     A
C357   C377    1.534   .     S
C357   C371    1.403   .     A
C357   C382    1.427   .     A
C358   H386    1.084   .     S
C358   C370    1.393   .     A
C358   C371    1.394   .     A
C359   O418    1.288   .     A
C359   O420    1.272   .     A
C359   C361    1.455   .     S
C360   C369    1.493   .     S
C360   C372    1.430   .     A
C360   C381    1.427   .     A
C361   C220    1.352   1_655 S
C361   I267    2.140   1_655 S
C363   C366    1.472   .     S
C363   C577    1.369   .     S
C363   C586    1.543   .     S
C364   C365    1.441   .     S
C365   O415    1.280   .     A
C365   O421    1.258   .     A
C366   O422    1.276   .     A
C366   O416    1.269   .     A
C367   C372    1.406   .     A
C367   C1017   1.389   .     S
C367   I1046   2.128   .     S
C368   O413    1.279   .     A
C368   C371    1.470   .     S
C368   O411    1.276   .     A
C369   O414    1.300   .     A
C369   O412    1.287   .     A
C370   I405    2.133   .     S
C370   C1022   1.424   1_554 S
C372   I406    2.148   .     S
C373   H399    1.112   .     S
C373   H400    1.110   .     S
C374   H397    1.110   .     S
C374   H396    1.111   .     S
C374   C586    1.530   .     S
C374   H611    1.111   .     S
C375   H389    1.111   .     S
C375   H388    1.112   .     S
C375   C577    1.543   .     S
C375   C589    1.534   .     S
C376   H387    1.111   .     S
C376   H402    1.110   .     S
C376   H401    1.108   .     S
C377   C379    1.531   .     S
C377   H394    1.105   .     S
C377   H393    1.105   .     S
C378   H395    1.080   .     S
C378   C1006   1.389   1_554 S
C378   C1019   1.403   1_554 S
C379   H391    1.111   .     S
C379   H390    1.111   .     S
C379   H1031   1.108   1_554 S
C380   C381    1.405   .     A
C380   C1017   1.403   .     S
C380   C1021   1.417   .     S
C381   C385    1.410   .     A
C382   C1019   1.417   1_554 S
C382   C1022   1.430   1_554 S
C383   C384    1.420   .     A
C383   C1009   1.424   .     S
C383   C1021   1.430   .     S
C384   C385    1.401   .     A
C384   I404    2.141   .     S
C385   I408    2.143   .     S
H392   C1018   1.108   .     S
I403   C220    2.143   1_655 S
I407   C1006   2.128   1_554 S
O410   Zn426   1.935   .     S
O410   Zn423   1.963   .     S
O410   Zn424   1.928   .     S
O410   Zn425   1.934   .     S
O411   Zn424   1.914   .     S
O412   Zn426   1.921   .     S
O413   Zn425   1.911   .     S
O414   Zn423   1.907   .     S
O415   Zn423   1.934   .     S
O416   Zn426   1.941   .     S
O417   Zn424   1.934   .     S
O418   Zn425   1.941   .     S
O419   Zn426   1.931   .     S
O420   Zn423   1.927   .     S
O421   Zn424   1.951   .     S
O422   Zn425   1.942   .     S
C427   O488    1.258   .     A
C427   C433    1.427   .     S
C427   O490    1.267   .     A
C428   C448    1.534   .     S
C428   C442    1.403   .     A
C428   C453    1.427   .     A
C429   H457    1.084   .     S
C429   C441    1.393   .     A
C429   C442    1.394   .     A
C430   O489    1.288   .     A
C430   O491    1.272   .     A
C430   C432    1.455   .     S
C431   C440    1.493   .     S
C431   C443    1.430   .     A
C431   C452    1.427   .     A
C432   C504    1.352   .     S
C432   I551    2.140   .     S
C433   C574    1.352   1_455 S
C433   I616    2.143   1_455 S
C434   C437    1.472   .     S
C434   C9      1.369   1_565 S
C434   C18     1.543   1_565 S
C435   C436    1.441   .     S
C436   O486    1.280   .     A
C436   O492    1.258   .     A
C437   O493    1.276   .     A
C437   O487    1.269   .     A
C438   C443    1.406   .     A
C438   C1088   1.389   .     S
C438   I1117   2.128   .     S
C439   O484    1.279   .     A
C439   C442    1.470   .     S
C439   O482    1.276   .     A
C440   O485    1.300   .     A
C440   O483    1.287   .     A
C441   I476    2.133   .     S
C441   C1093   1.424   1_554 S
C443   I477    2.148   .     S
C444   H470    1.112   .     S
C444   H471    1.110   .     S
C445   H468    1.110   .     S
C445   H467    1.111   .     S
C445   C18     1.530   1_565 S
C445   H43     1.111   1_565 S
C446   H460    1.111   .     S
C446   H459    1.112   .     S
C446   C9      1.543   1_565 S
C446   C21     1.534   1_565 S
C447   H458    1.111   .     S
C447   H473    1.110   .     S
C447   H472    1.108   .     S
C448   C450    1.531   .     S
C448   H465    1.105   .     S
C448   H464    1.105   .     S
C449   H466    1.080   .     S
C449   C1077   1.389   1_554 S
C449   C1090   1.403   1_554 S
C450   H462    1.111   .     S
C450   H461    1.111   .     S
C450   H1102   1.108   1_554 S
C451   C452    1.405   .     A
C451   C1088   1.403   .     S
C451   C1092   1.417   .     S
C452   C456    1.410   .     A
C453   C1090   1.417   1_554 S
C453   C1093   1.430   1_554 S
C454   C455    1.420   .     A
C454   C1080   1.424   .     S
C454   C1092   1.430   .     S
C455   C456    1.401   .     A
C455   I475    2.141   .     S
C456   I479    2.143   .     S
H463   C1089   1.108   .     S
I474   C504    2.143   .     S
I478   C1077   2.128   1_554 S
I480   C574    2.140   1_455 S
O481   Zn497   1.935   .     S
O481   Zn494   1.963   .     S
O481   Zn495   1.928   .     S
O481   Zn496   1.934   .     S
O482   Zn495   1.914   .     S
O483   Zn497   1.921   .     S
O484   Zn496   1.911   .     S
O485   Zn494   1.907   .     S
O486   Zn494   1.934   .     S
O487   Zn497   1.941   .     S
O488   Zn495   1.934   .     S
O489   Zn496   1.941   .     S
O490   Zn497   1.931   .     S
O491   Zn494   1.927   .     S
O492   Zn495   1.951   .     S
O493   Zn496   1.942   .     S
C498   O559    1.258   .     A
C498   C504    1.427   .     S
C498   O561    1.267   .     A
C499   C519    1.534   .     S
C499   C513    1.403   .     A
C499   C524    1.427   .     A
C500   H528    1.084   .     S
C500   C512    1.393   .     A
C500   C513    1.394   .     A
C501   O560    1.288   .     A
C501   O562    1.272   .     A
C501   C503    1.455   .     S
C502   C511    1.493   .     S
C502   C514    1.430   .     A
C502   C523    1.427   .     A
C503   C575    1.352   .     S
C503   I622    2.140   .     S
C505   C508    1.472   .     S
C505   C80     1.369   1_565 S
C505   C89     1.543   1_565 S
C506   C507    1.441   .     S
C507   O557    1.280   .     A
C507   O563    1.258   .     A
C508   O564    1.276   .     A
C508   O558    1.269   .     A
C509   C514    1.406   .     A
C509   C1159   1.389   .     S
C509   I1188   2.128   .     S
C510   O555    1.279   .     A
C510   C513    1.470   .     S
C510   O553    1.276   .     A
C511   O556    1.300   .     A
C511   O554    1.287   .     A
C512   I547    2.133   .     S
C512   C1164   1.424   1_554 S
C514   I548    2.148   .     S
C515   H541    1.112   .     S
C515   H542    1.110   .     S
C516   H539    1.110   .     S
C516   H538    1.111   .     S
C516   C89     1.530   1_565 S
C516   H114    1.111   1_565 S
C517   H531    1.111   .     S
C517   H530    1.112   .     S
C517   C80     1.543   1_565 S
C517   C92     1.534   1_565 S
C518   H529    1.111   .     S
C518   H544    1.110   .     S
C518   H543    1.108   .     S
C519   C521    1.531   .     S
C519   H536    1.105   .     S
C519   H535    1.105   .     S
C520   H537    1.080   .     S
C520   C1148   1.389   1_554 S
C520   C1161   1.403   1_554 S
C521   H533    1.111   .     S
C521   H532    1.111   .     S
C521   H1173   1.108   1_554 S
C522   C523    1.405   .     A
C522   C1159   1.403   .     S
C522   C1163   1.417   .     S
C523   C527    1.410   .     A
C524   C1161   1.417   1_554 S
C524   C1164   1.430   1_554 S
C525   C526    1.420   .     A
C525   C1151   1.424   .     S
C525   C1163   1.430   .     S
C526   C527    1.401   .     A
C526   I546    2.141   .     S
C527   I550    2.143   .     S
H534   C1160   1.108   .     S
I545   C575    2.143   .     S
I549   C1148   2.128   1_554 S
O552   Zn568   1.935   .     S
O552   Zn565   1.963   .     S
O552   Zn566   1.928   .     S
O552   Zn567   1.934   .     S
O553   Zn566   1.914   .     S
O554   Zn568   1.921   .     S
O555   Zn567   1.911   .     S
O556   Zn565   1.907   .     S
O557   Zn565   1.934   .     S
O558   Zn568   1.941   .     S
O559   Zn566   1.934   .     S
O560   Zn567   1.941   .     S
O561   Zn568   1.931   .     S
O562   Zn565   1.927   .     S
O563   Zn566   1.951   .     S
O564   Zn567   1.942   .     S
C569   O630    1.258   .     A
C569   C575    1.427   .     S
C569   O632    1.267   .     A
C570   C590    1.534   .     S
C570   C584    1.403   .     A
C570   C595    1.427   .     A
C571   H599    1.084   .     S
C571   C583    1.393   .     A
C571   C584    1.394   .     A
C572   O631    1.288   .     A
C572   O633    1.272   .     A
C572   C574    1.455   .     S
C573   C582    1.493   .     S
C573   C585    1.430   .     A
C573   C594    1.427   .     A
C574   C433    1.352   1_655 S
C574   I480    2.140   1_655 S
C576   C579    1.472   .     S
C576   C151    1.369   1_565 S
C576   C160    1.543   1_565 S
C577   C578    1.441   .     S
C578   O628    1.280   .     A
C578   O634    1.258   .     A
C579   O635    1.276   .     A
C579   O629    1.269   .     A
C580   C585    1.406   .     A
C580   C1230   1.389   .     S
C580   I1259   2.128   .     S
C581   O626    1.279   .     A
C581   C584    1.470   .     S
C581   O624    1.276   .     A
C582   O627    1.300   .     A
C582   O625    1.287   .     A
C583   I618    2.133   .     S
C583   C1235   1.424   1_554 S
C585   I619    2.148   .     S
C586   H612    1.112   .     S
C586   H613    1.110   .     S
C587   H610    1.110   .     S
C587   H609    1.111   .     S
C587   C160    1.530   1_565 S
C587   H185    1.111   1_565 S
C588   H602    1.111   .     S
C588   H601    1.112   .     S
C588   C151    1.543   1_565 S
C588   C163    1.534   1_565 S
C589   H600    1.111   .     S
C589   H615    1.110   .     S
C589   H614    1.108   .     S
C590   C592    1.531   .     S
C590   H607    1.105   .     S
C590   H606    1.105   .     S
C591   H608    1.080   .     S
C591   C1219   1.389   1_554 S
C591   C1232   1.403   1_554 S
C592   H604    1.111   .     S
C592   H603    1.111   .     S
C592   H1244   1.108   1_554 S
C593   C594    1.405   .     A
C593   C1230   1.403   .     S
C593   C1234   1.417   .     S
C594   C598    1.410   .     A
C595   C1232   1.417   1_554 S
C595   C1235   1.430   1_554 S
C596   C597    1.420   .     A
C596   C1222   1.424   .     S
C596   C1234   1.430   .     S
C597   C598    1.401   .     A
C597   I617    2.141   .     S
C598   I621    2.143   .     S
H605   C1231   1.108   .     S
I616   C433    2.143   1_655 S
I620   C1219   2.128   1_554 S
O623   Zn639   1.935   .     S
O623   Zn636   1.963   .     S
O623   Zn637   1.928   .     S
O623   Zn638   1.934   .     S
O624   Zn637   1.914   .     S
O625   Zn639   1.921   .     S
O626   Zn638   1.911   .     S
O627   Zn636   1.907   .     S
O628   Zn636   1.934   .     S
O629   Zn639   1.941   .     S
O630   Zn637   1.934   .     S
O631   Zn638   1.941   .     S
O632   Zn639   1.931   .     S
O633   Zn636   1.927   .     S
O634   Zn637   1.951   .     S
O635   Zn638   1.942   .     S
C640   O701    1.258   .     A
C640   C646    1.427   .     S
C640   O703    1.267   .     A
C641   C661    1.534   .     S
C641   C655    1.403   .     A
C641   C666    1.427   .     A
C642   H670    1.084   .     S
C642   C654    1.393   .     A
C642   C655    1.394   .     A
C643   O702    1.288   .     A
C643   O704    1.272   .     A
C643   C645    1.455   .     S
C644   C653    1.493   .     S
C644   C656    1.430   .     A
C644   C665    1.427   .     A
C645   C717    1.352   .     S
C645   I764    2.140   .     S
C646   C787    1.352   1_455 S
C646   I829    2.143   1_455 S
C647   C650    1.472   .     S
C647   C861    1.369   .     S
C647   C870    1.543   .     S
C648   C649    1.441   .     S
C648   C1073   1.369   1_545 S
C648   C1085   1.543   1_545 S
C649   O699    1.280   .     A
C649   O705    1.258   .     A
C650   O706    1.276   .     A
C650   O700    1.269   .     A
C651   C656    1.406   .     A
C651   C23     1.389   1_556 S
C651   I52     2.128   1_556 S
C652   O697    1.279   .     A
C652   C655    1.470   .     S
C652   O695    1.276   .     A
C653   O698    1.300   .     A
C653   O696    1.287   .     A
C654   I689    2.133   .     S
C656   I690    2.148   .     S
C657   H683    1.112   .     S
C657   H684    1.110   .     S
C657   C1073   1.543   1_545 S
C657   C1084   1.530   1_545 S
C658   H681    1.110   .     S
C658   H680    1.111   .     S
C658   C870    1.530   .     S
C658   H895    1.111   .     S
C659   H673    1.111   .     S
C659   H672    1.112   .     S
C659   C861    1.543   .     S
C659   C873    1.534   .     S
C660   H671    1.111   .     S
C660   H686    1.110   .     S
C660   H685    1.108   .     S
C660   C1085   1.534   1_545 S
C661   C663    1.531   .     S
C661   H678    1.105   .     S
C661   H677    1.105   .     S
C662   H679    1.080   .     S
C663   H675    1.111   .     S
C663   H674    1.111   .     S
C664   C665    1.405   .     A
C664   C23     1.403   1_556 S
C664   C27     1.417   1_556 S
C665   C669    1.410   .     A
C667   C668    1.420   .     A
C667   C15     1.424   1_556 S
C667   C27     1.430   1_556 S
C668   C669    1.401   .     A
C668   I688    2.141   .     S
C669   I692    2.143   .     S
H676   C24     1.108   1_556 S
H682   C1084   1.111   1_545 S
I687   C717    2.143   .     S
I693   C787    2.140   1_455 S
O694   Zn710   1.935   .     S
O694   Zn707   1.963   .     S
O694   Zn708   1.928   .     S
O694   Zn709   1.934   .     S
O695   Zn708   1.914   .     S
O696   Zn710   1.921   .     S
O697   Zn709   1.911   .     S
O698   Zn707   1.907   .     S
O699   Zn707   1.934   .     S
O700   Zn710   1.941   .     S
O701   Zn708   1.934   .     S
O702   Zn709   1.941   .     S
O703   Zn710   1.931   .     S
O704   Zn707   1.927   .     S
O705   Zn708   1.951   .     S
O706   Zn709   1.942   .     S
C711   O772    1.258   .     A
C711   C717    1.427   .     S
C711   O774    1.267   .     A
C712   C732    1.534   .     S
C712   C726    1.403   .     A
C712   C737    1.427   .     A
C713   H741    1.084   .     S
C713   C725    1.393   .     A
C713   C726    1.394   .     A
C714   O773    1.288   .     A
C714   O775    1.272   .     A
C714   C716    1.455   .     S
C715   C724    1.493   .     S
C715   C727    1.430   .     A
C715   C736    1.427   .     A
C716   C788    1.352   .     S
C716   I835    2.140   .     S
C718   C721    1.472   .     S
C718   C932    1.369   .     S
C718   C941    1.543   .     S
C719   C720    1.441   .     S
C719   C1144   1.369   1_545 S
C719   C1156   1.543   1_545 S
C720   O770    1.280   .     A
C720   O776    1.258   .     A
C721   O777    1.276   .     A
C721   O771    1.269   .     A
C722   C727    1.406   .     A
C722   C94     1.389   1_556 S
C722   I123    2.128   1_556 S
C723   O768    1.279   .     A
C723   C726    1.470   .     S
C723   O766    1.276   .     A
C724   O769    1.300   .     A
C724   O767    1.287   .     A
C725   I760    2.133   .     S
C727   I761    2.148   .     S
C728   H754    1.112   .     S
C728   H755    1.110   .     S
C728   C1144   1.543   1_545 S
C728   C1155   1.530   1_545 S
C729   H752    1.110   .     S
C729   H751    1.111   .     S
C729   C941    1.530   .     S
C729   H966    1.111   .     S
C730   H744    1.111   .     S
C730   H743    1.112   .     S
C730   C932    1.543   .     S
C730   C944    1.534   .     S
C731   H742    1.111   .     S
C731   H757    1.110   .     S
C731   H756    1.108   .     S
C731   C1156   1.534   1_545 S
C732   C734    1.531   .     S
C732   H749    1.105   .     S
C732   H748    1.105   .     S
C733   H750    1.080   .     S
C734   H746    1.111   .     S
C734   H745    1.111   .     S
C735   C736    1.405   .     A
C735   C94     1.403   1_556 S
C735   C98     1.417   1_556 S
C736   C740    1.410   .     A
C738   C739    1.420   .     A
C738   C86     1.424   1_556 S
C738   C98     1.430   1_556 S
C739   C740    1.401   .     A
C739   I759    2.141   .     S
C740   I763    2.143   .     S
H747   C95     1.108   1_556 S
H753   C1155   1.111   1_545 S
I758   C788    2.143   .     S
O765   Zn781   1.935   .     S
O765   Zn778   1.963   .     S
O765   Zn779   1.928   .     S
O765   Zn780   1.934   .     S
O766   Zn779   1.914   .     S
O767   Zn781   1.921   .     S
O768   Zn780   1.911   .     S
O769   Zn778   1.907   .     S
O770   Zn778   1.934   .     S
O771   Zn781   1.941   .     S
O772   Zn779   1.934   .     S
O773   Zn780   1.941   .     S
O774   Zn781   1.931   .     S
O775   Zn778   1.927   .     S
O776   Zn779   1.951   .     S
O777   Zn780   1.942   .     S
C782   O843    1.258   .     A
C782   C788    1.427   .     S
C782   O845    1.267   .     A
C783   C803    1.534   .     S
C783   C797    1.403   .     A
C783   C808    1.427   .     A
C784   H812    1.084   .     S
C784   C796    1.393   .     A
C784   C797    1.394   .     A
C785   O844    1.288   .     A
C785   O846    1.272   .     A
C785   C787    1.455   .     S
C786   C795    1.493   .     S
C786   C798    1.430   .     A
C786   C807    1.427   .     A
C787   C646    1.352   1_655 S
C787   I693    2.140   1_655 S
C789   C792    1.472   .     S
C789   C1003   1.369   .     S
C789   C1012   1.543   .     S
C790   C791    1.441   .     S
C790   C1215   1.369   1_545 S
C790   C1227   1.543   1_545 S
C791   O841    1.280   .     A
C791   O847    1.258   .     A
C792   O848    1.276   .     A
C792   O842    1.269   .     A
C793   C798    1.406   .     A
C793   C165    1.389   1_556 S
C793   I194    2.128   1_556 S
C794   O839    1.279   .     A
C794   C797    1.470   .     S
C794   O837    1.276   .     A
C795   O840    1.300   .     A
C795   O838    1.287   .     A
C796   I831    2.133   .     S
C798   I832    2.148   .     S
C799   H825    1.112   .     S
C799   H826    1.110   .     S
C799   C1215   1.543   1_545 S
C799   C1226   1.530   1_545 S
C800   H823    1.110   .     S
C800   H822    1.111   .     S
C800   C1012   1.530   .     S
C800   H1037   1.111   .     S
C801   H815    1.111   .     S
C801   H814    1.112   .     S
C801   C1003   1.543   .     S
C801   C1015   1.534   .     S
C802   H813    1.111   .     S
C802   H828    1.110   .     S
C802   H827    1.108   .     S
C802   C1227   1.534   1_545 S
C803   C805    1.531   .     S
C803   H820    1.105   .     S
C803   H819    1.105   .     S
C804   H821    1.080   .     S
C805   H817    1.111   .     S
C805   H816    1.111   .     S
C806   C807    1.405   .     A
C806   C165    1.403   1_556 S
C806   C169    1.417   1_556 S
C807   C811    1.410   .     A
C809   C810    1.420   .     A
C809   C157    1.424   1_556 S
C809   C169    1.430   1_556 S
C810   C811    1.401   .     A
C810   I830    2.141   .     S
C811   I834    2.143   .     S
H818   C166    1.108   1_556 S
H824   C1226   1.111   1_545 S
I829   C646    2.143   1_655 S
O836   Zn852   1.935   .     S
O836   Zn849   1.963   .     S
O836   Zn850   1.928   .     S
O836   Zn851   1.934   .     S
O837   Zn850   1.914   .     S
O838   Zn852   1.921   .     S
O839   Zn851   1.911   .     S
O840   Zn849   1.907   .     S
O841   Zn849   1.934   .     S
O842   Zn852   1.941   .     S
O843   Zn850   1.934   .     S
O844   Zn851   1.941   .     S
O845   Zn852   1.931   .     S
O846   Zn849   1.927   .     S
O847   Zn850   1.951   .     S
O848   Zn851   1.942   .     S
C853   O914    1.258   .     A
C853   C859    1.427   .     S
C853   O916    1.267   .     A
C854   C874    1.534   .     S
C854   C868    1.403   .     A
C854   C879    1.427   .     A
C855   H883    1.084   .     S
C855   C867    1.393   .     A
C855   C868    1.394   .     A
C856   O915    1.288   .     A
C856   O917    1.272   .     A
C856   C858    1.455   .     S
C857   C866    1.493   .     S
C857   C869    1.430   .     A
C857   C878    1.427   .     A
C858   C930    1.352   .     S
C858   I977    2.140   .     S
C859   C1000   1.352   1_455 S
C859   I1042   2.143   1_455 S
C860   C863    1.472   .     S
C860   C1074   1.369   .     S
C860   C1083   1.543   .     S
C861   C862    1.441   .     S
C862   O912    1.280   .     A
C862   O918    1.258   .     A
C863   O919    1.276   .     A
C863   O913    1.269   .     A
C864   C869    1.406   .     A
C864   C236    1.389   1_556 S
C864   I265    2.128   1_556 S
C865   O910    1.279   .     A
C865   C868    1.470   .     S
C865   O908    1.276   .     A
C866   O911    1.300   .     A
C866   O909    1.287   .     A
C867   I902    2.133   .     S
C869   I903    2.148   .     S
C870   H896    1.112   .     S
C870   H897    1.110   .     S
C871   H894    1.110   .     S
C871   H893    1.111   .     S
C871   C1083   1.530   .     S
C871   H1108   1.111   .     S
C872   H886    1.111   .     S
C872   H885    1.112   .     S
C872   C1074   1.543   .     S
C872   C1086   1.534   .     S
C873   H884    1.111   .     S
C873   H899    1.110   .     S
C873   H898    1.108   .     S
C874   C876    1.531   .     S
C874   H891    1.105   .     S
C874   H890    1.105   .     S
C875   H892    1.080   .     S
C876   H888    1.111   .     S
C876   H887    1.111   .     S
C877   C878    1.405   .     A
C877   C236    1.403   1_556 S
C877   C240    1.417   1_556 S
C878   C882    1.410   .     A
C880   C881    1.420   .     A
C880   C228    1.424   1_556 S
C880   C240    1.430   1_556 S
C881   C882    1.401   .     A
C881   I901    2.141   .     S
C882   I905    2.143   .     S
H889   C237    1.108   1_556 S
I900   C930    2.143   .     S
I906   C1000   2.140   1_455 S
O907   Zn923   1.935   .     S
O907   Zn920   1.963   .     S
O907   Zn921   1.928   .     S
O907   Zn922   1.934   .     S
O908   Zn921   1.914   .     S
O909   Zn923   1.921   .     S
O910   Zn922   1.911   .     S
O911   Zn920   1.907   .     S
O912   Zn920   1.934   .     S
O913   Zn923   1.941   .     S
O914   Zn921   1.934   .     S
O915   Zn922   1.941   .     S
O916   Zn923   1.931   .     S
O917   Zn920   1.927   .     S
O918   Zn921   1.951   .     S
O919   Zn922   1.942   .     S
C924   O985    1.258   .     A
C924   C930    1.427   .     S
C924   O987    1.267   .     A
C925   C945    1.534   .     S
C925   C939    1.403   .     A
C925   C950    1.427   .     A
C926   H954    1.084   .     S
C926   C938    1.393   .     A
C926   C939    1.394   .     A
C927   O986    1.288   .     A
C927   O988    1.272   .     A
C927   C929    1.455   .     S
C928   C937    1.493   .     S
C928   C940    1.430   .     A
C928   C949    1.427   .     A
C929   C1001   1.352   .     S
C929   I1048   2.140   .     S
C931   C934    1.472   .     S
C931   C1145   1.369   .     S
C931   C1154   1.543   .     S
C932   C933    1.441   .     S
C933   O983    1.280   .     A
C933   O989    1.258   .     A
C934   O990    1.276   .     A
C934   O984    1.269   .     A
C935   C940    1.406   .     A
C935   C307    1.389   1_556 S
C935   I336    2.128   1_556 S
C936   O981    1.279   .     A
C936   C939    1.470   .     S
C936   O979    1.276   .     A
C937   O982    1.300   .     A
C937   O980    1.287   .     A
C938   I973    2.133   .     S
C940   I974    2.148   .     S
C941   H967    1.112   .     S
C941   H968    1.110   .     S
C942   H965    1.110   .     S
C942   H964    1.111   .     S
C942   C1154   1.530   .     S
C942   H1179   1.111   .     S
C943   H957    1.111   .     S
C943   H956    1.112   .     S
C943   C1145   1.543   .     S
C943   C1157   1.534   .     S
C944   H955    1.111   .     S
C944   H970    1.110   .     S
C944   H969    1.108   .     S
C945   C947    1.531   .     S
C945   H962    1.105   .     S
C945   H961    1.105   .     S
C946   H963    1.080   .     S
C947   H959    1.111   .     S
C947   H958    1.111   .     S
C948   C949    1.405   .     A
C948   C307    1.403   1_556 S
C948   C311    1.417   1_556 S
C949   C953    1.410   .     A
C951   C952    1.420   .     A
C951   C299    1.424   1_556 S
C951   C311    1.430   1_556 S
C952   C953    1.401   .     A
C952   I972    2.141   .     S
C953   I976    2.143   .     S
H960   C308    1.108   1_556 S
I971   C1001   2.143   .     S
O978   Zn994   1.935   .     S
O978   Zn991   1.963   .     S
O978   Zn992   1.928   .     S
O978   Zn993   1.934   .     S
O979   Zn992   1.914   .     S
O980   Zn994   1.921   .     S
O981   Zn993   1.911   .     S
O982   Zn991   1.907   .     S
O983   Zn991   1.934   .     S
O984   Zn994   1.941   .     S
O985   Zn992   1.934   .     S
O986   Zn993   1.941   .     S
O987   Zn994   1.931   .     S
O988   Zn991   1.927   .     S
O989   Zn992   1.951   .     S
O990   Zn993   1.942   .     S
C995   O1056   1.258   .     A
C995   C1001   1.427   .     S
C995   O1058   1.267   .     A
C996   C1016   1.534   .     S
C996   C1010   1.403   .     A
C996   C1021   1.427   .     A
C997   H1025   1.084   .     S
C997   C1009   1.393   .     A
C997   C1010   1.394   .     A
C998   O1057   1.288   .     A
C998   O1059   1.272   .     A
C998   C1000   1.455   .     S
C999   C1008   1.493   .     S
C999   C1011   1.430   .     A
C999   C1020   1.427   .     A
C1000  C859    1.352   1_655 S
C1000  I906    2.140   1_655 S
C1002  C1005   1.472   .     S
C1002  C1216   1.369   .     S
C1002  C1225   1.543   .     S
C1003  C1004   1.441   .     S
C1004  O1054   1.280   .     A
C1004  O1060   1.258   .     A
C1005  O1061   1.276   .     A
C1005  O1055   1.269   .     A
C1006  C1011   1.406   .     A
C1006  C378    1.389   1_556 S
C1006  I407    2.128   1_556 S
C1007  O1052   1.279   .     A
C1007  C1010   1.470   .     S
C1007  O1050   1.276   .     A
C1008  O1053   1.300   .     A
C1008  O1051   1.287   .     A
C1009  I1044   2.133   .     S
C1011  I1045   2.148   .     S
C1012  H1038   1.112   .     S
C1012  H1039   1.110   .     S
C1013  H1036   1.110   .     S
C1013  H1035   1.111   .     S
C1013  C1225   1.530   .     S
C1013  H1250   1.111   .     S
C1014  H1028   1.111   .     S
C1014  H1027   1.112   .     S
C1014  C1216   1.543   .     S
C1014  C1228   1.534   .     S
C1015  H1026   1.111   .     S
C1015  H1041   1.110   .     S
C1015  H1040   1.108   .     S
C1016  C1018   1.531   .     S
C1016  H1033   1.105   .     S
C1016  H1032   1.105   .     S
C1017  H1034   1.080   .     S
C1018  H1030   1.111   .     S
C1018  H1029   1.111   .     S
C1019  C1020   1.405   .     A
C1019  C378    1.403   1_556 S
C1019  C382    1.417   1_556 S
C1020  C1024   1.410   .     A
C1022  C1023   1.420   .     A
C1022  C370    1.424   1_556 S
C1022  C382    1.430   1_556 S
C1023  C1024   1.401   .     A
C1023  I1043   2.141   .     S
C1024  I1047   2.143   .     S
H1031  C379    1.108   1_556 S
I1042  C859    2.143   1_655 S
O1049  Zn1065  1.935   .     S
O1049  Zn1062  1.963   .     S
O1049  Zn1063  1.928   .     S
O1049  Zn1064  1.934   .     S
O1050  Zn1063  1.914   .     S
O1051  Zn1065  1.921   .     S
O1052  Zn1064  1.911   .     S
O1053  Zn1062  1.907   .     S
O1054  Zn1062  1.934   .     S
O1055  Zn1065  1.941   .     S
O1056  Zn1063  1.934   .     S
O1057  Zn1064  1.941   .     S
O1058  Zn1065  1.931   .     S
O1059  Zn1062  1.927   .     S
O1060  Zn1063  1.951   .     S
O1061  Zn1064  1.942   .     S
C1066  O1127   1.258   .     A
C1066  C1072   1.427   .     S
C1066  O1129   1.267   .     A
C1067  C1087   1.534   .     S
C1067  C1081   1.403   .     A
C1067  C1092   1.427   .     A
C1068  H1096   1.084   .     S
C1068  C1080   1.393   .     A
C1068  C1081   1.394   .     A
C1069  O1128   1.288   .     A
C1069  O1130   1.272   .     A
C1069  C1071   1.455   .     S
C1070  C1079   1.493   .     S
C1070  C1082   1.430   .     A
C1070  C1091   1.427   .     A
C1071  C1143   1.352   .     S
C1071  I1190   2.140   .     S
C1072  C1213   1.352   1_455 S
C1072  I1255   2.143   1_455 S
C1073  C1076   1.472   .     S
C1073  C648    1.369   1_565 S
C1073  C657    1.543   1_565 S
C1074  C1075   1.441   .     S
C1075  O1125   1.280   .     A
C1075  O1131   1.258   .     A
C1076  O1132   1.276   .     A
C1076  O1126   1.269   .     A
C1077  C1082   1.406   .     A
C1077  C449    1.389   1_556 S
C1077  I478    2.128   1_556 S
C1078  O1123   1.279   .     A
C1078  C1081   1.470   .     S
C1078  O1121   1.276   .     A
C1079  O1124   1.300   .     A
C1079  O1122   1.287   .     A
C1080  I1115   2.133   .     S
C1082  I1116   2.148   .     S
C1083  H1109   1.112   .     S
C1083  H1110   1.110   .     S
C1084  H1107   1.110   .     S
C1084  H1106   1.111   .     S
C1084  C657    1.530   1_565 S
C1084  H682    1.111   1_565 S
C1085  H1099   1.111   .     S
C1085  H1098   1.112   .     S
C1085  C648    1.543   1_565 S
C1085  C660    1.534   1_565 S
C1086  H1097   1.111   .     S
C1086  H1112   1.110   .     S
C1086  H1111   1.108   .     S
C1087  C1089   1.531   .     S
C1087  H1104   1.105   .     S
C1087  H1103   1.105   .     S
C1088  H1105   1.080   .     S
C1089  H1101   1.111   .     S
C1089  H1100   1.111   .     S
C1090  C1091   1.405   .     A
C1090  C449    1.403   1_556 S
C1090  C453    1.417   1_556 S
C1091  C1095   1.410   .     A
C1093  C1094   1.420   .     A
C1093  C441    1.424   1_556 S
C1093  C453    1.430   1_556 S
C1094  C1095   1.401   .     A
C1094  I1114   2.141   .     S
C1095  I1118   2.143   .     S
H1102  C450    1.108   1_556 S
I1113  C1143   2.143   .     S
I1119  C1213   2.140   1_455 S
O1120  Zn1136  1.935   .     S
O1120  Zn1133  1.963   .     S
O1120  Zn1134  1.928   .     S
O1120  Zn1135  1.934   .     S
O1121  Zn1134  1.914   .     S
O1122  Zn1136  1.921   .     S
O1123  Zn1135  1.911   .     S
O1124  Zn1133  1.907   .     S
O1125  Zn1133  1.934   .     S
O1126  Zn1136  1.941   .     S
O1127  Zn1134  1.934   .     S
O1128  Zn1135  1.941   .     S
O1129  Zn1136  1.931   .     S
O1130  Zn1133  1.927   .     S
O1131  Zn1134  1.951   .     S
O1132  Zn1135  1.942   .     S
C1137  O1198   1.258   .     A
C1137  C1143   1.427   .     S
C1137  O1200   1.267   .     A
C1138  C1158   1.534   .     S
C1138  C1152   1.403   .     A
C1138  C1163   1.427   .     A
C1139  H1167   1.084   .     S
C1139  C1151   1.393   .     A
C1139  C1152   1.394   .     A
C1140  O1199   1.288   .     A
C1140  O1201   1.272   .     A
C1140  C1142   1.455   .     S
C1141  C1150   1.493   .     S
C1141  C1153   1.430   .     A
C1141  C1162   1.427   .     A
C1142  C1214   1.352   .     S
C1142  I1261   2.140   .     S
C1144  C1147   1.472   .     S
C1144  C719    1.369   1_565 S
C1144  C728    1.543   1_565 S
C1145  C1146   1.441   .     S
C1146  O1196   1.280   .     A
C1146  O1202   1.258   .     A
C1147  O1203   1.276   .     A
C1147  O1197   1.269   .     A
C1148  C1153   1.406   .     A
C1148  C520    1.389   1_556 S
C1148  I549    2.128   1_556 S
C1149  O1194   1.279   .     A
C1149  C1152   1.470   .     S
C1149  O1192   1.276   .     A
C1150  O1195   1.300   .     A
C1150  O1193   1.287   .     A
C1151  I1186   2.133   .     S
C1153  I1187   2.148   .     S
C1154  H1180   1.112   .     S
C1154  H1181   1.110   .     S
C1155  H1178   1.110   .     S
C1155  H1177   1.111   .     S
C1155  C728    1.530   1_565 S
C1155  H753    1.111   1_565 S
C1156  H1170   1.111   .     S
C1156  H1169   1.112   .     S
C1156  C719    1.543   1_565 S
C1156  C731    1.534   1_565 S
C1157  H1168   1.111   .     S
C1157  H1183   1.110   .     S
C1157  H1182   1.108   .     S
C1158  C1160   1.531   .     S
C1158  H1175   1.105   .     S
C1158  H1174   1.105   .     S
C1159  H1176   1.080   .     S
C1160  H1172   1.111   .     S
C1160  H1171   1.111   .     S
C1161  C1162   1.405   .     A
C1161  C520    1.403   1_556 S
C1161  C524    1.417   1_556 S
C1162  C1166   1.410   .     A
C1164  C1165   1.420   .     A
C1164  C512    1.424   1_556 S
C1164  C524    1.430   1_556 S
C1165  C1166   1.401   .     A
C1165  I1185   2.141   .     S
C1166  I1189   2.143   .     S
H1173  C521    1.108   1_556 S
I1184  C1214   2.143   .     S
O1191  Zn1207  1.935   .     S
O1191  Zn1204  1.963   .     S
O1191  Zn1205  1.928   .     S
O1191  Zn1206  1.934   .     S
O1192  Zn1205  1.914   .     S
O1193  Zn1207  1.921   .     S
O1194  Zn1206  1.911   .     S
O1195  Zn1204  1.907   .     S
O1196  Zn1204  1.934   .     S
O1197  Zn1207  1.941   .     S
O1198  Zn1205  1.934   .     S
O1199  Zn1206  1.941   .     S
O1200  Zn1207  1.931   .     S
O1201  Zn1204  1.927   .     S
O1202  Zn1205  1.951   .     S
O1203  Zn1206  1.942   .     S
C1208  O1269   1.258   .     A
C1208  C1214   1.427   .     S
C1208  O1271   1.267   .     A
C1209  C1229   1.534   .     S
C1209  C1223   1.403   .     A
C1209  C1234   1.427   .     A
C1210  H1238   1.084   .     S
C1210  C1222   1.393   .     A
C1210  C1223   1.394   .     A
C1211  O1270   1.288   .     A
C1211  O1272   1.272   .     A
C1211  C1213   1.455   .     S
C1212  C1221   1.493   .     S
C1212  C1224   1.430   .     A
C1212  C1233   1.427   .     A
C1213  C1072   1.352   1_655 S
C1213  I1119   2.140   1_655 S
C1215  C1218   1.472   .     S
C1215  C790    1.369   1_565 S
C1215  C799    1.543   1_565 S
C1216  C1217   1.441   .     S
C1217  O1267   1.280   .     A
C1217  O1273   1.258   .     A
C1218  O1274   1.276   .     A
C1218  O1268   1.269   .     A
C1219  C1224   1.406   .     A
C1219  C591    1.389   1_556 S
C1219  I620    2.128   1_556 S
C1220  O1265   1.279   .     A
C1220  C1223   1.470   .     S
C1220  O1263   1.276   .     A
C1221  O1266   1.300   .     A
C1221  O1264   1.287   .     A
C1222  I1257   2.133   .     S
C1224  I1258   2.148   .     S
C1225  H1251   1.112   .     S
C1225  H1252   1.110   .     S
C1226  H1249   1.110   .     S
C1226  H1248   1.111   .     S
C1226  C799    1.530   1_565 S
C1226  H824    1.111   1_565 S
C1227  H1241   1.111   .     S
C1227  H1240   1.112   .     S
C1227  C790    1.543   1_565 S
C1227  C802    1.534   1_565 S
C1228  H1239   1.111   .     S
C1228  H1254   1.110   .     S
C1228  H1253   1.108   .     S
C1229  C1231   1.531   .     S
C1229  H1246   1.105   .     S
C1229  H1245   1.105   .     S
C1230  H1247   1.080   .     S
C1231  H1243   1.111   .     S
C1231  H1242   1.111   .     S
C1232  C1233   1.405   .     A
C1232  C591    1.403   1_556 S
C1232  C595    1.417   1_556 S
C1233  C1237   1.410   .     A
C1235  C1236   1.420   .     A
C1235  C583    1.424   1_556 S
C1235  C595    1.430   1_556 S
C1236  C1237   1.401   .     A
C1236  I1256   2.141   .     S
C1237  I1260   2.143   .     S
H1244  C592    1.108   1_556 S
I1255  C1072   2.143   1_655 S
O1262  Zn1278  1.935   .     S
O1262  Zn1275  1.963   .     S
O1262  Zn1276  1.928   .     S
O1262  Zn1277  1.934   .     S
O1263  Zn1276  1.914   .     S
O1264  Zn1278  1.921   .     S
O1265  Zn1277  1.911   .     S
O1266  Zn1275  1.907   .     S
O1267  Zn1275  1.934   .     S
O1268  Zn1278  1.941   .     S
O1269  Zn1276  1.934   .     S
O1270  Zn1277  1.941   .     S
O1271  Zn1278  1.931   .     S
O1272  Zn1275  1.927   .     S
O1273  Zn1276  1.951   .     S
O1274  Zn1277  1.942   .     S
