data_str_m1_o10_o16_pcu_sym.177
_audit_creation_date              2020-01-03
_audit_creation_method            'Materials Studio'
_symmetry_space_group_name_H-M    'P1'
_symmetry_Int_Tables_number       1
_symmetry_cell_setting            triclinic
loop_
_symmetry_equiv_pos_as_xyz
  x,y,z
_cell_length_a                    32.5286
_cell_length_b                    32.5600
_cell_length_c                    31.0275
_cell_angle_alpha                 96.6960
_cell_angle_beta                  75.0825
_cell_angle_gamma                 98.8914
loop_
_atom_site_label
_atom_site_type_symbol
_atom_site_fract_x
_atom_site_fract_y
_atom_site_fract_z
_atom_site_U_iso_or_equiv
_atom_site_adp_type
_atom_site_occupancy
C1     C     0.05273   0.15948   0.25988   0.00000  Uiso   1.00
C2     C     0.18202   0.16715   0.05639   0.00000  Uiso   1.00
C3     C     0.19597   0.09768   0.06340   0.00000  Uiso   1.00
C4     C     0.28076   0.17381   0.24002   0.00000  Uiso   1.00
C5     C     0.14457   0.19515   0.41913   0.00000  Uiso   1.00
C6     C     0.32661   0.17671   0.23617   0.00000  Uiso   1.00
C7     C     0.00746   0.15664   0.26346   0.00000  Uiso   1.00
C8     C     0.18143   0.32261   0.23596   0.00000  Uiso   1.00
C9     C     0.15219   0.01164   0.26291   0.00000  Uiso   1.00
C10    C     0.15557   0.05589   0.26059   0.00000  Uiso   1.00
C11    C     0.17688   0.27794   0.24024   0.00000  Uiso   1.00
C12    C     0.14360   0.25035   0.47863   0.00000  Uiso   1.00
C13    C     0.18515   0.14780   0.12937   0.00000  Uiso   1.00
C14    C     0.14837   0.18438   0.37092   0.00000  Uiso   1.00
C15    C     0.19004   0.08492   0.02096   0.00000  Uiso   1.00
C16    C     0.19110   0.13846   0.08142   0.00000  Uiso   1.00
C17    C     0.13815   0.23602   0.43633   0.00000  Uiso   1.00
C18    C     0.25690   0.01603   0.21469   0.00000  Uiso   1.00
C19    C     0.19715   0.04937   0.40212   0.00000  Uiso   1.00
C20    C     0.19373   0.00290   0.38683   0.00000  Uiso   1.00
C21    C     0.22667   0.32741   0.34310   0.00000  Uiso   1.00
C22    C     0.15623   0.22445   0.00415   0.00000  Uiso   1.00
C23    C     0.16156   0.18241   0.48866   0.00000  Uiso   1.00
C24    C     0.15334   0.16731   0.44647   0.00000  Uiso   1.00
C25    C     0.17430   0.15476   0.01373   0.00000  Uiso   1.00
C26    C     0.17780   0.11250   0.49640   0.00000  Uiso   1.00
C27    C     0.16721   0.09770   0.45584   0.00000  Uiso   1.00
C28    C     0.15318   0.12462   0.43264   0.00000  Uiso   1.00
H29    H     0.20235   0.07515   0.08316   0.00000  Uiso   1.00
H30    H     0.01560   0.19528   0.21106   0.00000  Uiso   1.00
H31    H     0.20972   0.03224   0.18821   0.00000  Uiso   1.00
H32    H     0.25558   0.04090   0.24258   0.00000  Uiso   1.00
H33    H     0.28252   0.02674   0.18548   0.00000  Uiso   1.00
H34    H     0.26521   0.32070   0.22486   0.00000  Uiso   1.00
H35    H     0.22962   0.05986   0.40816   0.00000  Uiso   1.00
H36    H     0.19295   0.06656   0.37486   0.00000  Uiso   1.00
H37    H     0.19886   0.31851   0.41312   0.00000  Uiso   1.00
H38    H     0.16105   0.32539   0.38179   0.00000  Uiso   1.00
H39    H     0.22169   0.01115   0.31631   0.00000  Uiso   1.00
H40    H     0.31918   0.13777   0.28869   0.00000  Uiso   1.00
H41    H     0.22294   0.29348   0.33279   0.00000  Uiso   1.00
H42    H     0.25972   0.00381   0.34743   0.00000  Uiso   1.00
H43    H     0.12549   0.33074   0.28782   0.00000  Uiso   1.00
H44    H     0.19315   0.05280   0.00835   0.00000  Uiso   1.00
H45    H     0.17804   0.19785   0.07266   0.00000  Uiso   1.00
H46    H     0.13081   0.25759   0.41620   0.00000  Uiso   1.00
H47    H     0.16125   0.23844   0.03586   0.00000  Uiso   1.00
H48    H     0.13946   0.28229   0.49116   0.00000  Uiso   1.00
H49    H     0.14093   0.11123   0.40413   0.00000  Uiso   1.00
N50    N     0.21620   0.00769   0.20251   0.00000  Uiso   1.00
O51    O     0.16667   0.16667   0.25000   0.00000  Uiso   1.00
O52    O     0.15451   0.12637   0.15458   0.00000  Uiso   1.00
O53    O     0.12940   0.20391   0.34968   0.00000  Uiso   1.00
O54    O     0.20824   0.17759   0.14606   0.00000  Uiso   1.00
O55    O     0.17451   0.15880   0.34968   0.00000  Uiso   1.00
O56    O     0.16515   0.05556   0.44197   0.00000  Uiso   1.00
O57    O     0.17930   0.08019   0.28213   0.00000  Uiso   1.00
O58    O     0.14632   0.26085   0.27014   0.00000  Uiso   1.00
O59    O     0.07412   0.13291   0.23413   0.00000  Uiso   1.00
O60    O     0.26693   0.19272   0.21360   0.00000  Uiso   1.00
O61    O     0.07071   0.18878   0.28213   0.00000  Uiso   1.00
O62    O     0.25491   0.15226   0.27013   0.00000  Uiso   1.00
O63    O     0.13760   0.06944   0.23413   0.00000  Uiso   1.00
O64    O     0.20345   0.25620   0.21360   0.00000  Uiso   1.00
Zn65   Zn    0.19338   0.13994   0.28734   0.00000  Uiso   1.00
Zn66   Zn    0.13379   0.12458   0.21875   0.00000  Uiso   1.00
Zn67   Zn    0.21056   0.19775   0.20657   0.00000  Uiso   1.00
Zn68   Zn    0.12893   0.20439   0.28734   0.00000  Uiso   1.00
C69    C     0.38606   0.15948   0.25988   0.00000  Uiso   1.00
C70    C     0.51535   0.16715   0.05639   0.00000  Uiso   1.00
C71    C     0.52930   0.09768   0.06340   0.00000  Uiso   1.00
C72    C     0.61409   0.17381   0.24002   0.00000  Uiso   1.00
C73    C     0.47790   0.19515   0.41913   0.00000  Uiso   1.00
C74    C     0.65994   0.17671   0.23617   0.00000  Uiso   1.00
C75    C     0.34080   0.15664   0.26346   0.00000  Uiso   1.00
C76    C     0.51476   0.32261   0.23596   0.00000  Uiso   1.00
C77    C     0.48553   0.01164   0.26291   0.00000  Uiso   1.00
C78    C     0.48890   0.05589   0.26059   0.00000  Uiso   1.00
C79    C     0.51022   0.27794   0.24024   0.00000  Uiso   1.00
C80    C     0.47694   0.25035   0.47863   0.00000  Uiso   1.00
C81    C     0.51848   0.14780   0.12937   0.00000  Uiso   1.00
C82    C     0.48171   0.18438   0.37092   0.00000  Uiso   1.00
C83    C     0.52337   0.08492   0.02096   0.00000  Uiso   1.00
C84    C     0.52444   0.13846   0.08142   0.00000  Uiso   1.00
C85    C     0.47149   0.23602   0.43633   0.00000  Uiso   1.00
C86    C     0.59023   0.01603   0.21469   0.00000  Uiso   1.00
C87    C     0.53049   0.04937   0.40212   0.00000  Uiso   1.00
C88    C     0.52707   0.00290   0.38683   0.00000  Uiso   1.00
C89    C     0.56000   0.32741   0.34310   0.00000  Uiso   1.00
C90    C     0.48956   0.22445   0.00415   0.00000  Uiso   1.00
C91    C     0.49490   0.18241   0.48866   0.00000  Uiso   1.00
C92    C     0.48667   0.16731   0.44647   0.00000  Uiso   1.00
C93    C     0.50763   0.15476   0.01373   0.00000  Uiso   1.00
C94    C     0.51113   0.11250   0.49640   0.00000  Uiso   1.00
C95    C     0.50054   0.09770   0.45584   0.00000  Uiso   1.00
C96    C     0.48651   0.12462   0.43264   0.00000  Uiso   1.00
H97    H     0.53569   0.07515   0.08316   0.00000  Uiso   1.00
H98    H     0.34893   0.19528   0.21106   0.00000  Uiso   1.00
H99    H     0.54306   0.03224   0.18821   0.00000  Uiso   1.00
H100   H     0.58892   0.04090   0.24258   0.00000  Uiso   1.00
H101   H     0.61585   0.02674   0.18548   0.00000  Uiso   1.00
H102   H     0.59855   0.32070   0.22486   0.00000  Uiso   1.00
H103   H     0.56295   0.05986   0.40816   0.00000  Uiso   1.00
H104   H     0.52628   0.06656   0.37486   0.00000  Uiso   1.00
H105   H     0.53219   0.31851   0.41312   0.00000  Uiso   1.00
H106   H     0.49438   0.32539   0.38179   0.00000  Uiso   1.00
H107   H     0.55502   0.01115   0.31631   0.00000  Uiso   1.00
H108   H     0.65251   0.13777   0.28869   0.00000  Uiso   1.00
H109   H     0.55627   0.29348   0.33279   0.00000  Uiso   1.00
H110   H     0.59306   0.00381   0.34743   0.00000  Uiso   1.00
H111   H     0.45883   0.33074   0.28782   0.00000  Uiso   1.00
H112   H     0.52649   0.05280   0.00835   0.00000  Uiso   1.00
H113   H     0.51137   0.19785   0.07266   0.00000  Uiso   1.00
H114   H     0.46414   0.25759   0.41620   0.00000  Uiso   1.00
H115   H     0.49458   0.23844   0.03586   0.00000  Uiso   1.00
H116   H     0.47279   0.28229   0.49116   0.00000  Uiso   1.00
H117   H     0.47426   0.11123   0.40413   0.00000  Uiso   1.00
N118   N     0.54953   0.00769   0.20251   0.00000  Uiso   1.00
O119   O     0.50000   0.16667   0.25000   0.00000  Uiso   1.00
O120   O     0.48784   0.12637   0.15458   0.00000  Uiso   1.00
O121   O     0.46274   0.20391   0.34968   0.00000  Uiso   1.00
O122   O     0.54157   0.17759   0.14606   0.00000  Uiso   1.00
O123   O     0.50785   0.15880   0.34968   0.00000  Uiso   1.00
O124   O     0.49849   0.05556   0.44197   0.00000  Uiso   1.00
O125   O     0.51264   0.08019   0.28213   0.00000  Uiso   1.00
O126   O     0.47965   0.26085   0.27014   0.00000  Uiso   1.00
O127   O     0.40745   0.13291   0.23413   0.00000  Uiso   1.00
O128   O     0.60026   0.19272   0.21360   0.00000  Uiso   1.00
O129   O     0.40405   0.18878   0.28213   0.00000  Uiso   1.00
O130   O     0.58824   0.15226   0.27013   0.00000  Uiso   1.00
O131   O     0.47093   0.06944   0.23413   0.00000  Uiso   1.00
O132   O     0.53678   0.25620   0.21360   0.00000  Uiso   1.00
Zn133  Zn    0.52672   0.13994   0.28734   0.00000  Uiso   1.00
Zn134  Zn    0.46713   0.12458   0.21875   0.00000  Uiso   1.00
Zn135  Zn    0.54389   0.19775   0.20657   0.00000  Uiso   1.00
Zn136  Zn    0.46226   0.20439   0.28734   0.00000  Uiso   1.00
C137   C     0.71939   0.15948   0.25988   0.00000  Uiso   1.00
C138   C     0.84869   0.16715   0.05639   0.00000  Uiso   1.00
C139   C     0.86264   0.09768   0.06340   0.00000  Uiso   1.00
C140   C     0.94742   0.17381   0.24002   0.00000  Uiso   1.00
C141   C     0.81124   0.19515   0.41913   0.00000  Uiso   1.00
C142   C     0.99328   0.17671   0.23617   0.00000  Uiso   1.00
C143   C     0.67413   0.15664   0.26346   0.00000  Uiso   1.00
C144   C     0.84809   0.32261   0.23596   0.00000  Uiso   1.00
C145   C     0.81886   0.01164   0.26291   0.00000  Uiso   1.00
C146   C     0.82224   0.05589   0.26059   0.00000  Uiso   1.00
C147   C     0.84355   0.27794   0.24024   0.00000  Uiso   1.00
C148   C     0.81027   0.25035   0.47863   0.00000  Uiso   1.00
C149   C     0.85182   0.14780   0.12937   0.00000  Uiso   1.00
C150   C     0.81504   0.18438   0.37092   0.00000  Uiso   1.00
C151   C     0.85671   0.08492   0.02096   0.00000  Uiso   1.00
C152   C     0.85777   0.13846   0.08142   0.00000  Uiso   1.00
C153   C     0.80482   0.23602   0.43633   0.00000  Uiso   1.00
C154   C     0.92356   0.01603   0.21469   0.00000  Uiso   1.00
C155   C     0.86382   0.04937   0.40212   0.00000  Uiso   1.00
C156   C     0.86040   0.00290   0.38683   0.00000  Uiso   1.00
C157   C     0.89333   0.32741   0.34310   0.00000  Uiso   1.00
C158   C     0.82289   0.22445   0.00415   0.00000  Uiso   1.00
C159   C     0.82823   0.18241   0.48866   0.00000  Uiso   1.00
C160   C     0.82000   0.16731   0.44647   0.00000  Uiso   1.00
C161   C     0.84097   0.15476   0.01373   0.00000  Uiso   1.00
C162   C     0.84446   0.11250   0.49640   0.00000  Uiso   1.00
C163   C     0.83388   0.09770   0.45584   0.00000  Uiso   1.00
C164   C     0.81984   0.12462   0.43264   0.00000  Uiso   1.00
H165   H     0.86902   0.07515   0.08316   0.00000  Uiso   1.00
H166   H     0.68226   0.19528   0.21106   0.00000  Uiso   1.00
H167   H     0.87639   0.03224   0.18821   0.00000  Uiso   1.00
H168   H     0.92225   0.04090   0.24258   0.00000  Uiso   1.00
H169   H     0.94919   0.02674   0.18548   0.00000  Uiso   1.00
H170   H     0.93188   0.32070   0.22486   0.00000  Uiso   1.00
H171   H     0.89629   0.05986   0.40816   0.00000  Uiso   1.00
H172   H     0.85962   0.06656   0.37486   0.00000  Uiso   1.00
H173   H     0.86552   0.31851   0.41312   0.00000  Uiso   1.00
H174   H     0.82772   0.32539   0.38179   0.00000  Uiso   1.00
H175   H     0.88836   0.01115   0.31631   0.00000  Uiso   1.00
H176   H     0.98584   0.13777   0.28869   0.00000  Uiso   1.00
H177   H     0.88960   0.29348   0.33279   0.00000  Uiso   1.00
H178   H     0.92639   0.00381   0.34743   0.00000  Uiso   1.00
H179   H     0.79216   0.33074   0.28782   0.00000  Uiso   1.00
H180   H     0.85982   0.05280   0.00835   0.00000  Uiso   1.00
H181   H     0.84471   0.19785   0.07266   0.00000  Uiso   1.00
H182   H     0.79748   0.25759   0.41620   0.00000  Uiso   1.00
H183   H     0.82792   0.23844   0.03586   0.00000  Uiso   1.00
H184   H     0.80613   0.28229   0.49116   0.00000  Uiso   1.00
H185   H     0.80760   0.11123   0.40413   0.00000  Uiso   1.00
N186   N     0.88287   0.00769   0.20251   0.00000  Uiso   1.00
O187   O     0.83333   0.16667   0.25000   0.00000  Uiso   1.00
O188   O     0.82118   0.12637   0.15458   0.00000  Uiso   1.00
O189   O     0.79607   0.20391   0.34968   0.00000  Uiso   1.00
O190   O     0.87491   0.17759   0.14606   0.00000  Uiso   1.00
O191   O     0.84118   0.15880   0.34968   0.00000  Uiso   1.00
O192   O     0.83182   0.05556   0.44197   0.00000  Uiso   1.00
O193   O     0.84597   0.08019   0.28213   0.00000  Uiso   1.00
O194   O     0.81298   0.26085   0.27014   0.00000  Uiso   1.00
O195   O     0.74078   0.13291   0.23413   0.00000  Uiso   1.00
O196   O     0.93360   0.19272   0.21360   0.00000  Uiso   1.00
O197   O     0.73738   0.18878   0.28213   0.00000  Uiso   1.00
O198   O     0.92158   0.15226   0.27013   0.00000  Uiso   1.00
O199   O     0.80426   0.06944   0.23413   0.00000  Uiso   1.00
O200   O     0.87012   0.25620   0.21360   0.00000  Uiso   1.00
Zn201  Zn    0.86005   0.13994   0.28734   0.00000  Uiso   1.00
Zn202  Zn    0.80046   0.12458   0.21875   0.00000  Uiso   1.00
Zn203  Zn    0.87723   0.19775   0.20657   0.00000  Uiso   1.00
Zn204  Zn    0.79560   0.20439   0.28734   0.00000  Uiso   1.00
C205   C     0.05273   0.49282   0.25988   0.00000  Uiso   1.00
C206   C     0.18202   0.50049   0.05639   0.00000  Uiso   1.00
C207   C     0.19597   0.43102   0.06340   0.00000  Uiso   1.00
C208   C     0.28076   0.50714   0.24002   0.00000  Uiso   1.00
C209   C     0.14457   0.52848   0.41913   0.00000  Uiso   1.00
C210   C     0.32661   0.51005   0.23617   0.00000  Uiso   1.00
C211   C     0.00746   0.48997   0.26346   0.00000  Uiso   1.00
C212   C     0.18143   0.65594   0.23596   0.00000  Uiso   1.00
C213   C     0.15219   0.34498   0.26291   0.00000  Uiso   1.00
C214   C     0.15557   0.38922   0.26059   0.00000  Uiso   1.00
C215   C     0.17688   0.61127   0.24024   0.00000  Uiso   1.00
C216   C     0.14360   0.58368   0.47863   0.00000  Uiso   1.00
C217   C     0.18515   0.48113   0.12937   0.00000  Uiso   1.00
C218   C     0.14837   0.51771   0.37092   0.00000  Uiso   1.00
C219   C     0.19004   0.41825   0.02096   0.00000  Uiso   1.00
C220   C     0.19110   0.47179   0.08142   0.00000  Uiso   1.00
C221   C     0.13815   0.56935   0.43633   0.00000  Uiso   1.00
C222   C     0.25690   0.34936   0.21469   0.00000  Uiso   1.00
C223   C     0.19715   0.38270   0.40212   0.00000  Uiso   1.00
C224   C     0.19373   0.33623   0.38683   0.00000  Uiso   1.00
C225   C     0.22667   0.66074   0.34310   0.00000  Uiso   1.00
C226   C     0.15623   0.55779   0.00415   0.00000  Uiso   1.00
C227   C     0.16156   0.51574   0.48866   0.00000  Uiso   1.00
C228   C     0.15334   0.50065   0.44647   0.00000  Uiso   1.00
C229   C     0.17430   0.48809   0.01373   0.00000  Uiso   1.00
C230   C     0.17780   0.44584   0.49640   0.00000  Uiso   1.00
C231   C     0.16721   0.43104   0.45584   0.00000  Uiso   1.00
C232   C     0.15318   0.45796   0.43264   0.00000  Uiso   1.00
H233   H     0.20235   0.40849   0.08316   0.00000  Uiso   1.00
H234   H     0.01560   0.52862   0.21106   0.00000  Uiso   1.00
H235   H     0.20972   0.36558   0.18821   0.00000  Uiso   1.00
H236   H     0.25558   0.37423   0.24258   0.00000  Uiso   1.00
H237   H     0.28252   0.36008   0.18548   0.00000  Uiso   1.00
H238   H     0.26521   0.65403   0.22486   0.00000  Uiso   1.00
H239   H     0.22962   0.39320   0.40816   0.00000  Uiso   1.00
H240   H     0.19295   0.39989   0.37486   0.00000  Uiso   1.00
H241   H     0.19886   0.65184   0.41312   0.00000  Uiso   1.00
H242   H     0.16105   0.65872   0.38179   0.00000  Uiso   1.00
H243   H     0.22169   0.34448   0.31631   0.00000  Uiso   1.00
H244   H     0.31918   0.47111   0.28869   0.00000  Uiso   1.00
H245   H     0.22294   0.62681   0.33279   0.00000  Uiso   1.00
H246   H     0.25972   0.33714   0.34743   0.00000  Uiso   1.00
H247   H     0.12549   0.66408   0.28782   0.00000  Uiso   1.00
H248   H     0.19315   0.38614   0.00835   0.00000  Uiso   1.00
H249   H     0.17804   0.53118   0.07266   0.00000  Uiso   1.00
H250   H     0.13081   0.59093   0.41620   0.00000  Uiso   1.00
H251   H     0.16125   0.57177   0.03586   0.00000  Uiso   1.00
H252   H     0.13946   0.61562   0.49116   0.00000  Uiso   1.00
H253   H     0.14093   0.44457   0.40413   0.00000  Uiso   1.00
N254   N     0.21620   0.34102   0.20251   0.00000  Uiso   1.00
O255   O     0.16667   0.50000   0.25000   0.00000  Uiso   1.00
O256   O     0.15451   0.45970   0.15458   0.00000  Uiso   1.00
O257   O     0.12940   0.53724   0.34968   0.00000  Uiso   1.00
O258   O     0.20824   0.51092   0.14606   0.00000  Uiso   1.00
O259   O     0.17451   0.49213   0.34968   0.00000  Uiso   1.00
O260   O     0.16515   0.38889   0.44197   0.00000  Uiso   1.00
O261   O     0.17930   0.41352   0.28213   0.00000  Uiso   1.00
O262   O     0.14632   0.59418   0.27014   0.00000  Uiso   1.00
O263   O     0.07412   0.46625   0.23413   0.00000  Uiso   1.00
O264   O     0.26693   0.52605   0.21360   0.00000  Uiso   1.00
O265   O     0.07071   0.52211   0.28213   0.00000  Uiso   1.00
O266   O     0.25491   0.48559   0.27013   0.00000  Uiso   1.00
O267   O     0.13760   0.40277   0.23413   0.00000  Uiso   1.00
O268   O     0.20345   0.58953   0.21360   0.00000  Uiso   1.00
Zn269  Zn    0.19338   0.47327   0.28734   0.00000  Uiso   1.00
Zn270  Zn    0.13379   0.45791   0.21875   0.00000  Uiso   1.00
Zn271  Zn    0.21056   0.53109   0.20657   0.00000  Uiso   1.00
Zn272  Zn    0.12893   0.53773   0.28734   0.00000  Uiso   1.00
C273   C     0.38606   0.49282   0.25988   0.00000  Uiso   1.00
C274   C     0.51535   0.50049   0.05639   0.00000  Uiso   1.00
C275   C     0.52930   0.43102   0.06340   0.00000  Uiso   1.00
C276   C     0.61409   0.50714   0.24002   0.00000  Uiso   1.00
C277   C     0.47790   0.52848   0.41913   0.00000  Uiso   1.00
C278   C     0.65994   0.51005   0.23617   0.00000  Uiso   1.00
C279   C     0.34080   0.48997   0.26346   0.00000  Uiso   1.00
C280   C     0.51476   0.65594   0.23596   0.00000  Uiso   1.00
C281   C     0.48553   0.34498   0.26291   0.00000  Uiso   1.00
C282   C     0.48890   0.38922   0.26059   0.00000  Uiso   1.00
C283   C     0.51022   0.61127   0.24024   0.00000  Uiso   1.00
C284   C     0.47694   0.58368   0.47863   0.00000  Uiso   1.00
C285   C     0.51848   0.48113   0.12937   0.00000  Uiso   1.00
C286   C     0.48171   0.51771   0.37092   0.00000  Uiso   1.00
C287   C     0.52337   0.41825   0.02096   0.00000  Uiso   1.00
C288   C     0.52444   0.47179   0.08142   0.00000  Uiso   1.00
C289   C     0.47149   0.56935   0.43633   0.00000  Uiso   1.00
C290   C     0.59023   0.34936   0.21469   0.00000  Uiso   1.00
C291   C     0.53049   0.38270   0.40212   0.00000  Uiso   1.00
C292   C     0.52707   0.33623   0.38683   0.00000  Uiso   1.00
C293   C     0.56000   0.66074   0.34310   0.00000  Uiso   1.00
C294   C     0.48956   0.55779   0.00415   0.00000  Uiso   1.00
C295   C     0.49490   0.51574   0.48866   0.00000  Uiso   1.00
C296   C     0.48667   0.50065   0.44647   0.00000  Uiso   1.00
C297   C     0.50763   0.48809   0.01373   0.00000  Uiso   1.00
C298   C     0.51113   0.44584   0.49640   0.00000  Uiso   1.00
C299   C     0.50054   0.43104   0.45584   0.00000  Uiso   1.00
C300   C     0.48651   0.45796   0.43264   0.00000  Uiso   1.00
H301   H     0.53569   0.40849   0.08316   0.00000  Uiso   1.00
H302   H     0.34893   0.52862   0.21106   0.00000  Uiso   1.00
H303   H     0.54306   0.36558   0.18821   0.00000  Uiso   1.00
H304   H     0.58892   0.37423   0.24258   0.00000  Uiso   1.00
H305   H     0.61585   0.36008   0.18548   0.00000  Uiso   1.00
H306   H     0.59855   0.65403   0.22486   0.00000  Uiso   1.00
H307   H     0.56295   0.39320   0.40816   0.00000  Uiso   1.00
H308   H     0.52628   0.39989   0.37486   0.00000  Uiso   1.00
H309   H     0.53219   0.65184   0.41312   0.00000  Uiso   1.00
H310   H     0.49438   0.65872   0.38179   0.00000  Uiso   1.00
H311   H     0.55502   0.34448   0.31631   0.00000  Uiso   1.00
H312   H     0.65251   0.47111   0.28869   0.00000  Uiso   1.00
H313   H     0.55627   0.62681   0.33279   0.00000  Uiso   1.00
H314   H     0.59306   0.33714   0.34743   0.00000  Uiso   1.00
H315   H     0.45883   0.66408   0.28782   0.00000  Uiso   1.00
H316   H     0.52649   0.38614   0.00835   0.00000  Uiso   1.00
H317   H     0.51137   0.53118   0.07266   0.00000  Uiso   1.00
H318   H     0.46414   0.59093   0.41620   0.00000  Uiso   1.00
H319   H     0.49458   0.57177   0.03586   0.00000  Uiso   1.00
H320   H     0.47279   0.61562   0.49116   0.00000  Uiso   1.00
H321   H     0.47426   0.44457   0.40413   0.00000  Uiso   1.00
N322   N     0.54953   0.34102   0.20251   0.00000  Uiso   1.00
O323   O     0.50000   0.50000   0.25000   0.00000  Uiso   1.00
O324   O     0.48784   0.45970   0.15458   0.00000  Uiso   1.00
O325   O     0.46274   0.53724   0.34968   0.00000  Uiso   1.00
O326   O     0.54157   0.51092   0.14606   0.00000  Uiso   1.00
O327   O     0.50785   0.49213   0.34968   0.00000  Uiso   1.00
O328   O     0.49849   0.38889   0.44197   0.00000  Uiso   1.00
O329   O     0.51264   0.41352   0.28213   0.00000  Uiso   1.00
O330   O     0.47965   0.59418   0.27014   0.00000  Uiso   1.00
O331   O     0.40745   0.46625   0.23413   0.00000  Uiso   1.00
O332   O     0.60026   0.52605   0.21360   0.00000  Uiso   1.00
O333   O     0.40405   0.52211   0.28213   0.00000  Uiso   1.00
O334   O     0.58824   0.48559   0.27013   0.00000  Uiso   1.00
O335   O     0.47093   0.40277   0.23413   0.00000  Uiso   1.00
O336   O     0.53678   0.58953   0.21360   0.00000  Uiso   1.00
Zn337  Zn    0.52672   0.47327   0.28734   0.00000  Uiso   1.00
Zn338  Zn    0.46713   0.45791   0.21875   0.00000  Uiso   1.00
Zn339  Zn    0.54389   0.53109   0.20657   0.00000  Uiso   1.00
Zn340  Zn    0.46226   0.53773   0.28734   0.00000  Uiso   1.00
C341   C     0.71939   0.49282   0.25988   0.00000  Uiso   1.00
C342   C     0.84869   0.50049   0.05639   0.00000  Uiso   1.00
C343   C     0.86264   0.43102   0.06340   0.00000  Uiso   1.00
C344   C     0.94742   0.50714   0.24002   0.00000  Uiso   1.00
C345   C     0.81124   0.52848   0.41913   0.00000  Uiso   1.00
C346   C     0.99328   0.51005   0.23617   0.00000  Uiso   1.00
C347   C     0.67413   0.48997   0.26346   0.00000  Uiso   1.00
C348   C     0.84809   0.65594   0.23596   0.00000  Uiso   1.00
C349   C     0.81886   0.34498   0.26291   0.00000  Uiso   1.00
C350   C     0.82224   0.38922   0.26059   0.00000  Uiso   1.00
C351   C     0.84355   0.61127   0.24024   0.00000  Uiso   1.00
C352   C     0.81027   0.58368   0.47863   0.00000  Uiso   1.00
C353   C     0.85182   0.48113   0.12937   0.00000  Uiso   1.00
C354   C     0.81504   0.51771   0.37092   0.00000  Uiso   1.00
C355   C     0.85671   0.41825   0.02096   0.00000  Uiso   1.00
C356   C     0.85777   0.47179   0.08142   0.00000  Uiso   1.00
C357   C     0.80482   0.56935   0.43633   0.00000  Uiso   1.00
C358   C     0.92356   0.34936   0.21469   0.00000  Uiso   1.00
C359   C     0.86382   0.38270   0.40212   0.00000  Uiso   1.00
C360   C     0.86040   0.33623   0.38683   0.00000  Uiso   1.00
C361   C     0.89333   0.66074   0.34310   0.00000  Uiso   1.00
C362   C     0.82289   0.55779   0.00415   0.00000  Uiso   1.00
C363   C     0.82823   0.51574   0.48866   0.00000  Uiso   1.00
C364   C     0.82000   0.50065   0.44647   0.00000  Uiso   1.00
C365   C     0.84097   0.48809   0.01373   0.00000  Uiso   1.00
C366   C     0.84446   0.44584   0.49640   0.00000  Uiso   1.00
C367   C     0.83388   0.43104   0.45584   0.00000  Uiso   1.00
C368   C     0.81984   0.45796   0.43264   0.00000  Uiso   1.00
H369   H     0.86902   0.40849   0.08316   0.00000  Uiso   1.00
H370   H     0.68226   0.52862   0.21106   0.00000  Uiso   1.00
H371   H     0.87639   0.36558   0.18821   0.00000  Uiso   1.00
H372   H     0.92225   0.37423   0.24258   0.00000  Uiso   1.00
H373   H     0.94919   0.36008   0.18548   0.00000  Uiso   1.00
H374   H     0.93188   0.65403   0.22486   0.00000  Uiso   1.00
H375   H     0.89629   0.39320   0.40816   0.00000  Uiso   1.00
H376   H     0.85962   0.39989   0.37486   0.00000  Uiso   1.00
H377   H     0.86552   0.65184   0.41312   0.00000  Uiso   1.00
H378   H     0.82772   0.65872   0.38179   0.00000  Uiso   1.00
H379   H     0.88836   0.34448   0.31631   0.00000  Uiso   1.00
H380   H     0.98584   0.47111   0.28869   0.00000  Uiso   1.00
H381   H     0.88960   0.62681   0.33279   0.00000  Uiso   1.00
H382   H     0.92639   0.33714   0.34743   0.00000  Uiso   1.00
H383   H     0.79216   0.66408   0.28782   0.00000  Uiso   1.00
H384   H     0.85982   0.38614   0.00835   0.00000  Uiso   1.00
H385   H     0.84471   0.53118   0.07266   0.00000  Uiso   1.00
H386   H     0.79748   0.59093   0.41620   0.00000  Uiso   1.00
H387   H     0.82792   0.57177   0.03586   0.00000  Uiso   1.00
H388   H     0.80613   0.61562   0.49116   0.00000  Uiso   1.00
H389   H     0.80760   0.44457   0.40413   0.00000  Uiso   1.00
N390   N     0.88287   0.34102   0.20251   0.00000  Uiso   1.00
O391   O     0.83333   0.50000   0.25000   0.00000  Uiso   1.00
O392   O     0.82118   0.45970   0.15458   0.00000  Uiso   1.00
O393   O     0.79607   0.53724   0.34968   0.00000  Uiso   1.00
O394   O     0.87491   0.51092   0.14606   0.00000  Uiso   1.00
O395   O     0.84118   0.49213   0.34968   0.00000  Uiso   1.00
O396   O     0.83182   0.38889   0.44197   0.00000  Uiso   1.00
O397   O     0.84597   0.41352   0.28213   0.00000  Uiso   1.00
O398   O     0.81298   0.59418   0.27014   0.00000  Uiso   1.00
O399   O     0.74078   0.46625   0.23413   0.00000  Uiso   1.00
O400   O     0.93360   0.52605   0.21360   0.00000  Uiso   1.00
O401   O     0.73738   0.52211   0.28213   0.00000  Uiso   1.00
O402   O     0.92158   0.48559   0.27013   0.00000  Uiso   1.00
O403   O     0.80426   0.40277   0.23413   0.00000  Uiso   1.00
O404   O     0.87012   0.58953   0.21360   0.00000  Uiso   1.00
Zn405  Zn    0.86005   0.47327   0.28734   0.00000  Uiso   1.00
Zn406  Zn    0.80046   0.45791   0.21875   0.00000  Uiso   1.00
Zn407  Zn    0.87723   0.53109   0.20657   0.00000  Uiso   1.00
Zn408  Zn    0.79560   0.53773   0.28734   0.00000  Uiso   1.00
C409   C     0.05273   0.82615   0.25988   0.00000  Uiso   1.00
C410   C     0.18202   0.83382   0.05639   0.00000  Uiso   1.00
C411   C     0.19597   0.76435   0.06340   0.00000  Uiso   1.00
C412   C     0.28076   0.84047   0.24002   0.00000  Uiso   1.00
C413   C     0.14457   0.86181   0.41913   0.00000  Uiso   1.00
C414   C     0.32661   0.84338   0.23617   0.00000  Uiso   1.00
C415   C     0.00746   0.82331   0.26346   0.00000  Uiso   1.00
C416   C     0.18143   0.98928   0.23596   0.00000  Uiso   1.00
C417   C     0.15219   0.67831   0.26291   0.00000  Uiso   1.00
C418   C     0.15557   0.72256   0.26059   0.00000  Uiso   1.00
C419   C     0.17688   0.94461   0.24024   0.00000  Uiso   1.00
C420   C     0.14360   0.91701   0.47863   0.00000  Uiso   1.00
C421   C     0.18515   0.81446   0.12937   0.00000  Uiso   1.00
C422   C     0.14837   0.85104   0.37092   0.00000  Uiso   1.00
C423   C     0.19004   0.75159   0.02096   0.00000  Uiso   1.00
C424   C     0.19110   0.80513   0.08142   0.00000  Uiso   1.00
C425   C     0.13815   0.90268   0.43633   0.00000  Uiso   1.00
C426   C     0.25690   0.68269   0.21469   0.00000  Uiso   1.00
C427   C     0.19715   0.71604   0.40212   0.00000  Uiso   1.00
C428   C     0.19373   0.66956   0.38683   0.00000  Uiso   1.00
C429   C     0.22667   0.99408   0.34310   0.00000  Uiso   1.00
C430   C     0.15623   0.89112   0.00415   0.00000  Uiso   1.00
C431   C     0.16156   0.84908   0.48866   0.00000  Uiso   1.00
C432   C     0.15334   0.83398   0.44647   0.00000  Uiso   1.00
C433   C     0.17430   0.82143   0.01373   0.00000  Uiso   1.00
C434   C     0.17780   0.77917   0.49640   0.00000  Uiso   1.00
C435   C     0.16721   0.76437   0.45584   0.00000  Uiso   1.00
C436   C     0.15318   0.79129   0.43264   0.00000  Uiso   1.00
H437   H     0.20235   0.74182   0.08316   0.00000  Uiso   1.00
H438   H     0.01560   0.86195   0.21106   0.00000  Uiso   1.00
H439   H     0.20972   0.69891   0.18821   0.00000  Uiso   1.00
H440   H     0.25558   0.70757   0.24258   0.00000  Uiso   1.00
H441   H     0.28252   0.69341   0.18548   0.00000  Uiso   1.00
H442   H     0.26521   0.98736   0.22486   0.00000  Uiso   1.00
H443   H     0.22962   0.72653   0.40816   0.00000  Uiso   1.00
H444   H     0.19295   0.73323   0.37486   0.00000  Uiso   1.00
H445   H     0.19886   0.98517   0.41312   0.00000  Uiso   1.00
H446   H     0.16105   0.99206   0.38179   0.00000  Uiso   1.00
H447   H     0.22169   0.67782   0.31631   0.00000  Uiso   1.00
H448   H     0.31918   0.80444   0.28869   0.00000  Uiso   1.00
H449   H     0.22294   0.96015   0.33279   0.00000  Uiso   1.00
H450   H     0.25972   0.67048   0.34743   0.00000  Uiso   1.00
H451   H     0.12549   0.99741   0.28782   0.00000  Uiso   1.00
H452   H     0.19315   0.71947   0.00835   0.00000  Uiso   1.00
H453   H     0.17804   0.86452   0.07266   0.00000  Uiso   1.00
H454   H     0.13081   0.92426   0.41620   0.00000  Uiso   1.00
H455   H     0.16125   0.90510   0.03586   0.00000  Uiso   1.00
H456   H     0.13946   0.94895   0.49116   0.00000  Uiso   1.00
H457   H     0.14093   0.77790   0.40413   0.00000  Uiso   1.00
N458   N     0.21620   0.67435   0.20251   0.00000  Uiso   1.00
O459   O     0.16667   0.83333   0.25000   0.00000  Uiso   1.00
O460   O     0.15451   0.79304   0.15458   0.00000  Uiso   1.00
O461   O     0.12940   0.87058   0.34968   0.00000  Uiso   1.00
O462   O     0.20824   0.84425   0.14606   0.00000  Uiso   1.00
O463   O     0.17451   0.82546   0.34968   0.00000  Uiso   1.00
O464   O     0.16515   0.72222   0.44197   0.00000  Uiso   1.00
O465   O     0.17930   0.74686   0.28213   0.00000  Uiso   1.00
O466   O     0.14632   0.92751   0.27014   0.00000  Uiso   1.00
O467   O     0.07412   0.79958   0.23413   0.00000  Uiso   1.00
O468   O     0.26693   0.85939   0.21360   0.00000  Uiso   1.00
O469   O     0.07071   0.85544   0.28213   0.00000  Uiso   1.00
O470   O     0.25491   0.81892   0.27013   0.00000  Uiso   1.00
O471   O     0.13760   0.73610   0.23413   0.00000  Uiso   1.00
O472   O     0.20345   0.92286   0.21360   0.00000  Uiso   1.00
Zn473  Zn    0.19338   0.80661   0.28734   0.00000  Uiso   1.00
Zn474  Zn    0.13379   0.79124   0.21875   0.00000  Uiso   1.00
Zn475  Zn    0.21056   0.86442   0.20657   0.00000  Uiso   1.00
Zn476  Zn    0.12893   0.87106   0.28734   0.00000  Uiso   1.00
C477   C     0.38606   0.82615   0.25988   0.00000  Uiso   1.00
C478   C     0.51535   0.83382   0.05639   0.00000  Uiso   1.00
C479   C     0.52930   0.76435   0.06340   0.00000  Uiso   1.00
C480   C     0.61409   0.84047   0.24002   0.00000  Uiso   1.00
C481   C     0.47790   0.86181   0.41913   0.00000  Uiso   1.00
C482   C     0.65994   0.84338   0.23617   0.00000  Uiso   1.00
C483   C     0.34080   0.82331   0.26346   0.00000  Uiso   1.00
C484   C     0.51476   0.98928   0.23596   0.00000  Uiso   1.00
C485   C     0.48553   0.67831   0.26291   0.00000  Uiso   1.00
C486   C     0.48890   0.72256   0.26059   0.00000  Uiso   1.00
C487   C     0.51022   0.94461   0.24024   0.00000  Uiso   1.00
C488   C     0.47694   0.91701   0.47863   0.00000  Uiso   1.00
C489   C     0.51848   0.81446   0.12937   0.00000  Uiso   1.00
C490   C     0.48171   0.85104   0.37092   0.00000  Uiso   1.00
C491   C     0.52337   0.75159   0.02096   0.00000  Uiso   1.00
C492   C     0.52444   0.80513   0.08142   0.00000  Uiso   1.00
C493   C     0.47149   0.90268   0.43633   0.00000  Uiso   1.00
C494   C     0.59023   0.68269   0.21469   0.00000  Uiso   1.00
C495   C     0.53049   0.71604   0.40212   0.00000  Uiso   1.00
C496   C     0.52707   0.66956   0.38683   0.00000  Uiso   1.00
C497   C     0.56000   0.99408   0.34310   0.00000  Uiso   1.00
C498   C     0.48956   0.89112   0.00415   0.00000  Uiso   1.00
C499   C     0.49490   0.84908   0.48866   0.00000  Uiso   1.00
C500   C     0.48667   0.83398   0.44647   0.00000  Uiso   1.00
C501   C     0.50763   0.82143   0.01373   0.00000  Uiso   1.00
C502   C     0.51113   0.77917   0.49640   0.00000  Uiso   1.00
C503   C     0.50054   0.76437   0.45584   0.00000  Uiso   1.00
C504   C     0.48651   0.79129   0.43264   0.00000  Uiso   1.00
H505   H     0.53569   0.74182   0.08316   0.00000  Uiso   1.00
H506   H     0.34893   0.86195   0.21106   0.00000  Uiso   1.00
H507   H     0.54306   0.69891   0.18821   0.00000  Uiso   1.00
H508   H     0.58892   0.70757   0.24258   0.00000  Uiso   1.00
H509   H     0.61585   0.69341   0.18548   0.00000  Uiso   1.00
H510   H     0.59855   0.98736   0.22486   0.00000  Uiso   1.00
H511   H     0.56295   0.72653   0.40816   0.00000  Uiso   1.00
H512   H     0.52628   0.73323   0.37486   0.00000  Uiso   1.00
H513   H     0.53219   0.98517   0.41312   0.00000  Uiso   1.00
H514   H     0.49438   0.99206   0.38179   0.00000  Uiso   1.00
H515   H     0.55502   0.67782   0.31631   0.00000  Uiso   1.00
H516   H     0.65251   0.80444   0.28869   0.00000  Uiso   1.00
H517   H     0.55627   0.96015   0.33279   0.00000  Uiso   1.00
H518   H     0.59306   0.67048   0.34743   0.00000  Uiso   1.00
H519   H     0.45883   0.99741   0.28782   0.00000  Uiso   1.00
H520   H     0.52649   0.71947   0.00835   0.00000  Uiso   1.00
H521   H     0.51137   0.86452   0.07266   0.00000  Uiso   1.00
H522   H     0.46414   0.92426   0.41620   0.00000  Uiso   1.00
H523   H     0.49458   0.90510   0.03586   0.00000  Uiso   1.00
H524   H     0.47279   0.94895   0.49116   0.00000  Uiso   1.00
H525   H     0.47426   0.77790   0.40413   0.00000  Uiso   1.00
N526   N     0.54953   0.67435   0.20251   0.00000  Uiso   1.00
O527   O     0.50000   0.83333   0.25000   0.00000  Uiso   1.00
O528   O     0.48784   0.79304   0.15458   0.00000  Uiso   1.00
O529   O     0.46274   0.87058   0.34968   0.00000  Uiso   1.00
O530   O     0.54157   0.84425   0.14606   0.00000  Uiso   1.00
O531   O     0.50785   0.82546   0.34968   0.00000  Uiso   1.00
O532   O     0.49849   0.72222   0.44197   0.00000  Uiso   1.00
O533   O     0.51264   0.74686   0.28213   0.00000  Uiso   1.00
O534   O     0.47965   0.92751   0.27014   0.00000  Uiso   1.00
O535   O     0.40745   0.79958   0.23413   0.00000  Uiso   1.00
O536   O     0.60026   0.85939   0.21360   0.00000  Uiso   1.00
O537   O     0.40405   0.85544   0.28213   0.00000  Uiso   1.00
O538   O     0.58824   0.81892   0.27013   0.00000  Uiso   1.00
O539   O     0.47093   0.73610   0.23413   0.00000  Uiso   1.00
O540   O     0.53678   0.92286   0.21360   0.00000  Uiso   1.00
Zn541  Zn    0.52672   0.80661   0.28734   0.00000  Uiso   1.00
Zn542  Zn    0.46713   0.79124   0.21875   0.00000  Uiso   1.00
Zn543  Zn    0.54389   0.86442   0.20657   0.00000  Uiso   1.00
Zn544  Zn    0.46226   0.87106   0.28734   0.00000  Uiso   1.00
C545   C     0.71939   0.82615   0.25988   0.00000  Uiso   1.00
C546   C     0.84869   0.83382   0.05639   0.00000  Uiso   1.00
C547   C     0.86264   0.76435   0.06340   0.00000  Uiso   1.00
C548   C     0.94742   0.84047   0.24002   0.00000  Uiso   1.00
C549   C     0.81124   0.86181   0.41913   0.00000  Uiso   1.00
C550   C     0.99328   0.84338   0.23617   0.00000  Uiso   1.00
C551   C     0.67413   0.82331   0.26346   0.00000  Uiso   1.00
C552   C     0.84809   0.98928   0.23596   0.00000  Uiso   1.00
C553   C     0.81886   0.67831   0.26291   0.00000  Uiso   1.00
C554   C     0.82224   0.72256   0.26059   0.00000  Uiso   1.00
C555   C     0.84355   0.94461   0.24024   0.00000  Uiso   1.00
C556   C     0.81027   0.91701   0.47863   0.00000  Uiso   1.00
C557   C     0.85182   0.81446   0.12937   0.00000  Uiso   1.00
C558   C     0.81504   0.85104   0.37092   0.00000  Uiso   1.00
C559   C     0.85671   0.75159   0.02096   0.00000  Uiso   1.00
C560   C     0.85777   0.80513   0.08142   0.00000  Uiso   1.00
C561   C     0.80482   0.90268   0.43633   0.00000  Uiso   1.00
C562   C     0.92356   0.68269   0.21469   0.00000  Uiso   1.00
C563   C     0.86382   0.71604   0.40212   0.00000  Uiso   1.00
C564   C     0.86040   0.66956   0.38683   0.00000  Uiso   1.00
C565   C     0.89333   0.99408   0.34310   0.00000  Uiso   1.00
C566   C     0.82289   0.89112   0.00415   0.00000  Uiso   1.00
C567   C     0.82823   0.84908   0.48866   0.00000  Uiso   1.00
C568   C     0.82000   0.83398   0.44647   0.00000  Uiso   1.00
C569   C     0.84097   0.82143   0.01373   0.00000  Uiso   1.00
C570   C     0.84446   0.77917   0.49640   0.00000  Uiso   1.00
C571   C     0.83388   0.76437   0.45584   0.00000  Uiso   1.00
C572   C     0.81984   0.79129   0.43264   0.00000  Uiso   1.00
H573   H     0.86902   0.74182   0.08316   0.00000  Uiso   1.00
H574   H     0.68226   0.86195   0.21106   0.00000  Uiso   1.00
H575   H     0.87639   0.69891   0.18821   0.00000  Uiso   1.00
H576   H     0.92225   0.70757   0.24258   0.00000  Uiso   1.00
H577   H     0.94919   0.69341   0.18548   0.00000  Uiso   1.00
H578   H     0.93188   0.98736   0.22486   0.00000  Uiso   1.00
H579   H     0.89629   0.72653   0.40816   0.00000  Uiso   1.00
H580   H     0.85962   0.73323   0.37486   0.00000  Uiso   1.00
H581   H     0.86552   0.98517   0.41312   0.00000  Uiso   1.00
H582   H     0.82772   0.99206   0.38179   0.00000  Uiso   1.00
H583   H     0.88836   0.67782   0.31631   0.00000  Uiso   1.00
H584   H     0.98584   0.80444   0.28869   0.00000  Uiso   1.00
H585   H     0.88960   0.96015   0.33279   0.00000  Uiso   1.00
H586   H     0.92639   0.67048   0.34743   0.00000  Uiso   1.00
H587   H     0.79216   0.99741   0.28782   0.00000  Uiso   1.00
H588   H     0.85982   0.71947   0.00835   0.00000  Uiso   1.00
H589   H     0.84471   0.86452   0.07266   0.00000  Uiso   1.00
H590   H     0.79748   0.92426   0.41620   0.00000  Uiso   1.00
H591   H     0.82792   0.90510   0.03586   0.00000  Uiso   1.00
H592   H     0.80613   0.94895   0.49116   0.00000  Uiso   1.00
H593   H     0.80760   0.77790   0.40413   0.00000  Uiso   1.00
N594   N     0.88287   0.67435   0.20251   0.00000  Uiso   1.00
O595   O     0.83333   0.83333   0.25000   0.00000  Uiso   1.00
O596   O     0.82118   0.79304   0.15458   0.00000  Uiso   1.00
O597   O     0.79607   0.87058   0.34968   0.00000  Uiso   1.00
O598   O     0.87491   0.84425   0.14606   0.00000  Uiso   1.00
O599   O     0.84118   0.82546   0.34968   0.00000  Uiso   1.00
O600   O     0.83182   0.72222   0.44197   0.00000  Uiso   1.00
O601   O     0.84597   0.74686   0.28213   0.00000  Uiso   1.00
O602   O     0.81298   0.92751   0.27014   0.00000  Uiso   1.00
O603   O     0.74078   0.79958   0.23413   0.00000  Uiso   1.00
O604   O     0.93360   0.85939   0.21360   0.00000  Uiso   1.00
O605   O     0.73738   0.85544   0.28213   0.00000  Uiso   1.00
O606   O     0.92158   0.81892   0.27013   0.00000  Uiso   1.00
O607   O     0.80426   0.73610   0.23413   0.00000  Uiso   1.00
O608   O     0.87012   0.92286   0.21360   0.00000  Uiso   1.00
Zn609  Zn    0.86005   0.80661   0.28734   0.00000  Uiso   1.00
Zn610  Zn    0.80046   0.79124   0.21875   0.00000  Uiso   1.00
Zn611  Zn    0.87723   0.86442   0.20657   0.00000  Uiso   1.00
Zn612  Zn    0.79560   0.87106   0.28734   0.00000  Uiso   1.00
C613   C     0.05273   0.15948   0.75988   0.00000  Uiso   1.00
C614   C     0.18202   0.16715   0.55639   0.00000  Uiso   1.00
C615   C     0.19597   0.09768   0.56340   0.00000  Uiso   1.00
C616   C     0.28076   0.17381   0.74002   0.00000  Uiso   1.00
C617   C     0.14457   0.19515   0.91913   0.00000  Uiso   1.00
C618   C     0.32661   0.17671   0.73617   0.00000  Uiso   1.00
C619   C     0.00746   0.15664   0.76346   0.00000  Uiso   1.00
C620   C     0.18143   0.32261   0.73596   0.00000  Uiso   1.00
C621   C     0.15219   0.01164   0.76291   0.00000  Uiso   1.00
C622   C     0.15557   0.05589   0.76059   0.00000  Uiso   1.00
C623   C     0.17688   0.27794   0.74024   0.00000  Uiso   1.00
C624   C     0.14360   0.25035   0.97863   0.00000  Uiso   1.00
C625   C     0.18515   0.14780   0.62937   0.00000  Uiso   1.00
C626   C     0.14837   0.18438   0.87092   0.00000  Uiso   1.00
C627   C     0.19004   0.08492   0.52096   0.00000  Uiso   1.00
C628   C     0.19110   0.13846   0.58142   0.00000  Uiso   1.00
C629   C     0.13815   0.23602   0.93633   0.00000  Uiso   1.00
C630   C     0.25690   0.01603   0.71469   0.00000  Uiso   1.00
C631   C     0.19715   0.04937   0.90212   0.00000  Uiso   1.00
C632   C     0.19373   0.00290   0.88683   0.00000  Uiso   1.00
C633   C     0.22667   0.32741   0.84310   0.00000  Uiso   1.00
C634   C     0.15623   0.22445   0.50415   0.00000  Uiso   1.00
C635   C     0.16156   0.18241   0.98866   0.00000  Uiso   1.00
C636   C     0.15334   0.16731   0.94647   0.00000  Uiso   1.00
C637   C     0.17430   0.15476   0.51373   0.00000  Uiso   1.00
C638   C     0.17780   0.11250   0.99640   0.00000  Uiso   1.00
C639   C     0.16721   0.09770   0.95584   0.00000  Uiso   1.00
C640   C     0.15318   0.12462   0.93264   0.00000  Uiso   1.00
H641   H     0.20235   0.07515   0.58316   0.00000  Uiso   1.00
H642   H     0.01560   0.19528   0.71106   0.00000  Uiso   1.00
H643   H     0.20972   0.03224   0.68821   0.00000  Uiso   1.00
H644   H     0.25558   0.04090   0.74258   0.00000  Uiso   1.00
H645   H     0.28252   0.02674   0.68548   0.00000  Uiso   1.00
H646   H     0.26521   0.32070   0.72486   0.00000  Uiso   1.00
H647   H     0.22962   0.05986   0.90816   0.00000  Uiso   1.00
H648   H     0.19295   0.06656   0.87486   0.00000  Uiso   1.00
H649   H     0.19886   0.31851   0.91312   0.00000  Uiso   1.00
H650   H     0.16105   0.32539   0.88179   0.00000  Uiso   1.00
H651   H     0.22169   0.01115   0.81631   0.00000  Uiso   1.00
H652   H     0.31918   0.13777   0.78869   0.00000  Uiso   1.00
H653   H     0.22294   0.29348   0.83279   0.00000  Uiso   1.00
H654   H     0.25972   0.00381   0.84743   0.00000  Uiso   1.00
H655   H     0.12549   0.33074   0.78782   0.00000  Uiso   1.00
H656   H     0.19315   0.05280   0.50835   0.00000  Uiso   1.00
H657   H     0.17804   0.19785   0.57266   0.00000  Uiso   1.00
H658   H     0.13081   0.25759   0.91620   0.00000  Uiso   1.00
H659   H     0.16125   0.23844   0.53586   0.00000  Uiso   1.00
H660   H     0.13946   0.28229   0.99116   0.00000  Uiso   1.00
H661   H     0.14093   0.11123   0.90413   0.00000  Uiso   1.00
N662   N     0.21620   0.00769   0.70251   0.00000  Uiso   1.00
O663   O     0.16667   0.16667   0.75000   0.00000  Uiso   1.00
O664   O     0.15451   0.12637   0.65458   0.00000  Uiso   1.00
O665   O     0.12940   0.20391   0.84968   0.00000  Uiso   1.00
O666   O     0.20824   0.17759   0.64606   0.00000  Uiso   1.00
O667   O     0.17451   0.15880   0.84968   0.00000  Uiso   1.00
O668   O     0.16515   0.05556   0.94197   0.00000  Uiso   1.00
O669   O     0.17930   0.08019   0.78213   0.00000  Uiso   1.00
O670   O     0.14632   0.26085   0.77014   0.00000  Uiso   1.00
O671   O     0.07412   0.13291   0.73413   0.00000  Uiso   1.00
O672   O     0.26693   0.19272   0.71360   0.00000  Uiso   1.00
O673   O     0.07071   0.18878   0.78213   0.00000  Uiso   1.00
O674   O     0.25491   0.15226   0.77013   0.00000  Uiso   1.00
O675   O     0.13760   0.06944   0.73413   0.00000  Uiso   1.00
O676   O     0.20345   0.25620   0.71360   0.00000  Uiso   1.00
Zn677  Zn    0.19338   0.13994   0.78734   0.00000  Uiso   1.00
Zn678  Zn    0.13379   0.12458   0.71875   0.00000  Uiso   1.00
Zn679  Zn    0.21056   0.19775   0.70657   0.00000  Uiso   1.00
Zn680  Zn    0.12893   0.20439   0.78734   0.00000  Uiso   1.00
C681   C     0.38606   0.15948   0.75988   0.00000  Uiso   1.00
C682   C     0.51535   0.16715   0.55639   0.00000  Uiso   1.00
C683   C     0.52930   0.09768   0.56340   0.00000  Uiso   1.00
C684   C     0.61409   0.17381   0.74002   0.00000  Uiso   1.00
C685   C     0.47790   0.19515   0.91913   0.00000  Uiso   1.00
C686   C     0.65994   0.17671   0.73617   0.00000  Uiso   1.00
C687   C     0.34080   0.15664   0.76346   0.00000  Uiso   1.00
C688   C     0.51476   0.32261   0.73596   0.00000  Uiso   1.00
C689   C     0.48553   0.01164   0.76291   0.00000  Uiso   1.00
C690   C     0.48890   0.05589   0.76059   0.00000  Uiso   1.00
C691   C     0.51022   0.27794   0.74024   0.00000  Uiso   1.00
C692   C     0.47694   0.25035   0.97863   0.00000  Uiso   1.00
C693   C     0.51848   0.14780   0.62937   0.00000  Uiso   1.00
C694   C     0.48171   0.18438   0.87092   0.00000  Uiso   1.00
C695   C     0.52337   0.08492   0.52096   0.00000  Uiso   1.00
C696   C     0.52444   0.13846   0.58142   0.00000  Uiso   1.00
C697   C     0.47149   0.23602   0.93633   0.00000  Uiso   1.00
C698   C     0.59023   0.01603   0.71469   0.00000  Uiso   1.00
C699   C     0.53049   0.04937   0.90212   0.00000  Uiso   1.00
C700   C     0.52707   0.00290   0.88683   0.00000  Uiso   1.00
C701   C     0.56000   0.32741   0.84310   0.00000  Uiso   1.00
C702   C     0.48956   0.22445   0.50415   0.00000  Uiso   1.00
C703   C     0.49490   0.18241   0.98866   0.00000  Uiso   1.00
C704   C     0.48667   0.16731   0.94647   0.00000  Uiso   1.00
C705   C     0.50763   0.15476   0.51373   0.00000  Uiso   1.00
C706   C     0.51113   0.11250   0.99640   0.00000  Uiso   1.00
C707   C     0.50054   0.09770   0.95584   0.00000  Uiso   1.00
C708   C     0.48651   0.12462   0.93264   0.00000  Uiso   1.00
H709   H     0.53569   0.07515   0.58316   0.00000  Uiso   1.00
H710   H     0.34893   0.19528   0.71106   0.00000  Uiso   1.00
H711   H     0.54306   0.03224   0.68821   0.00000  Uiso   1.00
H712   H     0.58892   0.04090   0.74258   0.00000  Uiso   1.00
H713   H     0.61585   0.02674   0.68548   0.00000  Uiso   1.00
H714   H     0.59855   0.32070   0.72486   0.00000  Uiso   1.00
H715   H     0.56295   0.05986   0.90816   0.00000  Uiso   1.00
H716   H     0.52628   0.06656   0.87486   0.00000  Uiso   1.00
H717   H     0.53219   0.31851   0.91312   0.00000  Uiso   1.00
H718   H     0.49438   0.32539   0.88179   0.00000  Uiso   1.00
H719   H     0.55502   0.01115   0.81631   0.00000  Uiso   1.00
H720   H     0.65251   0.13777   0.78869   0.00000  Uiso   1.00
H721   H     0.55627   0.29348   0.83279   0.00000  Uiso   1.00
H722   H     0.59306   0.00381   0.84743   0.00000  Uiso   1.00
H723   H     0.45883   0.33074   0.78782   0.00000  Uiso   1.00
H724   H     0.52649   0.05280   0.50835   0.00000  Uiso   1.00
H725   H     0.51137   0.19785   0.57266   0.00000  Uiso   1.00
H726   H     0.46414   0.25759   0.91620   0.00000  Uiso   1.00
H727   H     0.49458   0.23844   0.53586   0.00000  Uiso   1.00
H728   H     0.47279   0.28229   0.99116   0.00000  Uiso   1.00
H729   H     0.47426   0.11123   0.90413   0.00000  Uiso   1.00
N730   N     0.54953   0.00769   0.70251   0.00000  Uiso   1.00
O731   O     0.50000   0.16667   0.75000   0.00000  Uiso   1.00
O732   O     0.48784   0.12637   0.65458   0.00000  Uiso   1.00
O733   O     0.46274   0.20391   0.84968   0.00000  Uiso   1.00
O734   O     0.54157   0.17759   0.64606   0.00000  Uiso   1.00
O735   O     0.50785   0.15880   0.84968   0.00000  Uiso   1.00
O736   O     0.49849   0.05556   0.94197   0.00000  Uiso   1.00
O737   O     0.51264   0.08019   0.78213   0.00000  Uiso   1.00
O738   O     0.47965   0.26085   0.77014   0.00000  Uiso   1.00
O739   O     0.40745   0.13291   0.73413   0.00000  Uiso   1.00
O740   O     0.60026   0.19272   0.71360   0.00000  Uiso   1.00
O741   O     0.40405   0.18878   0.78213   0.00000  Uiso   1.00
O742   O     0.58824   0.15226   0.77013   0.00000  Uiso   1.00
O743   O     0.47093   0.06944   0.73413   0.00000  Uiso   1.00
O744   O     0.53678   0.25620   0.71360   0.00000  Uiso   1.00
Zn745  Zn    0.52672   0.13994   0.78734   0.00000  Uiso   1.00
Zn746  Zn    0.46713   0.12458   0.71875   0.00000  Uiso   1.00
Zn747  Zn    0.54389   0.19775   0.70657   0.00000  Uiso   1.00
Zn748  Zn    0.46226   0.20439   0.78734   0.00000  Uiso   1.00
C749   C     0.71939   0.15948   0.75988   0.00000  Uiso   1.00
C750   C     0.84869   0.16715   0.55639   0.00000  Uiso   1.00
C751   C     0.86264   0.09768   0.56340   0.00000  Uiso   1.00
C752   C     0.94742   0.17381   0.74002   0.00000  Uiso   1.00
C753   C     0.81124   0.19515   0.91913   0.00000  Uiso   1.00
C754   C     0.99328   0.17671   0.73617   0.00000  Uiso   1.00
C755   C     0.67413   0.15664   0.76346   0.00000  Uiso   1.00
C756   C     0.84809   0.32261   0.73596   0.00000  Uiso   1.00
C757   C     0.81886   0.01164   0.76291   0.00000  Uiso   1.00
C758   C     0.82224   0.05589   0.76059   0.00000  Uiso   1.00
C759   C     0.84355   0.27794   0.74024   0.00000  Uiso   1.00
C760   C     0.81027   0.25035   0.97863   0.00000  Uiso   1.00
C761   C     0.85182   0.14780   0.62937   0.00000  Uiso   1.00
C762   C     0.81504   0.18438   0.87092   0.00000  Uiso   1.00
C763   C     0.85671   0.08492   0.52096   0.00000  Uiso   1.00
C764   C     0.85777   0.13846   0.58142   0.00000  Uiso   1.00
C765   C     0.80482   0.23602   0.93633   0.00000  Uiso   1.00
C766   C     0.92356   0.01603   0.71469   0.00000  Uiso   1.00
C767   C     0.86382   0.04937   0.90212   0.00000  Uiso   1.00
C768   C     0.86040   0.00290   0.88683   0.00000  Uiso   1.00
C769   C     0.89333   0.32741   0.84310   0.00000  Uiso   1.00
C770   C     0.82289   0.22445   0.50415   0.00000  Uiso   1.00
C771   C     0.82823   0.18241   0.98866   0.00000  Uiso   1.00
C772   C     0.82000   0.16731   0.94647   0.00000  Uiso   1.00
C773   C     0.84097   0.15476   0.51373   0.00000  Uiso   1.00
C774   C     0.84446   0.11250   0.99640   0.00000  Uiso   1.00
C775   C     0.83388   0.09770   0.95584   0.00000  Uiso   1.00
C776   C     0.81984   0.12462   0.93264   0.00000  Uiso   1.00
H777   H     0.86902   0.07515   0.58316   0.00000  Uiso   1.00
H778   H     0.68226   0.19528   0.71106   0.00000  Uiso   1.00
H779   H     0.87639   0.03224   0.68821   0.00000  Uiso   1.00
H780   H     0.92225   0.04090   0.74258   0.00000  Uiso   1.00
H781   H     0.94919   0.02674   0.68548   0.00000  Uiso   1.00
H782   H     0.93188   0.32070   0.72486   0.00000  Uiso   1.00
H783   H     0.89629   0.05986   0.90816   0.00000  Uiso   1.00
H784   H     0.85962   0.06656   0.87486   0.00000  Uiso   1.00
H785   H     0.86552   0.31851   0.91312   0.00000  Uiso   1.00
H786   H     0.82772   0.32539   0.88179   0.00000  Uiso   1.00
H787   H     0.88836   0.01115   0.81631   0.00000  Uiso   1.00
H788   H     0.98584   0.13777   0.78869   0.00000  Uiso   1.00
H789   H     0.88960   0.29348   0.83279   0.00000  Uiso   1.00
H790   H     0.92639   0.00381   0.84743   0.00000  Uiso   1.00
H791   H     0.79216   0.33074   0.78782   0.00000  Uiso   1.00
H792   H     0.85982   0.05280   0.50835   0.00000  Uiso   1.00
H793   H     0.84471   0.19785   0.57266   0.00000  Uiso   1.00
H794   H     0.79748   0.25759   0.91620   0.00000  Uiso   1.00
H795   H     0.82792   0.23844   0.53586   0.00000  Uiso   1.00
H796   H     0.80613   0.28229   0.99116   0.00000  Uiso   1.00
H797   H     0.80760   0.11123   0.90413   0.00000  Uiso   1.00
N798   N     0.88287   0.00769   0.70251   0.00000  Uiso   1.00
O799   O     0.83333   0.16667   0.75000   0.00000  Uiso   1.00
O800   O     0.82118   0.12637   0.65458   0.00000  Uiso   1.00
O801   O     0.79607   0.20391   0.84968   0.00000  Uiso   1.00
O802   O     0.87491   0.17759   0.64606   0.00000  Uiso   1.00
O803   O     0.84118   0.15880   0.84968   0.00000  Uiso   1.00
O804   O     0.83182   0.05556   0.94197   0.00000  Uiso   1.00
O805   O     0.84597   0.08019   0.78213   0.00000  Uiso   1.00
O806   O     0.81298   0.26085   0.77014   0.00000  Uiso   1.00
O807   O     0.74078   0.13291   0.73413   0.00000  Uiso   1.00
O808   O     0.93360   0.19272   0.71360   0.00000  Uiso   1.00
O809   O     0.73738   0.18878   0.78213   0.00000  Uiso   1.00
O810   O     0.92158   0.15226   0.77013   0.00000  Uiso   1.00
O811   O     0.80426   0.06944   0.73413   0.00000  Uiso   1.00
O812   O     0.87012   0.25620   0.71360   0.00000  Uiso   1.00
Zn813  Zn    0.86005   0.13994   0.78734   0.00000  Uiso   1.00
Zn814  Zn    0.80046   0.12458   0.71875   0.00000  Uiso   1.00
Zn815  Zn    0.87723   0.19775   0.70657   0.00000  Uiso   1.00
Zn816  Zn    0.79560   0.20439   0.78734   0.00000  Uiso   1.00
C817   C     0.05273   0.49282   0.75988   0.00000  Uiso   1.00
C818   C     0.18202   0.50049   0.55639   0.00000  Uiso   1.00
C819   C     0.19597   0.43102   0.56340   0.00000  Uiso   1.00
C820   C     0.28076   0.50714   0.74002   0.00000  Uiso   1.00
C821   C     0.14457   0.52848   0.91913   0.00000  Uiso   1.00
C822   C     0.32661   0.51005   0.73617   0.00000  Uiso   1.00
C823   C     0.00746   0.48997   0.76346   0.00000  Uiso   1.00
C824   C     0.18143   0.65594   0.73596   0.00000  Uiso   1.00
C825   C     0.15219   0.34498   0.76291   0.00000  Uiso   1.00
C826   C     0.15557   0.38922   0.76059   0.00000  Uiso   1.00
C827   C     0.17688   0.61127   0.74024   0.00000  Uiso   1.00
C828   C     0.14360   0.58368   0.97863   0.00000  Uiso   1.00
C829   C     0.18515   0.48113   0.62937   0.00000  Uiso   1.00
C830   C     0.14837   0.51771   0.87092   0.00000  Uiso   1.00
C831   C     0.19004   0.41825   0.52096   0.00000  Uiso   1.00
C832   C     0.19110   0.47179   0.58142   0.00000  Uiso   1.00
C833   C     0.13815   0.56935   0.93633   0.00000  Uiso   1.00
C834   C     0.25690   0.34936   0.71469   0.00000  Uiso   1.00
C835   C     0.19715   0.38270   0.90212   0.00000  Uiso   1.00
C836   C     0.19373   0.33623   0.88683   0.00000  Uiso   1.00
C837   C     0.22667   0.66074   0.84310   0.00000  Uiso   1.00
C838   C     0.15623   0.55779   0.50415   0.00000  Uiso   1.00
C839   C     0.16156   0.51574   0.98866   0.00000  Uiso   1.00
C840   C     0.15334   0.50065   0.94647   0.00000  Uiso   1.00
C841   C     0.17430   0.48809   0.51373   0.00000  Uiso   1.00
C842   C     0.17780   0.44584   0.99640   0.00000  Uiso   1.00
C843   C     0.16721   0.43104   0.95584   0.00000  Uiso   1.00
C844   C     0.15318   0.45796   0.93264   0.00000  Uiso   1.00
H845   H     0.20235   0.40849   0.58316   0.00000  Uiso   1.00
H846   H     0.01560   0.52862   0.71106   0.00000  Uiso   1.00
H847   H     0.20972   0.36558   0.68821   0.00000  Uiso   1.00
H848   H     0.25558   0.37423   0.74258   0.00000  Uiso   1.00
H849   H     0.28252   0.36008   0.68548   0.00000  Uiso   1.00
H850   H     0.26521   0.65403   0.72486   0.00000  Uiso   1.00
H851   H     0.22962   0.39320   0.90816   0.00000  Uiso   1.00
H852   H     0.19295   0.39989   0.87486   0.00000  Uiso   1.00
H853   H     0.19886   0.65184   0.91312   0.00000  Uiso   1.00
H854   H     0.16105   0.65872   0.88179   0.00000  Uiso   1.00
H855   H     0.22169   0.34448   0.81631   0.00000  Uiso   1.00
H856   H     0.31918   0.47111   0.78869   0.00000  Uiso   1.00
H857   H     0.22294   0.62681   0.83279   0.00000  Uiso   1.00
H858   H     0.25972   0.33714   0.84743   0.00000  Uiso   1.00
H859   H     0.12549   0.66408   0.78782   0.00000  Uiso   1.00
H860   H     0.19315   0.38614   0.50835   0.00000  Uiso   1.00
H861   H     0.17804   0.53118   0.57266   0.00000  Uiso   1.00
H862   H     0.13081   0.59093   0.91620   0.00000  Uiso   1.00
H863   H     0.16125   0.57177   0.53586   0.00000  Uiso   1.00
H864   H     0.13946   0.61562   0.99116   0.00000  Uiso   1.00
H865   H     0.14093   0.44457   0.90413   0.00000  Uiso   1.00
N866   N     0.21620   0.34102   0.70251   0.00000  Uiso   1.00
O867   O     0.16667   0.50000   0.75000   0.00000  Uiso   1.00
O868   O     0.15451   0.45970   0.65458   0.00000  Uiso   1.00
O869   O     0.12940   0.53724   0.84968   0.00000  Uiso   1.00
O870   O     0.20824   0.51092   0.64606   0.00000  Uiso   1.00
O871   O     0.17451   0.49213   0.84968   0.00000  Uiso   1.00
O872   O     0.16515   0.38889   0.94197   0.00000  Uiso   1.00
O873   O     0.17930   0.41352   0.78213   0.00000  Uiso   1.00
O874   O     0.14632   0.59418   0.77014   0.00000  Uiso   1.00
O875   O     0.07412   0.46625   0.73413   0.00000  Uiso   1.00
O876   O     0.26693   0.52605   0.71360   0.00000  Uiso   1.00
O877   O     0.07071   0.52211   0.78213   0.00000  Uiso   1.00
O878   O     0.25491   0.48559   0.77013   0.00000  Uiso   1.00
O879   O     0.13760   0.40277   0.73413   0.00000  Uiso   1.00
O880   O     0.20345   0.58953   0.71360   0.00000  Uiso   1.00
Zn881  Zn    0.19338   0.47327   0.78734   0.00000  Uiso   1.00
Zn882  Zn    0.13379   0.45791   0.71875   0.00000  Uiso   1.00
Zn883  Zn    0.21056   0.53109   0.70657   0.00000  Uiso   1.00
Zn884  Zn    0.12893   0.53773   0.78734   0.00000  Uiso   1.00
C885   C     0.38606   0.49282   0.75988   0.00000  Uiso   1.00
C886   C     0.51535   0.50049   0.55639   0.00000  Uiso   1.00
C887   C     0.52930   0.43102   0.56340   0.00000  Uiso   1.00
C888   C     0.61409   0.50714   0.74002   0.00000  Uiso   1.00
C889   C     0.47790   0.52848   0.91913   0.00000  Uiso   1.00
C890   C     0.65994   0.51005   0.73617   0.00000  Uiso   1.00
C891   C     0.34080   0.48997   0.76346   0.00000  Uiso   1.00
C892   C     0.51476   0.65594   0.73596   0.00000  Uiso   1.00
C893   C     0.48553   0.34498   0.76291   0.00000  Uiso   1.00
C894   C     0.48890   0.38922   0.76059   0.00000  Uiso   1.00
C895   C     0.51022   0.61127   0.74024   0.00000  Uiso   1.00
C896   C     0.47694   0.58368   0.97863   0.00000  Uiso   1.00
C897   C     0.51848   0.48113   0.62937   0.00000  Uiso   1.00
C898   C     0.48171   0.51771   0.87092   0.00000  Uiso   1.00
C899   C     0.52337   0.41825   0.52096   0.00000  Uiso   1.00
C900   C     0.52444   0.47179   0.58142   0.00000  Uiso   1.00
C901   C     0.47149   0.56935   0.93633   0.00000  Uiso   1.00
C902   C     0.59023   0.34936   0.71469   0.00000  Uiso   1.00
C903   C     0.53049   0.38270   0.90212   0.00000  Uiso   1.00
C904   C     0.52707   0.33623   0.88683   0.00000  Uiso   1.00
C905   C     0.56000   0.66074   0.84310   0.00000  Uiso   1.00
C906   C     0.48956   0.55779   0.50415   0.00000  Uiso   1.00
C907   C     0.49490   0.51574   0.98866   0.00000  Uiso   1.00
C908   C     0.48667   0.50065   0.94647   0.00000  Uiso   1.00
C909   C     0.50763   0.48809   0.51373   0.00000  Uiso   1.00
C910   C     0.51113   0.44584   0.99640   0.00000  Uiso   1.00
C911   C     0.50054   0.43104   0.95584   0.00000  Uiso   1.00
C912   C     0.48651   0.45796   0.93264   0.00000  Uiso   1.00
H913   H     0.53569   0.40849   0.58316   0.00000  Uiso   1.00
H914   H     0.34893   0.52862   0.71106   0.00000  Uiso   1.00
H915   H     0.54306   0.36558   0.68821   0.00000  Uiso   1.00
H916   H     0.58892   0.37423   0.74258   0.00000  Uiso   1.00
H917   H     0.61585   0.36008   0.68548   0.00000  Uiso   1.00
H918   H     0.59855   0.65403   0.72486   0.00000  Uiso   1.00
H919   H     0.56295   0.39320   0.90816   0.00000  Uiso   1.00
H920   H     0.52628   0.39989   0.87486   0.00000  Uiso   1.00
H921   H     0.53219   0.65184   0.91312   0.00000  Uiso   1.00
H922   H     0.49438   0.65872   0.88179   0.00000  Uiso   1.00
H923   H     0.55502   0.34448   0.81631   0.00000  Uiso   1.00
H924   H     0.65251   0.47111   0.78869   0.00000  Uiso   1.00
H925   H     0.55627   0.62681   0.83279   0.00000  Uiso   1.00
H926   H     0.59306   0.33714   0.84743   0.00000  Uiso   1.00
H927   H     0.45883   0.66408   0.78782   0.00000  Uiso   1.00
H928   H     0.52649   0.38614   0.50835   0.00000  Uiso   1.00
H929   H     0.51137   0.53118   0.57266   0.00000  Uiso   1.00
H930   H     0.46414   0.59093   0.91620   0.00000  Uiso   1.00
H931   H     0.49458   0.57177   0.53586   0.00000  Uiso   1.00
H932   H     0.47279   0.61562   0.99116   0.00000  Uiso   1.00
H933   H     0.47426   0.44457   0.90413   0.00000  Uiso   1.00
N934   N     0.54953   0.34102   0.70251   0.00000  Uiso   1.00
O935   O     0.50000   0.50000   0.75000   0.00000  Uiso   1.00
O936   O     0.48784   0.45970   0.65458   0.00000  Uiso   1.00
O937   O     0.46274   0.53724   0.84968   0.00000  Uiso   1.00
O938   O     0.54157   0.51092   0.64606   0.00000  Uiso   1.00
O939   O     0.50785   0.49213   0.84968   0.00000  Uiso   1.00
O940   O     0.49849   0.38889   0.94197   0.00000  Uiso   1.00
O941   O     0.51264   0.41352   0.78213   0.00000  Uiso   1.00
O942   O     0.47965   0.59418   0.77014   0.00000  Uiso   1.00
O943   O     0.40745   0.46625   0.73413   0.00000  Uiso   1.00
O944   O     0.60026   0.52605   0.71360   0.00000  Uiso   1.00
O945   O     0.40405   0.52211   0.78213   0.00000  Uiso   1.00
O946   O     0.58824   0.48559   0.77013   0.00000  Uiso   1.00
O947   O     0.47093   0.40277   0.73413   0.00000  Uiso   1.00
O948   O     0.53678   0.58953   0.71360   0.00000  Uiso   1.00
Zn949  Zn    0.52672   0.47327   0.78734   0.00000  Uiso   1.00
Zn950  Zn    0.46713   0.45791   0.71875   0.00000  Uiso   1.00
Zn951  Zn    0.54389   0.53109   0.70657   0.00000  Uiso   1.00
Zn952  Zn    0.46226   0.53773   0.78734   0.00000  Uiso   1.00
C953   C     0.71939   0.49282   0.75988   0.00000  Uiso   1.00
C954   C     0.84869   0.50049   0.55639   0.00000  Uiso   1.00
C955   C     0.86264   0.43102   0.56340   0.00000  Uiso   1.00
C956   C     0.94742   0.50714   0.74002   0.00000  Uiso   1.00
C957   C     0.81124   0.52848   0.91913   0.00000  Uiso   1.00
C958   C     0.99328   0.51005   0.73617   0.00000  Uiso   1.00
C959   C     0.67413   0.48997   0.76346   0.00000  Uiso   1.00
C960   C     0.84809   0.65594   0.73596   0.00000  Uiso   1.00
C961   C     0.81886   0.34498   0.76291   0.00000  Uiso   1.00
C962   C     0.82224   0.38922   0.76059   0.00000  Uiso   1.00
C963   C     0.84355   0.61127   0.74024   0.00000  Uiso   1.00
C964   C     0.81027   0.58368   0.97863   0.00000  Uiso   1.00
C965   C     0.85182   0.48113   0.62937   0.00000  Uiso   1.00
C966   C     0.81504   0.51771   0.87092   0.00000  Uiso   1.00
C967   C     0.85671   0.41825   0.52096   0.00000  Uiso   1.00
C968   C     0.85777   0.47179   0.58142   0.00000  Uiso   1.00
C969   C     0.80482   0.56935   0.93633   0.00000  Uiso   1.00
C970   C     0.92356   0.34936   0.71469   0.00000  Uiso   1.00
C971   C     0.86382   0.38270   0.90212   0.00000  Uiso   1.00
C972   C     0.86040   0.33623   0.88683   0.00000  Uiso   1.00
C973   C     0.89333   0.66074   0.84310   0.00000  Uiso   1.00
C974   C     0.82289   0.55779   0.50415   0.00000  Uiso   1.00
C975   C     0.82823   0.51574   0.98866   0.00000  Uiso   1.00
C976   C     0.82000   0.50065   0.94647   0.00000  Uiso   1.00
C977   C     0.84097   0.48809   0.51373   0.00000  Uiso   1.00
C978   C     0.84446   0.44584   0.99640   0.00000  Uiso   1.00
C979   C     0.83388   0.43104   0.95584   0.00000  Uiso   1.00
C980   C     0.81984   0.45796   0.93264   0.00000  Uiso   1.00
H981   H     0.86902   0.40849   0.58316   0.00000  Uiso   1.00
H982   H     0.68226   0.52862   0.71106   0.00000  Uiso   1.00
H983   H     0.87639   0.36558   0.68821   0.00000  Uiso   1.00
H984   H     0.92225   0.37423   0.74258   0.00000  Uiso   1.00
H985   H     0.94919   0.36008   0.68548   0.00000  Uiso   1.00
H986   H     0.93188   0.65403   0.72486   0.00000  Uiso   1.00
H987   H     0.89629   0.39320   0.90816   0.00000  Uiso   1.00
H988   H     0.85962   0.39989   0.87486   0.00000  Uiso   1.00
H989   H     0.86552   0.65184   0.91312   0.00000  Uiso   1.00
H990   H     0.82772   0.65872   0.88179   0.00000  Uiso   1.00
H991   H     0.88836   0.34448   0.81631   0.00000  Uiso   1.00
H992   H     0.98584   0.47111   0.78869   0.00000  Uiso   1.00
H993   H     0.88960   0.62681   0.83279   0.00000  Uiso   1.00
H994   H     0.92639   0.33714   0.84743   0.00000  Uiso   1.00
H995   H     0.79216   0.66408   0.78782   0.00000  Uiso   1.00
H996   H     0.85982   0.38614   0.50835   0.00000  Uiso   1.00
H997   H     0.84471   0.53118   0.57266   0.00000  Uiso   1.00
H998   H     0.79748   0.59093   0.91620   0.00000  Uiso   1.00
H999   H     0.82792   0.57177   0.53586   0.00000  Uiso   1.00
H1000  H     0.80613   0.61562   0.99116   0.00000  Uiso   1.00
H1001  H     0.80760   0.44457   0.90413   0.00000  Uiso   1.00
N1002  N     0.88287   0.34102   0.70251   0.00000  Uiso   1.00
O1003  O     0.83333   0.50000   0.75000   0.00000  Uiso   1.00
O1004  O     0.82118   0.45970   0.65458   0.00000  Uiso   1.00
O1005  O     0.79607   0.53724   0.84968   0.00000  Uiso   1.00
O1006  O     0.87491   0.51092   0.64606   0.00000  Uiso   1.00
O1007  O     0.84118   0.49213   0.84968   0.00000  Uiso   1.00
O1008  O     0.83182   0.38889   0.94197   0.00000  Uiso   1.00
O1009  O     0.84597   0.41352   0.78213   0.00000  Uiso   1.00
O1010  O     0.81298   0.59418   0.77014   0.00000  Uiso   1.00
O1011  O     0.74078   0.46625   0.73413   0.00000  Uiso   1.00
O1012  O     0.93360   0.52605   0.71360   0.00000  Uiso   1.00
O1013  O     0.73738   0.52211   0.78213   0.00000  Uiso   1.00
O1014  O     0.92158   0.48559   0.77013   0.00000  Uiso   1.00
O1015  O     0.80426   0.40277   0.73413   0.00000  Uiso   1.00
O1016  O     0.87012   0.58953   0.71360   0.00000  Uiso   1.00
Zn1017 Zn    0.86005   0.47327   0.78734   0.00000  Uiso   1.00
Zn1018 Zn    0.80046   0.45791   0.71875   0.00000  Uiso   1.00
Zn1019 Zn    0.87723   0.53109   0.70657   0.00000  Uiso   1.00
Zn1020 Zn    0.79560   0.53773   0.78734   0.00000  Uiso   1.00
C1021  C     0.05273   0.82615   0.75988   0.00000  Uiso   1.00
C1022  C     0.18202   0.83382   0.55639   0.00000  Uiso   1.00
C1023  C     0.19597   0.76435   0.56340   0.00000  Uiso   1.00
C1024  C     0.28076   0.84047   0.74002   0.00000  Uiso   1.00
C1025  C     0.14457   0.86181   0.91913   0.00000  Uiso   1.00
C1026  C     0.32661   0.84338   0.73617   0.00000  Uiso   1.00
C1027  C     0.00746   0.82331   0.76346   0.00000  Uiso   1.00
C1028  C     0.18143   0.98928   0.73596   0.00000  Uiso   1.00
C1029  C     0.15219   0.67831   0.76291   0.00000  Uiso   1.00
C1030  C     0.15557   0.72256   0.76059   0.00000  Uiso   1.00
C1031  C     0.17688   0.94461   0.74024   0.00000  Uiso   1.00
C1032  C     0.14360   0.91701   0.97863   0.00000  Uiso   1.00
C1033  C     0.18515   0.81446   0.62937   0.00000  Uiso   1.00
C1034  C     0.14837   0.85104   0.87092   0.00000  Uiso   1.00
C1035  C     0.19004   0.75159   0.52096   0.00000  Uiso   1.00
C1036  C     0.19110   0.80513   0.58142   0.00000  Uiso   1.00
C1037  C     0.13815   0.90268   0.93633   0.00000  Uiso   1.00
C1038  C     0.25690   0.68269   0.71469   0.00000  Uiso   1.00
C1039  C     0.19715   0.71604   0.90212   0.00000  Uiso   1.00
C1040  C     0.19373   0.66956   0.88683   0.00000  Uiso   1.00
C1041  C     0.22667   0.99408   0.84310   0.00000  Uiso   1.00
C1042  C     0.15623   0.89112   0.50415   0.00000  Uiso   1.00
C1043  C     0.16156   0.84908   0.98866   0.00000  Uiso   1.00
C1044  C     0.15334   0.83398   0.94647   0.00000  Uiso   1.00
C1045  C     0.17430   0.82143   0.51373   0.00000  Uiso   1.00
C1046  C     0.17780   0.77917   0.99640   0.00000  Uiso   1.00
C1047  C     0.16721   0.76437   0.95584   0.00000  Uiso   1.00
C1048  C     0.15318   0.79129   0.93264   0.00000  Uiso   1.00
H1049  H     0.20235   0.74182   0.58316   0.00000  Uiso   1.00
H1050  H     0.01560   0.86195   0.71106   0.00000  Uiso   1.00
H1051  H     0.20972   0.69891   0.68821   0.00000  Uiso   1.00
H1052  H     0.25558   0.70757   0.74258   0.00000  Uiso   1.00
H1053  H     0.28252   0.69341   0.68548   0.00000  Uiso   1.00
H1054  H     0.26521   0.98736   0.72486   0.00000  Uiso   1.00
H1055  H     0.22962   0.72653   0.90816   0.00000  Uiso   1.00
H1056  H     0.19295   0.73323   0.87486   0.00000  Uiso   1.00
H1057  H     0.19886   0.98517   0.91312   0.00000  Uiso   1.00
H1058  H     0.16105   0.99206   0.88179   0.00000  Uiso   1.00
H1059  H     0.22169   0.67782   0.81631   0.00000  Uiso   1.00
H1060  H     0.31918   0.80444   0.78869   0.00000  Uiso   1.00
H1061  H     0.22294   0.96015   0.83279   0.00000  Uiso   1.00
H1062  H     0.25972   0.67048   0.84743   0.00000  Uiso   1.00
H1063  H     0.12549   0.99741   0.78782   0.00000  Uiso   1.00
H1064  H     0.19315   0.71947   0.50835   0.00000  Uiso   1.00
H1065  H     0.17804   0.86452   0.57266   0.00000  Uiso   1.00
H1066  H     0.13081   0.92426   0.91620   0.00000  Uiso   1.00
H1067  H     0.16125   0.90510   0.53586   0.00000  Uiso   1.00
H1068  H     0.13946   0.94895   0.99116   0.00000  Uiso   1.00
H1069  H     0.14093   0.77790   0.90413   0.00000  Uiso   1.00
N1070  N     0.21620   0.67435   0.70251   0.00000  Uiso   1.00
O1071  O     0.16667   0.83333   0.75000   0.00000  Uiso   1.00
O1072  O     0.15451   0.79304   0.65458   0.00000  Uiso   1.00
O1073  O     0.12940   0.87058   0.84968   0.00000  Uiso   1.00
O1074  O     0.20824   0.84425   0.64606   0.00000  Uiso   1.00
O1075  O     0.17451   0.82546   0.84968   0.00000  Uiso   1.00
O1076  O     0.16515   0.72222   0.94197   0.00000  Uiso   1.00
O1077  O     0.17930   0.74686   0.78213   0.00000  Uiso   1.00
O1078  O     0.14632   0.92751   0.77014   0.00000  Uiso   1.00
O1079  O     0.07412   0.79958   0.73413   0.00000  Uiso   1.00
O1080  O     0.26693   0.85939   0.71360   0.00000  Uiso   1.00
O1081  O     0.07071   0.85544   0.78213   0.00000  Uiso   1.00
O1082  O     0.25491   0.81892   0.77013   0.00000  Uiso   1.00
O1083  O     0.13760   0.73610   0.73413   0.00000  Uiso   1.00
O1084  O     0.20345   0.92286   0.71360   0.00000  Uiso   1.00
Zn1085 Zn    0.19338   0.80661   0.78734   0.00000  Uiso   1.00
Zn1086 Zn    0.13379   0.79124   0.71875   0.00000  Uiso   1.00
Zn1087 Zn    0.21056   0.86442   0.70657   0.00000  Uiso   1.00
Zn1088 Zn    0.12893   0.87106   0.78734   0.00000  Uiso   1.00
C1089  C     0.38606   0.82615   0.75988   0.00000  Uiso   1.00
C1090  C     0.51535   0.83382   0.55639   0.00000  Uiso   1.00
C1091  C     0.52930   0.76435   0.56340   0.00000  Uiso   1.00
C1092  C     0.61409   0.84047   0.74002   0.00000  Uiso   1.00
C1093  C     0.47790   0.86181   0.91913   0.00000  Uiso   1.00
C1094  C     0.65994   0.84338   0.73617   0.00000  Uiso   1.00
C1095  C     0.34080   0.82331   0.76346   0.00000  Uiso   1.00
C1096  C     0.51476   0.98928   0.73596   0.00000  Uiso   1.00
C1097  C     0.48553   0.67831   0.76291   0.00000  Uiso   1.00
C1098  C     0.48890   0.72256   0.76059   0.00000  Uiso   1.00
C1099  C     0.51022   0.94461   0.74024   0.00000  Uiso   1.00
C1100  C     0.47694   0.91701   0.97863   0.00000  Uiso   1.00
C1101  C     0.51848   0.81446   0.62937   0.00000  Uiso   1.00
C1102  C     0.48171   0.85104   0.87092   0.00000  Uiso   1.00
C1103  C     0.52337   0.75159   0.52096   0.00000  Uiso   1.00
C1104  C     0.52444   0.80513   0.58142   0.00000  Uiso   1.00
C1105  C     0.47149   0.90268   0.93633   0.00000  Uiso   1.00
C1106  C     0.59023   0.68269   0.71469   0.00000  Uiso   1.00
C1107  C     0.53049   0.71604   0.90212   0.00000  Uiso   1.00
C1108  C     0.52707   0.66956   0.88683   0.00000  Uiso   1.00
C1109  C     0.56000   0.99408   0.84310   0.00000  Uiso   1.00
C1110  C     0.48956   0.89112   0.50415   0.00000  Uiso   1.00
C1111  C     0.49490   0.84908   0.98866   0.00000  Uiso   1.00
C1112  C     0.48667   0.83398   0.94647   0.00000  Uiso   1.00
C1113  C     0.50763   0.82143   0.51373   0.00000  Uiso   1.00
C1114  C     0.51113   0.77917   0.99640   0.00000  Uiso   1.00
C1115  C     0.50054   0.76437   0.95584   0.00000  Uiso   1.00
C1116  C     0.48651   0.79129   0.93264   0.00000  Uiso   1.00
H1117  H     0.53569   0.74182   0.58316   0.00000  Uiso   1.00
H1118  H     0.34893   0.86195   0.71106   0.00000  Uiso   1.00
H1119  H     0.54306   0.69891   0.68821   0.00000  Uiso   1.00
H1120  H     0.58892   0.70757   0.74258   0.00000  Uiso   1.00
H1121  H     0.61585   0.69341   0.68548   0.00000  Uiso   1.00
H1122  H     0.59855   0.98736   0.72486   0.00000  Uiso   1.00
H1123  H     0.56295   0.72653   0.90816   0.00000  Uiso   1.00
H1124  H     0.52628   0.73323   0.87486   0.00000  Uiso   1.00
H1125  H     0.53219   0.98517   0.91312   0.00000  Uiso   1.00
H1126  H     0.49438   0.99206   0.88179   0.00000  Uiso   1.00
H1127  H     0.55502   0.67782   0.81631   0.00000  Uiso   1.00
H1128  H     0.65251   0.80444   0.78869   0.00000  Uiso   1.00
H1129  H     0.55627   0.96015   0.83279   0.00000  Uiso   1.00
H1130  H     0.59306   0.67048   0.84743   0.00000  Uiso   1.00
H1131  H     0.45883   0.99741   0.78782   0.00000  Uiso   1.00
H1132  H     0.52649   0.71947   0.50835   0.00000  Uiso   1.00
H1133  H     0.51137   0.86452   0.57266   0.00000  Uiso   1.00
H1134  H     0.46414   0.92426   0.91620   0.00000  Uiso   1.00
H1135  H     0.49458   0.90510   0.53586   0.00000  Uiso   1.00
H1136  H     0.47279   0.94895   0.99116   0.00000  Uiso   1.00
H1137  H     0.47426   0.77790   0.90413   0.00000  Uiso   1.00
N1138  N     0.54953   0.67435   0.70251   0.00000  Uiso   1.00
O1139  O     0.50000   0.83333   0.75000   0.00000  Uiso   1.00
O1140  O     0.48784   0.79304   0.65458   0.00000  Uiso   1.00
O1141  O     0.46274   0.87058   0.84968   0.00000  Uiso   1.00
O1142  O     0.54157   0.84425   0.64606   0.00000  Uiso   1.00
O1143  O     0.50785   0.82546   0.84968   0.00000  Uiso   1.00
O1144  O     0.49849   0.72222   0.94197   0.00000  Uiso   1.00
O1145  O     0.51264   0.74686   0.78213   0.00000  Uiso   1.00
O1146  O     0.47965   0.92751   0.77014   0.00000  Uiso   1.00
O1147  O     0.40745   0.79958   0.73413   0.00000  Uiso   1.00
O1148  O     0.60026   0.85939   0.71360   0.00000  Uiso   1.00
O1149  O     0.40405   0.85544   0.78213   0.00000  Uiso   1.00
O1150  O     0.58824   0.81892   0.77013   0.00000  Uiso   1.00
O1151  O     0.47093   0.73610   0.73413   0.00000  Uiso   1.00
O1152  O     0.53678   0.92286   0.71360   0.00000  Uiso   1.00
Zn1153 Zn    0.52672   0.80661   0.78734   0.00000  Uiso   1.00
Zn1154 Zn    0.46713   0.79124   0.71875   0.00000  Uiso   1.00
Zn1155 Zn    0.54389   0.86442   0.70657   0.00000  Uiso   1.00
Zn1156 Zn    0.46226   0.87106   0.78734   0.00000  Uiso   1.00
C1157  C     0.71939   0.82615   0.75988   0.00000  Uiso   1.00
C1158  C     0.84869   0.83382   0.55639   0.00000  Uiso   1.00
C1159  C     0.86264   0.76435   0.56340   0.00000  Uiso   1.00
C1160  C     0.94742   0.84047   0.74002   0.00000  Uiso   1.00
C1161  C     0.81124   0.86181   0.91913   0.00000  Uiso   1.00
C1162  C     0.99328   0.84338   0.73617   0.00000  Uiso   1.00
C1163  C     0.67413   0.82331   0.76346   0.00000  Uiso   1.00
C1164  C     0.84809   0.98928   0.73596   0.00000  Uiso   1.00
C1165  C     0.81886   0.67831   0.76291   0.00000  Uiso   1.00
C1166  C     0.82224   0.72256   0.76059   0.00000  Uiso   1.00
C1167  C     0.84355   0.94461   0.74024   0.00000  Uiso   1.00
C1168  C     0.81027   0.91701   0.97863   0.00000  Uiso   1.00
C1169  C     0.85182   0.81446   0.62937   0.00000  Uiso   1.00
C1170  C     0.81504   0.85104   0.87092   0.00000  Uiso   1.00
C1171  C     0.85671   0.75159   0.52096   0.00000  Uiso   1.00
C1172  C     0.85777   0.80513   0.58142   0.00000  Uiso   1.00
C1173  C     0.80482   0.90268   0.93633   0.00000  Uiso   1.00
C1174  C     0.92356   0.68269   0.71469   0.00000  Uiso   1.00
C1175  C     0.86382   0.71604   0.90212   0.00000  Uiso   1.00
C1176  C     0.86040   0.66956   0.88683   0.00000  Uiso   1.00
C1177  C     0.89333   0.99408   0.84310   0.00000  Uiso   1.00
C1178  C     0.82289   0.89112   0.50415   0.00000  Uiso   1.00
C1179  C     0.82823   0.84908   0.98866   0.00000  Uiso   1.00
C1180  C     0.82000   0.83398   0.94647   0.00000  Uiso   1.00
C1181  C     0.84097   0.82143   0.51373   0.00000  Uiso   1.00
C1182  C     0.84446   0.77917   0.99640   0.00000  Uiso   1.00
C1183  C     0.83388   0.76437   0.95584   0.00000  Uiso   1.00
C1184  C     0.81984   0.79129   0.93264   0.00000  Uiso   1.00
H1185  H     0.86902   0.74182   0.58316   0.00000  Uiso   1.00
H1186  H     0.68226   0.86195   0.71106   0.00000  Uiso   1.00
H1187  H     0.87639   0.69891   0.68821   0.00000  Uiso   1.00
H1188  H     0.92225   0.70757   0.74258   0.00000  Uiso   1.00
H1189  H     0.94919   0.69341   0.68548   0.00000  Uiso   1.00
H1190  H     0.93188   0.98736   0.72486   0.00000  Uiso   1.00
H1191  H     0.89629   0.72653   0.90816   0.00000  Uiso   1.00
H1192  H     0.85962   0.73323   0.87486   0.00000  Uiso   1.00
H1193  H     0.86552   0.98517   0.91312   0.00000  Uiso   1.00
H1194  H     0.82772   0.99206   0.88179   0.00000  Uiso   1.00
H1195  H     0.88836   0.67782   0.81631   0.00000  Uiso   1.00
H1196  H     0.98584   0.80444   0.78869   0.00000  Uiso   1.00
H1197  H     0.88960   0.96015   0.83279   0.00000  Uiso   1.00
H1198  H     0.92639   0.67048   0.84743   0.00000  Uiso   1.00
H1199  H     0.79216   0.99741   0.78782   0.00000  Uiso   1.00
H1200  H     0.85982   0.71947   0.50835   0.00000  Uiso   1.00
H1201  H     0.84471   0.86452   0.57266   0.00000  Uiso   1.00
H1202  H     0.79748   0.92426   0.91620   0.00000  Uiso   1.00
H1203  H     0.82792   0.90510   0.53586   0.00000  Uiso   1.00
H1204  H     0.80613   0.94895   0.99116   0.00000  Uiso   1.00
H1205  H     0.80760   0.77790   0.90413   0.00000  Uiso   1.00
N1206  N     0.88287   0.67435   0.70251   0.00000  Uiso   1.00
O1207  O     0.83333   0.83333   0.75000   0.00000  Uiso   1.00
O1208  O     0.82118   0.79304   0.65458   0.00000  Uiso   1.00
O1209  O     0.79607   0.87058   0.84968   0.00000  Uiso   1.00
O1210  O     0.87491   0.84425   0.64606   0.00000  Uiso   1.00
O1211  O     0.84118   0.82546   0.84968   0.00000  Uiso   1.00
O1212  O     0.83182   0.72222   0.94197   0.00000  Uiso   1.00
O1213  O     0.84597   0.74686   0.78213   0.00000  Uiso   1.00
O1214  O     0.81298   0.92751   0.77014   0.00000  Uiso   1.00
O1215  O     0.74078   0.79958   0.73413   0.00000  Uiso   1.00
O1216  O     0.93360   0.85939   0.71360   0.00000  Uiso   1.00
O1217  O     0.73738   0.85544   0.78213   0.00000  Uiso   1.00
O1218  O     0.92158   0.81892   0.77013   0.00000  Uiso   1.00
O1219  O     0.80426   0.73610   0.73413   0.00000  Uiso   1.00
O1220  O     0.87012   0.92286   0.71360   0.00000  Uiso   1.00
Zn1221 Zn    0.86005   0.80661   0.78734   0.00000  Uiso   1.00
Zn1222 Zn    0.80046   0.79124   0.71875   0.00000  Uiso   1.00
Zn1223 Zn    0.87723   0.86442   0.70657   0.00000  Uiso   1.00
Zn1224 Zn    0.79560   0.87106   0.78734   0.00000  Uiso   1.00
loop_
_geom_bond_atom_site_label_1
_geom_bond_atom_site_label_2
_geom_bond_distance
_geom_bond_site_symmetry_2
_ccdc_geom_bond_type
C1     O59     1.269   .     A
C1     C7      1.437   .     S
C1     O61     1.269   .     A
C2     C16     1.391   .     A
C2     C25     1.412   .     A
C2     H45     1.077   .     S
C3     H29     1.084   .     S
C3     C15     1.387   .     A
C3     C16     1.395   .     A
C4     O60     1.283   .     A
C4     O62     1.280   .     A
C4     C6      1.454   .     S
C5     C14     1.474   .     S
C5     C24     1.416   .     A
C5     C17     1.401   .     A
C6     C75     1.334   .     S
C6     H98     1.088   .     S
C7     C142    1.334   1_455 S
C7     H176    1.086   1_455 S
C8     C11     1.457   .     S
C8     C213    1.340   .     S
C8     N254    1.431   .     S
C9     C10     1.437   .     S
C9     C416    1.340   1_545 S
C9     H451    1.086   1_545 S
C10    O57     1.274   .     A
C10    O63     1.273   .     A
C11    O58     1.278   .     A
C11    O64     1.271   .     A
C12    C17     1.387   .     A
C12    H48     1.083   .     S
C12    C634    1.391   .     S
C13    O52     1.266   .     A
C13    O54     1.277   .     A
C13    C16     1.452   .     S
C14    O55     1.286   .     A
C14    O53     1.284   .     A
C15    H44     1.083   .     S
C15    C638    1.404   1_554 S
C17    H46     1.083   .     S
C18    H32     1.111   .     S
C18    H33     1.110   .     S
C18    N50     1.446   .     S
C18    H442    1.111   1_545 S
C19    O56     1.413   .     S
C19    C20     1.528   .     S
C19    H36     1.114   .     S
C19    H35     1.115   .     S
C20    C429    1.525   1_545 S
C20    H445    1.112   1_545 S
C20    H446    1.112   1_545 S
C21    H41     1.111   .     S
C21    C224    1.525   .     S
C21    H243    1.110   .     S
C21    H246    1.111   .     S
C22    H47     1.076   .     S
C22    C624    1.391   1_554 S
C22    C635    1.418   1_554 S
C23    C24     1.420   .     A
C23    C634    1.418   .     S
C23    C637    1.425   .     S
C24    C28     1.406   .     A
C25    C635    1.425   1_554 S
C25    C638    1.428   1_554 S
C26    C27     1.402   .     A
C26    C637    1.428   .     S
C26    C627    1.404   .     S
C27    C28     1.391   .     A
C27    O56     1.386   .     S
C28    H49     1.081   .     S
H30    C142    1.088   1_455 S
H31    N50     1.031   .     S
H34    C222    1.111   .     S
H37    C224    1.112   .     S
H38    C224    1.112   .     S
H39    C429    1.110   1_545 S
H40    C75     1.086   .     S
H42    C429    1.111   1_545 S
H43    C213    1.086   .     S
N50    C416    1.431   1_545 S
O51    Zn65    1.960   .     S
O51    Zn67    1.939   .     S
O51    Zn68    1.939   .     S
O51    Zn66    1.932   .     S
O52    Zn66    1.935   .     S
O53    Zn68    1.940   .     S
O54    Zn67    1.932   .     S
O55    Zn65    1.930   .     S
O57    Zn65    1.926   .     S
O58    Zn68    1.933   .     S
O59    Zn66    1.930   .     S
O60    Zn67    1.935   .     S
O61    Zn68    1.926   .     S
O62    Zn65    1.924   .     S
O63    Zn66    1.940   .     S
O64    Zn67    1.933   .     S
C69    O127    1.269   .     A
C69    C75     1.437   .     S
C69    O129    1.269   .     A
C70    C84     1.391   .     A
C70    C93     1.412   .     A
C70    H113    1.077   .     S
C71    H97     1.084   .     S
C71    C83     1.387   .     A
C71    C84     1.395   .     A
C72    O128    1.283   .     A
C72    O130    1.280   .     A
C72    C74     1.454   .     S
C73    C82     1.474   .     S
C73    C92     1.416   .     A
C73    C85     1.401   .     A
C74    C143    1.334   .     S
C74    H166    1.088   .     S
C76    C79     1.457   .     S
C76    C281    1.340   .     S
C76    N322    1.431   .     S
C77    C78     1.437   .     S
C77    C484    1.340   1_545 S
C77    H519    1.086   1_545 S
C78    O125    1.274   .     A
C78    O131    1.273   .     A
C79    O126    1.278   .     A
C79    O132    1.271   .     A
C80    C85     1.387   .     A
C80    H116    1.083   .     S
C80    C702    1.391   .     S
C81    O120    1.266   .     A
C81    O122    1.277   .     A
C81    C84     1.452   .     S
C82    O123    1.286   .     A
C82    O121    1.284   .     A
C83    H112    1.083   .     S
C83    C706    1.404   1_554 S
C85    H114    1.083   .     S
C86    H100    1.111   .     S
C86    H101    1.110   .     S
C86    N118    1.446   .     S
C86    H510    1.111   1_545 S
C87    O124    1.413   .     S
C87    C88     1.528   .     S
C87    H104    1.114   .     S
C87    H103    1.115   .     S
C88    C497    1.525   1_545 S
C88    H513    1.112   1_545 S
C88    H514    1.112   1_545 S
C89    H109    1.111   .     S
C89    C292    1.525   .     S
C89    H311    1.110   .     S
C89    H314    1.111   .     S
C90    H115    1.076   .     S
C90    C692    1.391   1_554 S
C90    C703    1.418   1_554 S
C91    C92     1.420   .     A
C91    C702    1.418   .     S
C91    C705    1.425   .     S
C92    C96     1.406   .     A
C93    C703    1.425   1_554 S
C93    C706    1.428   1_554 S
C94    C95     1.402   .     A
C94    C705    1.428   .     S
C94    C695    1.404   .     S
C95    C96     1.391   .     A
C95    O124    1.386   .     S
C96    H117    1.081   .     S
H99    N118    1.031   .     S
H102   C290    1.111   .     S
H105   C292    1.112   .     S
H106   C292    1.112   .     S
H107   C497    1.110   1_545 S
H108   C143    1.086   .     S
H110   C497    1.111   1_545 S
H111   C281    1.086   .     S
N118   C484    1.431   1_545 S
O119   Zn133   1.960   .     S
O119   Zn135   1.939   .     S
O119   Zn136   1.939   .     S
O119   Zn134   1.932   .     S
O120   Zn134   1.935   .     S
O121   Zn136   1.940   .     S
O122   Zn135   1.932   .     S
O123   Zn133   1.930   .     S
O125   Zn133   1.926   .     S
O126   Zn136   1.933   .     S
O127   Zn134   1.930   .     S
O128   Zn135   1.935   .     S
O129   Zn136   1.926   .     S
O130   Zn133   1.924   .     S
O131   Zn134   1.940   .     S
O132   Zn135   1.933   .     S
C137   O195    1.269   .     A
C137   C143    1.437   .     S
C137   O197    1.269   .     A
C138   C152    1.391   .     A
C138   C161    1.412   .     A
C138   H181    1.077   .     S
C139   H165    1.084   .     S
C139   C151    1.387   .     A
C139   C152    1.395   .     A
C140   O196    1.283   .     A
C140   O198    1.280   .     A
C140   C142    1.454   .     S
C141   C150    1.474   .     S
C141   C160    1.416   .     A
C141   C153    1.401   .     A
C142   C7      1.334   1_655 S
C142   H30     1.088   1_655 S
C144   C147    1.457   .     S
C144   C349    1.340   .     S
C144   N390    1.431   .     S
C145   C146    1.437   .     S
C145   C552    1.340   1_545 S
C145   H587    1.086   1_545 S
C146   O193    1.274   .     A
C146   O199    1.273   .     A
C147   O194    1.278   .     A
C147   O200    1.271   .     A
C148   C153    1.387   .     A
C148   H184    1.083   .     S
C148   C770    1.391   .     S
C149   O188    1.266   .     A
C149   O190    1.277   .     A
C149   C152    1.452   .     S
C150   O191    1.286   .     A
C150   O189    1.284   .     A
C151   H180    1.083   .     S
C151   C774    1.404   1_554 S
C153   H182    1.083   .     S
C154   H168    1.111   .     S
C154   H169    1.110   .     S
C154   N186    1.446   .     S
C154   H578    1.111   1_545 S
C155   O192    1.413   .     S
C155   C156    1.528   .     S
C155   H172    1.114   .     S
C155   H171    1.115   .     S
C156   C565    1.525   1_545 S
C156   H581    1.112   1_545 S
C156   H582    1.112   1_545 S
C157   H177    1.111   .     S
C157   C360    1.525   .     S
C157   H379    1.110   .     S
C157   H382    1.111   .     S
C158   H183    1.076   .     S
C158   C760    1.391   1_554 S
C158   C771    1.418   1_554 S
C159   C160    1.420   .     A
C159   C770    1.418   .     S
C159   C773    1.425   .     S
C160   C164    1.406   .     A
C161   C771    1.425   1_554 S
C161   C774    1.428   1_554 S
C162   C163    1.402   .     A
C162   C773    1.428   .     S
C162   C763    1.404   .     S
C163   C164    1.391   .     A
C163   O192    1.386   .     S
C164   H185    1.081   .     S
H167   N186    1.031   .     S
H170   C358    1.111   .     S
H173   C360    1.112   .     S
H174   C360    1.112   .     S
H175   C565    1.110   1_545 S
H176   C7      1.086   1_655 S
H178   C565    1.111   1_545 S
H179   C349    1.086   .     S
N186   C552    1.431   1_545 S
O187   Zn201   1.960   .     S
O187   Zn203   1.939   .     S
O187   Zn204   1.939   .     S
O187   Zn202   1.932   .     S
O188   Zn202   1.935   .     S
O189   Zn204   1.940   .     S
O190   Zn203   1.932   .     S
O191   Zn201   1.930   .     S
O193   Zn201   1.926   .     S
O194   Zn204   1.933   .     S
O195   Zn202   1.930   .     S
O196   Zn203   1.935   .     S
O197   Zn204   1.926   .     S
O198   Zn201   1.924   .     S
O199   Zn202   1.940   .     S
O200   Zn203   1.933   .     S
C205   O263    1.269   .     A
C205   C211    1.437   .     S
C205   O265    1.269   .     A
C206   C220    1.391   .     A
C206   C229    1.412   .     A
C206   H249    1.077   .     S
C207   H233    1.084   .     S
C207   C219    1.387   .     A
C207   C220    1.395   .     A
C208   O264    1.283   .     A
C208   O266    1.280   .     A
C208   C210    1.454   .     S
C209   C218    1.474   .     S
C209   C228    1.416   .     A
C209   C221    1.401   .     A
C210   C279    1.334   .     S
C210   H302    1.088   .     S
C211   C346    1.334   1_455 S
C211   H380    1.086   1_455 S
C212   C215    1.457   .     S
C212   C417    1.340   .     S
C212   N458    1.431   .     S
C213   C214    1.437   .     S
C214   O261    1.274   .     A
C214   O267    1.273   .     A
C215   O262    1.278   .     A
C215   O268    1.271   .     A
C216   C221    1.387   .     A
C216   H252    1.083   .     S
C216   C838    1.391   .     S
C217   O256    1.266   .     A
C217   O258    1.277   .     A
C217   C220    1.452   .     S
C218   O259    1.286   .     A
C218   O257    1.284   .     A
C219   H248    1.083   .     S
C219   C842    1.404   1_554 S
C221   H250    1.083   .     S
C222   H236    1.111   .     S
C222   H237    1.110   .     S
C222   N254    1.446   .     S
C223   O260    1.413   .     S
C223   C224    1.528   .     S
C223   H240    1.114   .     S
C223   H239    1.115   .     S
C225   H245    1.111   .     S
C225   C428    1.525   .     S
C225   H447    1.110   .     S
C225   H450    1.111   .     S
C226   H251    1.076   .     S
C226   C828    1.391   1_554 S
C226   C839    1.418   1_554 S
C227   C228    1.420   .     A
C227   C838    1.418   .     S
C227   C841    1.425   .     S
C228   C232    1.406   .     A
C229   C839    1.425   1_554 S
C229   C842    1.428   1_554 S
C230   C231    1.402   .     A
C230   C841    1.428   .     S
C230   C831    1.404   .     S
C231   C232    1.391   .     A
C231   O260    1.386   .     S
C232   H253    1.081   .     S
H234   C346    1.088   1_455 S
H235   N254    1.031   .     S
H238   C426    1.111   .     S
H241   C428    1.112   .     S
H242   C428    1.112   .     S
H244   C279    1.086   .     S
H247   C417    1.086   .     S
O255   Zn269   1.960   .     S
O255   Zn271   1.939   .     S
O255   Zn272   1.939   .     S
O255   Zn270   1.932   .     S
O256   Zn270   1.935   .     S
O257   Zn272   1.940   .     S
O258   Zn271   1.932   .     S
O259   Zn269   1.930   .     S
O261   Zn269   1.926   .     S
O262   Zn272   1.933   .     S
O263   Zn270   1.930   .     S
O264   Zn271   1.935   .     S
O265   Zn272   1.926   .     S
O266   Zn269   1.924   .     S
O267   Zn270   1.940   .     S
O268   Zn271   1.933   .     S
C273   O331    1.269   .     A
C273   C279    1.437   .     S
C273   O333    1.269   .     A
C274   C288    1.391   .     A
C274   C297    1.412   .     A
C274   H317    1.077   .     S
C275   H301    1.084   .     S
C275   C287    1.387   .     A
C275   C288    1.395   .     A
C276   O332    1.283   .     A
C276   O334    1.280   .     A
C276   C278    1.454   .     S
C277   C286    1.474   .     S
C277   C296    1.416   .     A
C277   C289    1.401   .     A
C278   C347    1.334   .     S
C278   H370    1.088   .     S
C280   C283    1.457   .     S
C280   C485    1.340   .     S
C280   N526    1.431   .     S
C281   C282    1.437   .     S
C282   O329    1.274   .     A
C282   O335    1.273   .     A
C283   O330    1.278   .     A
C283   O336    1.271   .     A
C284   C289    1.387   .     A
C284   H320    1.083   .     S
C284   C906    1.391   .     S
C285   O324    1.266   .     A
C285   O326    1.277   .     A
C285   C288    1.452   .     S
C286   O327    1.286   .     A
C286   O325    1.284   .     A
C287   H316    1.083   .     S
C287   C910    1.404   1_554 S
C289   H318    1.083   .     S
C290   H304    1.111   .     S
C290   H305    1.110   .     S
C290   N322    1.446   .     S
C291   O328    1.413   .     S
C291   C292    1.528   .     S
C291   H308    1.114   .     S
C291   H307    1.115   .     S
C293   H313    1.111   .     S
C293   C496    1.525   .     S
C293   H515    1.110   .     S
C293   H518    1.111   .     S
C294   H319    1.076   .     S
C294   C896    1.391   1_554 S
C294   C907    1.418   1_554 S
C295   C296    1.420   .     A
C295   C906    1.418   .     S
C295   C909    1.425   .     S
C296   C300    1.406   .     A
C297   C907    1.425   1_554 S
C297   C910    1.428   1_554 S
C298   C299    1.402   .     A
C298   C909    1.428   .     S
C298   C899    1.404   .     S
C299   C300    1.391   .     A
C299   O328    1.386   .     S
C300   H321    1.081   .     S
H303   N322    1.031   .     S
H306   C494    1.111   .     S
H309   C496    1.112   .     S
H310   C496    1.112   .     S
H312   C347    1.086   .     S
H315   C485    1.086   .     S
O323   Zn337   1.960   .     S
O323   Zn339   1.939   .     S
O323   Zn340   1.939   .     S
O323   Zn338   1.932   .     S
O324   Zn338   1.935   .     S
O325   Zn340   1.940   .     S
O326   Zn339   1.932   .     S
O327   Zn337   1.930   .     S
O329   Zn337   1.926   .     S
O330   Zn340   1.933   .     S
O331   Zn338   1.930   .     S
O332   Zn339   1.935   .     S
O333   Zn340   1.926   .     S
O334   Zn337   1.924   .     S
O335   Zn338   1.940   .     S
O336   Zn339   1.933   .     S
C341   O399    1.269   .     A
C341   C347    1.437   .     S
C341   O401    1.269   .     A
C342   C356    1.391   .     A
C342   C365    1.412   .     A
C342   H385    1.077   .     S
C343   H369    1.084   .     S
C343   C355    1.387   .     A
C343   C356    1.395   .     A
C344   O400    1.283   .     A
C344   O402    1.280   .     A
C344   C346    1.454   .     S
C345   C354    1.474   .     S
C345   C364    1.416   .     A
C345   C357    1.401   .     A
C346   C211    1.334   1_655 S
C346   H234    1.088   1_655 S
C348   C351    1.457   .     S
C348   C553    1.340   .     S
C348   N594    1.431   .     S
C349   C350    1.437   .     S
C350   O397    1.274   .     A
C350   O403    1.273   .     A
C351   O398    1.278   .     A
C351   O404    1.271   .     A
C352   C357    1.387   .     A
C352   H388    1.083   .     S
C352   C974    1.391   .     S
C353   O392    1.266   .     A
C353   O394    1.277   .     A
C353   C356    1.452   .     S
C354   O395    1.286   .     A
C354   O393    1.284   .     A
C355   H384    1.083   .     S
C355   C978    1.404   1_554 S
C357   H386    1.083   .     S
C358   H372    1.111   .     S
C358   H373    1.110   .     S
C358   N390    1.446   .     S
C359   O396    1.413   .     S
C359   C360    1.528   .     S
C359   H376    1.114   .     S
C359   H375    1.115   .     S
C361   H381    1.111   .     S
C361   C564    1.525   .     S
C361   H583    1.110   .     S
C361   H586    1.111   .     S
C362   H387    1.076   .     S
C362   C964    1.391   1_554 S
C362   C975    1.418   1_554 S
C363   C364    1.420   .     A
C363   C974    1.418   .     S
C363   C977    1.425   .     S
C364   C368    1.406   .     A
C365   C975    1.425   1_554 S
C365   C978    1.428   1_554 S
C366   C367    1.402   .     A
C366   C977    1.428   .     S
C366   C967    1.404   .     S
C367   C368    1.391   .     A
C367   O396    1.386   .     S
C368   H389    1.081   .     S
H371   N390    1.031   .     S
H374   C562    1.111   .     S
H377   C564    1.112   .     S
H378   C564    1.112   .     S
H380   C211    1.086   1_655 S
H383   C553    1.086   .     S
O391   Zn405   1.960   .     S
O391   Zn407   1.939   .     S
O391   Zn408   1.939   .     S
O391   Zn406   1.932   .     S
O392   Zn406   1.935   .     S
O393   Zn408   1.940   .     S
O394   Zn407   1.932   .     S
O395   Zn405   1.930   .     S
O397   Zn405   1.926   .     S
O398   Zn408   1.933   .     S
O399   Zn406   1.930   .     S
O400   Zn407   1.935   .     S
O401   Zn408   1.926   .     S
O402   Zn405   1.924   .     S
O403   Zn406   1.940   .     S
O404   Zn407   1.933   .     S
C409   O467    1.269   .     A
C409   C415    1.437   .     S
C409   O469    1.269   .     A
C410   C424    1.391   .     A
C410   C433    1.412   .     A
C410   H453    1.077   .     S
C411   H437    1.084   .     S
C411   C423    1.387   .     A
C411   C424    1.395   .     A
C412   O468    1.283   .     A
C412   O470    1.280   .     A
C412   C414    1.454   .     S
C413   C422    1.474   .     S
C413   C432    1.416   .     A
C413   C425    1.401   .     A
C414   C483    1.334   .     S
C414   H506    1.088   .     S
C415   C550    1.334   1_455 S
C415   H584    1.086   1_455 S
C416   C419    1.457   .     S
C416   C9      1.340   1_565 S
C416   N50     1.431   1_565 S
C417   C418    1.437   .     S
C418   O465    1.274   .     A
C418   O471    1.273   .     A
C419   O466    1.278   .     A
C419   O472    1.271   .     A
C420   C425    1.387   .     A
C420   H456    1.083   .     S
C420   C1042   1.391   .     S
C421   O460    1.266   .     A
C421   O462    1.277   .     A
C421   C424    1.452   .     S
C422   O463    1.286   .     A
C422   O461    1.284   .     A
C423   H452    1.083   .     S
C423   C1046   1.404   1_554 S
C425   H454    1.083   .     S
C426   H440    1.111   .     S
C426   H441    1.110   .     S
C426   N458    1.446   .     S
C427   O464    1.413   .     S
C427   C428    1.528   .     S
C427   H444    1.114   .     S
C427   H443    1.115   .     S
C429   H449    1.111   .     S
C429   C20     1.525   1_565 S
C429   H39     1.110   1_565 S
C429   H42     1.111   1_565 S
C430   H455    1.076   .     S
C430   C1032   1.391   1_554 S
C430   C1043   1.418   1_554 S
C431   C432    1.420   .     A
C431   C1042   1.418   .     S
C431   C1045   1.425   .     S
C432   C436    1.406   .     A
C433   C1043   1.425   1_554 S
C433   C1046   1.428   1_554 S
C434   C435    1.402   .     A
C434   C1045   1.428   .     S
C434   C1035   1.404   .     S
C435   C436    1.391   .     A
C435   O464    1.386   .     S
C436   H457    1.081   .     S
H438   C550    1.088   1_455 S
H439   N458    1.031   .     S
H442   C18     1.111   1_565 S
H445   C20     1.112   1_565 S
H446   C20     1.112   1_565 S
H448   C483    1.086   .     S
H451   C9      1.086   1_565 S
O459   Zn473   1.960   .     S
O459   Zn475   1.939   .     S
O459   Zn476   1.939   .     S
O459   Zn474   1.932   .     S
O460   Zn474   1.935   .     S
O461   Zn476   1.940   .     S
O462   Zn475   1.932   .     S
O463   Zn473   1.930   .     S
O465   Zn473   1.926   .     S
O466   Zn476   1.933   .     S
O467   Zn474   1.930   .     S
O468   Zn475   1.935   .     S
O469   Zn476   1.926   .     S
O470   Zn473   1.924   .     S
O471   Zn474   1.940   .     S
O472   Zn475   1.933   .     S
C477   O535    1.269   .     A
C477   C483    1.437   .     S
C477   O537    1.269   .     A
C478   C492    1.391   .     A
C478   C501    1.412   .     A
C478   H521    1.077   .     S
C479   H505    1.084   .     S
C479   C491    1.387   .     A
C479   C492    1.395   .     A
C480   O536    1.283   .     A
C480   O538    1.280   .     A
C480   C482    1.454   .     S
C481   C490    1.474   .     S
C481   C500    1.416   .     A
C481   C493    1.401   .     A
C482   C551    1.334   .     S
C482   H574    1.088   .     S
C484   C487    1.457   .     S
C484   C77     1.340   1_565 S
C484   N118    1.431   1_565 S
C485   C486    1.437   .     S
C486   O533    1.274   .     A
C486   O539    1.273   .     A
C487   O534    1.278   .     A
C487   O540    1.271   .     A
C488   C493    1.387   .     A
C488   H524    1.083   .     S
C488   C1110   1.391   .     S
C489   O528    1.266   .     A
C489   O530    1.277   .     A
C489   C492    1.452   .     S
C490   O531    1.286   .     A
C490   O529    1.284   .     A
C491   H520    1.083   .     S
C491   C1114   1.404   1_554 S
C493   H522    1.083   .     S
C494   H508    1.111   .     S
C494   H509    1.110   .     S
C494   N526    1.446   .     S
C495   O532    1.413   .     S
C495   C496    1.528   .     S
C495   H512    1.114   .     S
C495   H511    1.115   .     S
C497   H517    1.111   .     S
C497   C88     1.525   1_565 S
C497   H107    1.110   1_565 S
C497   H110    1.111   1_565 S
C498   H523    1.076   .     S
C498   C1100   1.391   1_554 S
C498   C1111   1.418   1_554 S
C499   C500    1.420   .     A
C499   C1110   1.418   .     S
C499   C1113   1.425   .     S
C500   C504    1.406   .     A
C501   C1111   1.425   1_554 S
C501   C1114   1.428   1_554 S
C502   C503    1.402   .     A
C502   C1113   1.428   .     S
C502   C1103   1.404   .     S
C503   C504    1.391   .     A
C503   O532    1.386   .     S
C504   H525    1.081   .     S
H507   N526    1.031   .     S
H510   C86     1.111   1_565 S
H513   C88     1.112   1_565 S
H514   C88     1.112   1_565 S
H516   C551    1.086   .     S
H519   C77     1.086   1_565 S
O527   Zn541   1.960   .     S
O527   Zn543   1.939   .     S
O527   Zn544   1.939   .     S
O527   Zn542   1.932   .     S
O528   Zn542   1.935   .     S
O529   Zn544   1.940   .     S
O530   Zn543   1.932   .     S
O531   Zn541   1.930   .     S
O533   Zn541   1.926   .     S
O534   Zn544   1.933   .     S
O535   Zn542   1.930   .     S
O536   Zn543   1.935   .     S
O537   Zn544   1.926   .     S
O538   Zn541   1.924   .     S
O539   Zn542   1.940   .     S
O540   Zn543   1.933   .     S
C545   O603    1.269   .     A
C545   C551    1.437   .     S
C545   O605    1.269   .     A
C546   C560    1.391   .     A
C546   C569    1.412   .     A
C546   H589    1.077   .     S
C547   H573    1.084   .     S
C547   C559    1.387   .     A
C547   C560    1.395   .     A
C548   O604    1.283   .     A
C548   O606    1.280   .     A
C548   C550    1.454   .     S
C549   C558    1.474   .     S
C549   C568    1.416   .     A
C549   C561    1.401   .     A
C550   C415    1.334   1_655 S
C550   H438    1.088   1_655 S
C552   C555    1.457   .     S
C552   C145    1.340   1_565 S
C552   N186    1.431   1_565 S
C553   C554    1.437   .     S
C554   O601    1.274   .     A
C554   O607    1.273   .     A
C555   O602    1.278   .     A
C555   O608    1.271   .     A
C556   C561    1.387   .     A
C556   H592    1.083   .     S
C556   C1178   1.391   .     S
C557   O596    1.266   .     A
C557   O598    1.277   .     A
C557   C560    1.452   .     S
C558   O599    1.286   .     A
C558   O597    1.284   .     A
C559   H588    1.083   .     S
C559   C1182   1.404   1_554 S
C561   H590    1.083   .     S
C562   H576    1.111   .     S
C562   H577    1.110   .     S
C562   N594    1.446   .     S
C563   O600    1.413   .     S
C563   C564    1.528   .     S
C563   H580    1.114   .     S
C563   H579    1.115   .     S
C565   H585    1.111   .     S
C565   C156    1.525   1_565 S
C565   H175    1.110   1_565 S
C565   H178    1.111   1_565 S
C566   H591    1.076   .     S
C566   C1168   1.391   1_554 S
C566   C1179   1.418   1_554 S
C567   C568    1.420   .     A
C567   C1178   1.418   .     S
C567   C1181   1.425   .     S
C568   C572    1.406   .     A
C569   C1179   1.425   1_554 S
C569   C1182   1.428   1_554 S
C570   C571    1.402   .     A
C570   C1181   1.428   .     S
C570   C1171   1.404   .     S
C571   C572    1.391   .     A
C571   O600    1.386   .     S
C572   H593    1.081   .     S
H575   N594    1.031   .     S
H578   C154    1.111   1_565 S
H581   C156    1.112   1_565 S
H582   C156    1.112   1_565 S
H584   C415    1.086   1_655 S
H587   C145    1.086   1_565 S
O595   Zn609   1.960   .     S
O595   Zn611   1.939   .     S
O595   Zn612   1.939   .     S
O595   Zn610   1.932   .     S
O596   Zn610   1.935   .     S
O597   Zn612   1.940   .     S
O598   Zn611   1.932   .     S
O599   Zn609   1.930   .     S
O601   Zn609   1.926   .     S
O602   Zn612   1.933   .     S
O603   Zn610   1.930   .     S
O604   Zn611   1.935   .     S
O605   Zn612   1.926   .     S
O606   Zn609   1.924   .     S
O607   Zn610   1.940   .     S
O608   Zn611   1.933   .     S
C613   O671    1.269   .     A
C613   C619    1.437   .     S
C613   O673    1.269   .     A
C614   C628    1.391   .     A
C614   C637    1.412   .     A
C614   H657    1.077   .     S
C615   H641    1.084   .     S
C615   C627    1.387   .     A
C615   C628    1.395   .     A
C616   O672    1.283   .     A
C616   O674    1.280   .     A
C616   C618    1.454   .     S
C617   C626    1.474   .     S
C617   C636    1.416   .     A
C617   C629    1.401   .     A
C618   C687    1.334   .     S
C618   H710    1.088   .     S
C619   C754    1.334   1_455 S
C619   H788    1.086   1_455 S
C620   C623    1.457   .     S
C620   C825    1.340   .     S
C620   N866    1.431   .     S
C621   C622    1.437   .     S
C621   C1028   1.340   1_545 S
C621   H1063   1.086   1_545 S
C622   O669    1.274   .     A
C622   O675    1.273   .     A
C623   O670    1.278   .     A
C623   O676    1.271   .     A
C624   C629    1.387   .     A
C624   H660    1.083   .     S
C624   C22     1.391   1_556 S
C625   O664    1.266   .     A
C625   O666    1.277   .     A
C625   C628    1.452   .     S
C626   O667    1.286   .     A
C626   O665    1.284   .     A
C627   H656    1.083   .     S
C629   H658    1.083   .     S
C630   H644    1.111   .     S
C630   H645    1.110   .     S
C630   N662    1.446   .     S
C630   H1054   1.111   1_545 S
C631   O668    1.413   .     S
C631   C632    1.528   .     S
C631   H648    1.114   .     S
C631   H647    1.115   .     S
C632   C1041   1.525   1_545 S
C632   H1057   1.112   1_545 S
C632   H1058   1.112   1_545 S
C633   H653    1.111   .     S
C633   C836    1.525   .     S
C633   H855    1.110   .     S
C633   H858    1.111   .     S
C634   H659    1.076   .     S
C635   C636    1.420   .     A
C635   C22     1.418   1_556 S
C635   C25     1.425   1_556 S
C636   C640    1.406   .     A
C638   C639    1.402   .     A
C638   C25     1.428   1_556 S
C638   C15     1.404   1_556 S
C639   C640    1.391   .     A
C639   O668    1.386   .     S
C640   H661    1.081   .     S
H642   C754    1.088   1_455 S
H643   N662    1.031   .     S
H646   C834    1.111   .     S
H649   C836    1.112   .     S
H650   C836    1.112   .     S
H651   C1041   1.110   1_545 S
H652   C687    1.086   .     S
H654   C1041   1.111   1_545 S
H655   C825    1.086   .     S
N662   C1028   1.431   1_545 S
O663   Zn677   1.960   .     S
O663   Zn679   1.939   .     S
O663   Zn680   1.939   .     S
O663   Zn678   1.932   .     S
O664   Zn678   1.935   .     S
O665   Zn680   1.940   .     S
O666   Zn679   1.932   .     S
O667   Zn677   1.930   .     S
O669   Zn677   1.926   .     S
O670   Zn680   1.933   .     S
O671   Zn678   1.930   .     S
O672   Zn679   1.935   .     S
O673   Zn680   1.926   .     S
O674   Zn677   1.924   .     S
O675   Zn678   1.940   .     S
O676   Zn679   1.933   .     S
C681   O739    1.269   .     A
C681   C687    1.437   .     S
C681   O741    1.269   .     A
C682   C696    1.391   .     A
C682   C705    1.412   .     A
C682   H725    1.077   .     S
C683   H709    1.084   .     S
C683   C695    1.387   .     A
C683   C696    1.395   .     A
C684   O740    1.283   .     A
C684   O742    1.280   .     A
C684   C686    1.454   .     S
C685   C694    1.474   .     S
C685   C704    1.416   .     A
C685   C697    1.401   .     A
C686   C755    1.334   .     S
C686   H778    1.088   .     S
C688   C691    1.457   .     S
C688   C893    1.340   .     S
C688   N934    1.431   .     S
C689   C690    1.437   .     S
C689   C1096   1.340   1_545 S
C689   H1131   1.086   1_545 S
C690   O737    1.274   .     A
C690   O743    1.273   .     A
C691   O738    1.278   .     A
C691   O744    1.271   .     A
C692   C697    1.387   .     A
C692   H728    1.083   .     S
C692   C90     1.391   1_556 S
C693   O732    1.266   .     A
C693   O734    1.277   .     A
C693   C696    1.452   .     S
C694   O735    1.286   .     A
C694   O733    1.284   .     A
C695   H724    1.083   .     S
C697   H726    1.083   .     S
C698   H712    1.111   .     S
C698   H713    1.110   .     S
C698   N730    1.446   .     S
C698   H1122   1.111   1_545 S
C699   O736    1.413   .     S
C699   C700    1.528   .     S
C699   H716    1.114   .     S
C699   H715    1.115   .     S
C700   C1109   1.525   1_545 S
C700   H1125   1.112   1_545 S
C700   H1126   1.112   1_545 S
C701   H721    1.111   .     S
C701   C904    1.525   .     S
C701   H923    1.110   .     S
C701   H926    1.111   .     S
C702   H727    1.076   .     S
C703   C704    1.420   .     A
C703   C90     1.418   1_556 S
C703   C93     1.425   1_556 S
C704   C708    1.406   .     A
C706   C707    1.402   .     A
C706   C93     1.428   1_556 S
C706   C83     1.404   1_556 S
C707   C708    1.391   .     A
C707   O736    1.386   .     S
C708   H729    1.081   .     S
H711   N730    1.031   .     S
H714   C902    1.111   .     S
H717   C904    1.112   .     S
H718   C904    1.112   .     S
H719   C1109   1.110   1_545 S
H720   C755    1.086   .     S
H722   C1109   1.111   1_545 S
H723   C893    1.086   .     S
N730   C1096   1.431   1_545 S
O731   Zn745   1.960   .     S
O731   Zn747   1.939   .     S
O731   Zn748   1.939   .     S
O731   Zn746   1.932   .     S
O732   Zn746   1.935   .     S
O733   Zn748   1.940   .     S
O734   Zn747   1.932   .     S
O735   Zn745   1.930   .     S
O737   Zn745   1.926   .     S
O738   Zn748   1.933   .     S
O739   Zn746   1.930   .     S
O740   Zn747   1.935   .     S
O741   Zn748   1.926   .     S
O742   Zn745   1.924   .     S
O743   Zn746   1.940   .     S
O744   Zn747   1.933   .     S
C749   O807    1.269   .     A
C749   C755    1.437   .     S
C749   O809    1.269   .     A
C750   C764    1.391   .     A
C750   C773    1.412   .     A
C750   H793    1.077   .     S
C751   H777    1.084   .     S
C751   C763    1.387   .     A
C751   C764    1.395   .     A
C752   O808    1.283   .     A
C752   O810    1.280   .     A
C752   C754    1.454   .     S
C753   C762    1.474   .     S
C753   C772    1.416   .     A
C753   C765    1.401   .     A
C754   C619    1.334   1_655 S
C754   H642    1.088   1_655 S
C756   C759    1.457   .     S
C756   C961    1.340   .     S
C756   N1002   1.431   .     S
C757   C758    1.437   .     S
C757   C1164   1.340   1_545 S
C757   H1199   1.086   1_545 S
C758   O805    1.274   .     A
C758   O811    1.273   .     A
C759   O806    1.278   .     A
C759   O812    1.271   .     A
C760   C765    1.387   .     A
C760   H796    1.083   .     S
C760   C158    1.391   1_556 S
C761   O800    1.266   .     A
C761   O802    1.277   .     A
C761   C764    1.452   .     S
C762   O803    1.286   .     A
C762   O801    1.284   .     A
C763   H792    1.083   .     S
C765   H794    1.083   .     S
C766   H780    1.111   .     S
C766   H781    1.110   .     S
C766   N798    1.446   .     S
C766   H1190   1.111   1_545 S
C767   O804    1.413   .     S
C767   C768    1.528   .     S
C767   H784    1.114   .     S
C767   H783    1.115   .     S
C768   C1177   1.525   1_545 S
C768   H1193   1.112   1_545 S
C768   H1194   1.112   1_545 S
C769   H789    1.111   .     S
C769   C972    1.525   .     S
C769   H991    1.110   .     S
C769   H994    1.111   .     S
C770   H795    1.076   .     S
C771   C772    1.420   .     A
C771   C158    1.418   1_556 S
C771   C161    1.425   1_556 S
C772   C776    1.406   .     A
C774   C775    1.402   .     A
C774   C161    1.428   1_556 S
C774   C151    1.404   1_556 S
C775   C776    1.391   .     A
C775   O804    1.386   .     S
C776   H797    1.081   .     S
H779   N798    1.031   .     S
H782   C970    1.111   .     S
H785   C972    1.112   .     S
H786   C972    1.112   .     S
H787   C1177   1.110   1_545 S
H788   C619    1.086   1_655 S
H790   C1177   1.111   1_545 S
H791   C961    1.086   .     S
N798   C1164   1.431   1_545 S
O799   Zn813   1.960   .     S
O799   Zn815   1.939   .     S
O799   Zn816   1.939   .     S
O799   Zn814   1.932   .     S
O800   Zn814   1.935   .     S
O801   Zn816   1.940   .     S
O802   Zn815   1.932   .     S
O803   Zn813   1.930   .     S
O805   Zn813   1.926   .     S
O806   Zn816   1.933   .     S
O807   Zn814   1.930   .     S
O808   Zn815   1.935   .     S
O809   Zn816   1.926   .     S
O810   Zn813   1.924   .     S
O811   Zn814   1.940   .     S
O812   Zn815   1.933   .     S
C817   O875    1.269   .     A
C817   C823    1.437   .     S
C817   O877    1.269   .     A
C818   C832    1.391   .     A
C818   C841    1.412   .     A
C818   H861    1.077   .     S
C819   H845    1.084   .     S
C819   C831    1.387   .     A
C819   C832    1.395   .     A
C820   O876    1.283   .     A
C820   O878    1.280   .     A
C820   C822    1.454   .     S
C821   C830    1.474   .     S
C821   C840    1.416   .     A
C821   C833    1.401   .     A
C822   C891    1.334   .     S
C822   H914    1.088   .     S
C823   C958    1.334   1_455 S
C823   H992    1.086   1_455 S
C824   C827    1.457   .     S
C824   C1029   1.340   .     S
C824   N1070   1.431   .     S
C825   C826    1.437   .     S
C826   O873    1.274   .     A
C826   O879    1.273   .     A
C827   O874    1.278   .     A
C827   O880    1.271   .     A
C828   C833    1.387   .     A
C828   H864    1.083   .     S
C828   C226    1.391   1_556 S
C829   O868    1.266   .     A
C829   O870    1.277   .     A
C829   C832    1.452   .     S
C830   O871    1.286   .     A
C830   O869    1.284   .     A
C831   H860    1.083   .     S
C833   H862    1.083   .     S
C834   H848    1.111   .     S
C834   H849    1.110   .     S
C834   N866    1.446   .     S
C835   O872    1.413   .     S
C835   C836    1.528   .     S
C835   H852    1.114   .     S
C835   H851    1.115   .     S
C837   H857    1.111   .     S
C837   C1040   1.525   .     S
C837   H1059   1.110   .     S
C837   H1062   1.111   .     S
C838   H863    1.076   .     S
C839   C840    1.420   .     A
C839   C226    1.418   1_556 S
C839   C229    1.425   1_556 S
C840   C844    1.406   .     A
C842   C843    1.402   .     A
C842   C229    1.428   1_556 S
C842   C219    1.404   1_556 S
C843   C844    1.391   .     A
C843   O872    1.386   .     S
C844   H865    1.081   .     S
H846   C958    1.088   1_455 S
H847   N866    1.031   .     S
H850   C1038   1.111   .     S
H853   C1040   1.112   .     S
H854   C1040   1.112   .     S
H856   C891    1.086   .     S
H859   C1029   1.086   .     S
O867   Zn881   1.960   .     S
O867   Zn883   1.939   .     S
O867   Zn884   1.939   .     S
O867   Zn882   1.932   .     S
O868   Zn882   1.935   .     S
O869   Zn884   1.940   .     S
O870   Zn883   1.932   .     S
O871   Zn881   1.930   .     S
O873   Zn881   1.926   .     S
O874   Zn884   1.933   .     S
O875   Zn882   1.930   .     S
O876   Zn883   1.935   .     S
O877   Zn884   1.926   .     S
O878   Zn881   1.924   .     S
O879   Zn882   1.940   .     S
O880   Zn883   1.933   .     S
C885   O943    1.269   .     A
C885   C891    1.437   .     S
C885   O945    1.269   .     A
C886   C900    1.391   .     A
C886   C909    1.412   .     A
C886   H929    1.077   .     S
C887   H913    1.084   .     S
C887   C899    1.387   .     A
C887   C900    1.395   .     A
C888   O944    1.283   .     A
C888   O946    1.280   .     A
C888   C890    1.454   .     S
C889   C898    1.474   .     S
C889   C908    1.416   .     A
C889   C901    1.401   .     A
C890   C959    1.334   .     S
C890   H982    1.088   .     S
C892   C895    1.457   .     S
C892   C1097   1.340   .     S
C892   N1138   1.431   .     S
C893   C894    1.437   .     S
C894   O941    1.274   .     A
C894   O947    1.273   .     A
C895   O942    1.278   .     A
C895   O948    1.271   .     A
C896   C901    1.387   .     A
C896   H932    1.083   .     S
C896   C294    1.391   1_556 S
C897   O936    1.266   .     A
C897   O938    1.277   .     A
C897   C900    1.452   .     S
C898   O939    1.286   .     A
C898   O937    1.284   .     A
C899   H928    1.083   .     S
C901   H930    1.083   .     S
C902   H916    1.111   .     S
C902   H917    1.110   .     S
C902   N934    1.446   .     S
C903   O940    1.413   .     S
C903   C904    1.528   .     S
C903   H920    1.114   .     S
C903   H919    1.115   .     S
C905   H925    1.111   .     S
C905   C1108   1.525   .     S
C905   H1127   1.110   .     S
C905   H1130   1.111   .     S
C906   H931    1.076   .     S
C907   C908    1.420   .     A
C907   C294    1.418   1_556 S
C907   C297    1.425   1_556 S
C908   C912    1.406   .     A
C910   C911    1.402   .     A
C910   C297    1.428   1_556 S
C910   C287    1.404   1_556 S
C911   C912    1.391   .     A
C911   O940    1.386   .     S
C912   H933    1.081   .     S
H915   N934    1.031   .     S
H918   C1106   1.111   .     S
H921   C1108   1.112   .     S
H922   C1108   1.112   .     S
H924   C959    1.086   .     S
H927   C1097   1.086   .     S
O935   Zn949   1.960   .     S
O935   Zn951   1.939   .     S
O935   Zn952   1.939   .     S
O935   Zn950   1.932   .     S
O936   Zn950   1.935   .     S
O937   Zn952   1.940   .     S
O938   Zn951   1.932   .     S
O939   Zn949   1.930   .     S
O941   Zn949   1.926   .     S
O942   Zn952   1.933   .     S
O943   Zn950   1.930   .     S
O944   Zn951   1.935   .     S
O945   Zn952   1.926   .     S
O946   Zn949   1.924   .     S
O947   Zn950   1.940   .     S
O948   Zn951   1.933   .     S
C953   O1011   1.269   .     A
C953   C959    1.437   .     S
C953   O1013   1.269   .     A
C954   C968    1.391   .     A
C954   C977    1.412   .     A
C954   H997    1.077   .     S
C955   H981    1.084   .     S
C955   C967    1.387   .     A
C955   C968    1.395   .     A
C956   O1012   1.283   .     A
C956   O1014   1.280   .     A
C956   C958    1.454   .     S
C957   C966    1.474   .     S
C957   C976    1.416   .     A
C957   C969    1.401   .     A
C958   C823    1.334   1_655 S
C958   H846    1.088   1_655 S
C960   C963    1.457   .     S
C960   C1165   1.340   .     S
C960   N1206   1.431   .     S
C961   C962    1.437   .     S
C962   O1009   1.274   .     A
C962   O1015   1.273   .     A
C963   O1010   1.278   .     A
C963   O1016   1.271   .     A
C964   C969    1.387   .     A
C964   H1000   1.083   .     S
C964   C362    1.391   1_556 S
C965   O1004   1.266   .     A
C965   O1006   1.277   .     A
C965   C968    1.452   .     S
C966   O1007   1.286   .     A
C966   O1005   1.284   .     A
C967   H996    1.083   .     S
C969   H998    1.083   .     S
C970   H984    1.111   .     S
C970   H985    1.110   .     S
C970   N1002   1.446   .     S
C971   O1008   1.413   .     S
C971   C972    1.528   .     S
C971   H988    1.114   .     S
C971   H987    1.115   .     S
C973   H993    1.111   .     S
C973   C1176   1.525   .     S
C973   H1195   1.110   .     S
C973   H1198   1.111   .     S
C974   H999    1.076   .     S
C975   C976    1.420   .     A
C975   C362    1.418   1_556 S
C975   C365    1.425   1_556 S
C976   C980    1.406   .     A
C978   C979    1.402   .     A
C978   C365    1.428   1_556 S
C978   C355    1.404   1_556 S
C979   C980    1.391   .     A
C979   O1008   1.386   .     S
C980   H1001   1.081   .     S
H983   N1002   1.031   .     S
H986   C1174   1.111   .     S
H989   C1176   1.112   .     S
H990   C1176   1.112   .     S
H992   C823    1.086   1_655 S
H995   C1165   1.086   .     S
O1003  Zn1017  1.960   .     S
O1003  Zn1019  1.939   .     S
O1003  Zn1020  1.939   .     S
O1003  Zn1018  1.932   .     S
O1004  Zn1018  1.935   .     S
O1005  Zn1020  1.940   .     S
O1006  Zn1019  1.932   .     S
O1007  Zn1017  1.930   .     S
O1009  Zn1017  1.926   .     S
O1010  Zn1020  1.933   .     S
O1011  Zn1018  1.930   .     S
O1012  Zn1019  1.935   .     S
O1013  Zn1020  1.926   .     S
O1014  Zn1017  1.924   .     S
O1015  Zn1018  1.940   .     S
O1016  Zn1019  1.933   .     S
C1021  O1079   1.269   .     A
C1021  C1027   1.437   .     S
C1021  O1081   1.269   .     A
C1022  C1036   1.391   .     A
C1022  C1045   1.412   .     A
C1022  H1065   1.077   .     S
C1023  H1049   1.084   .     S
C1023  C1035   1.387   .     A
C1023  C1036   1.395   .     A
C1024  O1080   1.283   .     A
C1024  O1082   1.280   .     A
C1024  C1026   1.454   .     S
C1025  C1034   1.474   .     S
C1025  C1044   1.416   .     A
C1025  C1037   1.401   .     A
C1026  C1095   1.334   .     S
C1026  H1118   1.088   .     S
C1027  C1162   1.334   1_455 S
C1027  H1196   1.086   1_455 S
C1028  C1031   1.457   .     S
C1028  C621    1.340   1_565 S
C1028  N662    1.431   1_565 S
C1029  C1030   1.437   .     S
C1030  O1077   1.274   .     A
C1030  O1083   1.273   .     A
C1031  O1078   1.278   .     A
C1031  O1084   1.271   .     A
C1032  C1037   1.387   .     A
C1032  H1068   1.083   .     S
C1032  C430    1.391   1_556 S
C1033  O1072   1.266   .     A
C1033  O1074   1.277   .     A
C1033  C1036   1.452   .     S
C1034  O1075   1.286   .     A
C1034  O1073   1.284   .     A
C1035  H1064   1.083   .     S
C1037  H1066   1.083   .     S
C1038  H1052   1.111   .     S
C1038  H1053   1.110   .     S
C1038  N1070   1.446   .     S
C1039  O1076   1.413   .     S
C1039  C1040   1.528   .     S
C1039  H1056   1.114   .     S
C1039  H1055   1.115   .     S
C1041  H1061   1.111   .     S
C1041  C632    1.525   1_565 S
C1041  H651    1.110   1_565 S
C1041  H654    1.111   1_565 S
C1042  H1067   1.076   .     S
C1043  C1044   1.420   .     A
C1043  C430    1.418   1_556 S
C1043  C433    1.425   1_556 S
C1044  C1048   1.406   .     A
C1046  C1047   1.402   .     A
C1046  C433    1.428   1_556 S
C1046  C423    1.404   1_556 S
C1047  C1048   1.391   .     A
C1047  O1076   1.386   .     S
C1048  H1069   1.081   .     S
H1050  C1162   1.088   1_455 S
H1051  N1070   1.031   .     S
H1054  C630    1.111   1_565 S
H1057  C632    1.112   1_565 S
H1058  C632    1.112   1_565 S
H1060  C1095   1.086   .     S
H1063  C621    1.086   1_565 S
O1071  Zn1085  1.960   .     S
O1071  Zn1087  1.939   .     S
O1071  Zn1088  1.939   .     S
O1071  Zn1086  1.932   .     S
O1072  Zn1086  1.935   .     S
O1073  Zn1088  1.940   .     S
O1074  Zn1087  1.932   .     S
O1075  Zn1085  1.930   .     S
O1077  Zn1085  1.926   .     S
O1078  Zn1088  1.933   .     S
O1079  Zn1086  1.930   .     S
O1080  Zn1087  1.935   .     S
O1081  Zn1088  1.926   .     S
O1082  Zn1085  1.924   .     S
O1083  Zn1086  1.940   .     S
O1084  Zn1087  1.933   .     S
C1089  O1147   1.269   .     A
C1089  C1095   1.437   .     S
C1089  O1149   1.269   .     A
C1090  C1104   1.391   .     A
C1090  C1113   1.412   .     A
C1090  H1133   1.077   .     S
C1091  H1117   1.084   .     S
C1091  C1103   1.387   .     A
C1091  C1104   1.395   .     A
C1092  O1148   1.283   .     A
C1092  O1150   1.280   .     A
C1092  C1094   1.454   .     S
C1093  C1102   1.474   .     S
C1093  C1112   1.416   .     A
C1093  C1105   1.401   .     A
C1094  C1163   1.334   .     S
C1094  H1186   1.088   .     S
C1096  C1099   1.457   .     S
C1096  C689    1.340   1_565 S
C1096  N730    1.431   1_565 S
C1097  C1098   1.437   .     S
C1098  O1145   1.274   .     A
C1098  O1151   1.273   .     A
C1099  O1146   1.278   .     A
C1099  O1152   1.271   .     A
C1100  C1105   1.387   .     A
C1100  H1136   1.083   .     S
C1100  C498    1.391   1_556 S
C1101  O1140   1.266   .     A
C1101  O1142   1.277   .     A
C1101  C1104   1.452   .     S
C1102  O1143   1.286   .     A
C1102  O1141   1.284   .     A
C1103  H1132   1.083   .     S
C1105  H1134   1.083   .     S
C1106  H1120   1.111   .     S
C1106  H1121   1.110   .     S
C1106  N1138   1.446   .     S
C1107  O1144   1.413   .     S
C1107  C1108   1.528   .     S
C1107  H1124   1.114   .     S
C1107  H1123   1.115   .     S
C1109  H1129   1.111   .     S
C1109  C700    1.525   1_565 S
C1109  H719    1.110   1_565 S
C1109  H722    1.111   1_565 S
C1110  H1135   1.076   .     S
C1111  C1112   1.420   .     A
C1111  C498    1.418   1_556 S
C1111  C501    1.425   1_556 S
C1112  C1116   1.406   .     A
C1114  C1115   1.402   .     A
C1114  C501    1.428   1_556 S
C1114  C491    1.404   1_556 S
C1115  C1116   1.391   .     A
C1115  O1144   1.386   .     S
C1116  H1137   1.081   .     S
H1119  N1138   1.031   .     S
H1122  C698    1.111   1_565 S
H1125  C700    1.112   1_565 S
H1126  C700    1.112   1_565 S
H1128  C1163   1.086   .     S
H1131  C689    1.086   1_565 S
O1139  Zn1153  1.960   .     S
O1139  Zn1155  1.939   .     S
O1139  Zn1156  1.939   .     S
O1139  Zn1154  1.932   .     S
O1140  Zn1154  1.935   .     S
O1141  Zn1156  1.940   .     S
O1142  Zn1155  1.932   .     S
O1143  Zn1153  1.930   .     S
O1145  Zn1153  1.926   .     S
O1146  Zn1156  1.933   .     S
O1147  Zn1154  1.930   .     S
O1148  Zn1155  1.935   .     S
O1149  Zn1156  1.926   .     S
O1150  Zn1153  1.924   .     S
O1151  Zn1154  1.940   .     S
O1152  Zn1155  1.933   .     S
C1157  O1215   1.269   .     A
C1157  C1163   1.437   .     S
C1157  O1217   1.269   .     A
C1158  C1172   1.391   .     A
C1158  C1181   1.412   .     A
C1158  H1201   1.077   .     S
C1159  H1185   1.084   .     S
C1159  C1171   1.387   .     A
C1159  C1172   1.395   .     A
C1160  O1216   1.283   .     A
C1160  O1218   1.280   .     A
C1160  C1162   1.454   .     S
C1161  C1170   1.474   .     S
C1161  C1180   1.416   .     A
C1161  C1173   1.401   .     A
C1162  C1027   1.334   1_655 S
C1162  H1050   1.088   1_655 S
C1164  C1167   1.457   .     S
C1164  C757    1.340   1_565 S
C1164  N798    1.431   1_565 S
C1165  C1166   1.437   .     S
C1166  O1213   1.274   .     A
C1166  O1219   1.273   .     A
C1167  O1214   1.278   .     A
C1167  O1220   1.271   .     A
C1168  C1173   1.387   .     A
C1168  H1204   1.083   .     S
C1168  C566    1.391   1_556 S
C1169  O1208   1.266   .     A
C1169  O1210   1.277   .     A
C1169  C1172   1.452   .     S
C1170  O1211   1.286   .     A
C1170  O1209   1.284   .     A
C1171  H1200   1.083   .     S
C1173  H1202   1.083   .     S
C1174  H1188   1.111   .     S
C1174  H1189   1.110   .     S
C1174  N1206   1.446   .     S
C1175  O1212   1.413   .     S
C1175  C1176   1.528   .     S
C1175  H1192   1.114   .     S
C1175  H1191   1.115   .     S
C1177  H1197   1.111   .     S
C1177  C768    1.525   1_565 S
C1177  H787    1.110   1_565 S
C1177  H790    1.111   1_565 S
C1178  H1203   1.076   .     S
C1179  C1180   1.420   .     A
C1179  C566    1.418   1_556 S
C1179  C569    1.425   1_556 S
C1180  C1184   1.406   .     A
C1182  C1183   1.402   .     A
C1182  C569    1.428   1_556 S
C1182  C559    1.404   1_556 S
C1183  C1184   1.391   .     A
C1183  O1212   1.386   .     S
C1184  H1205   1.081   .     S
H1187  N1206   1.031   .     S
H1190  C766    1.111   1_565 S
H1193  C768    1.112   1_565 S
H1194  C768    1.112   1_565 S
H1196  C1027   1.086   1_655 S
H1199  C757    1.086   1_565 S
O1207  Zn1221  1.960   .     S
O1207  Zn1223  1.939   .     S
O1207  Zn1224  1.939   .     S
O1207  Zn1222  1.932   .     S
O1208  Zn1222  1.935   .     S
O1209  Zn1224  1.940   .     S
O1210  Zn1223  1.932   .     S
O1211  Zn1221  1.930   .     S
O1213  Zn1221  1.926   .     S
O1214  Zn1224  1.933   .     S
O1215  Zn1222  1.930   .     S
O1216  Zn1223  1.935   .     S
O1217  Zn1224  1.926   .     S
O1218  Zn1221  1.924   .     S
O1219  Zn1222  1.940   .     S
O1220  Zn1223  1.933   .     S
