data_str_m1_o1_o17_pcu_sym.94
_audit_creation_date              2020-01-03
_audit_creation_method            'Materials Studio'
_symmetry_space_group_name_H-M    'P1'
_symmetry_Int_Tables_number       1
_symmetry_cell_setting            triclinic
loop_
_symmetry_equiv_pos_as_xyz
  x,y,z
_cell_length_a                    36.6487
_cell_length_b                    36.6486
_cell_length_c                    34.4569
_cell_angle_alpha                 90.0026
_cell_angle_beta                  89.9995
_cell_angle_gamma                 90.0404
loop_
_atom_site_label
_atom_site_type_symbol
_atom_site_fract_x
_atom_site_fract_y
_atom_site_fract_z
_atom_site_U_iso_or_equiv
_atom_site_adp_type
_atom_site_occupancy
C1     C     0.03209   0.25807   0.41862   0.00000  Uiso   1.00
C2     C     0.21762   0.49310   0.08138   0.00000  Uiso   1.00
C3     C     0.24182   0.46739   0.54076   0.00000  Uiso   1.00
C4     C     0.03237   0.25937   0.45923   0.00000  Uiso   1.00
C5     C     0.46697   0.24435   0.54078   0.00000  Uiso   1.00
C6     C     0.24142   0.46747   0.45923   0.00000  Uiso   1.00
C7     C     0.25778   0.03260   0.54076   0.00000  Uiso   1.00
C8     C     0.21715   0.49277   0.95924   0.00000  Uiso   1.00
C9     C     0.28335   0.00366   0.04077   0.00000  Uiso   1.00
C10    C     0.00582   0.28307   0.95923   0.00000  Uiso   1.00
C11    C     0.49454   0.21691   0.04076   0.00000  Uiso   1.00
C12    C     0.28314   0.00500   0.95926   0.00000  Uiso   1.00
C13    C     0.49329   0.21767   0.91863   0.00000  Uiso   1.00
C14    C     0.21727   0.49189   0.04077   0.00000  Uiso   1.00
C15    C     0.49283   0.21721   0.95925   0.00000  Uiso   1.00
C16    C     0.00754   0.28276   0.04075   0.00000  Uiso   1.00
C17    C     0.09812   0.34813   0.25001   0.00000  Uiso   1.00
C18    C     0.40186   0.15188   0.75001   0.00000  Uiso   1.00
C19    C     0.15187   0.09814   0.24999   0.00000  Uiso   1.00
C20    C     0.34813   0.40187   0.75000   0.00000  Uiso   1.00
C21    C     0.40189   0.15185   0.25004   0.00000  Uiso   1.00
C22    C     0.09812   0.34814   0.74998   0.00000  Uiso   1.00
C23    C     0.34813   0.40186   0.24999   0.00000  Uiso   1.00
C24    C     0.00699   0.28232   0.08137   0.00000  Uiso   1.00
C25    C     0.15187   0.09813   0.75000   0.00000  Uiso   1.00
C26    C     0.09813   0.15187   0.75000   0.00000  Uiso   1.00
C27    C     0.40186   0.34813   0.24999   0.00000  Uiso   1.00
C28    C     0.15186   0.40188   0.74998   0.00000  Uiso   1.00
C29    C     0.34815   0.09811   0.25004   0.00000  Uiso   1.00
C30    C     0.40187   0.34813   0.75000   0.00000  Uiso   1.00
C31    C     0.09814   0.15187   0.24999   0.00000  Uiso   1.00
C32    C     0.34812   0.09813   0.75001   0.00000  Uiso   1.00
C33    C     0.15187   0.40188   0.25001   0.00000  Uiso   1.00
C34    C     0.49971   0.25164   0.47966   0.00000  Uiso   1.00
C35    C     0.21750   0.49403   0.91864   0.00000  Uiso   1.00
C36    C     0.49962   0.25211   0.52035   0.00000  Uiso   1.00
C37    C     0.24954   0.00004   0.47965   0.00000  Uiso   1.00
C38    C     0.24965   0.00003   0.52034   0.00000  Uiso   1.00
C39    C     0.25021   0.49845   0.97967   0.00000  Uiso   1.00
C40    C     0.25029   0.49794   0.02035   0.00000  Uiso   1.00
C41    C     0.49977   0.25006   0.97966   0.00000  Uiso   1.00
C42    C     0.00061   0.24992   0.02034   0.00000  Uiso   1.00
C43    C     0.39922   0.18754   0.44866   0.00000  Uiso   1.00
C44    C     0.09775   0.31742   0.55269   0.00000  Uiso   1.00
C45    C     0.31068   0.10248   0.44520   0.00000  Uiso   1.00
C46    C     0.28267   0.00432   0.08137   0.00000  Uiso   1.00
C47    C     0.18827   0.39776   0.55475   0.00000  Uiso   1.00
C48    C     0.10170   0.31332   0.44510   0.00000  Uiso   1.00
C49    C     0.38130   0.26221   0.55197   0.00000  Uiso   1.00
C50    C     0.18442   0.40163   0.44732   0.00000  Uiso   1.00
C51    C     0.31453   0.09863   0.55263   0.00000  Uiso   1.00
C52    C     0.14477   0.44334   0.94476   0.00000  Uiso   1.00
C53    C     0.36771   0.48036   0.05189   0.00000  Uiso   1.00
C54    C     0.48461   0.36808   0.94844   0.00000  Uiso   1.00
C55    C     0.01604   0.13203   0.05162   0.00000  Uiso   1.00
C56    C     0.35447   0.05616   0.94864   0.00000  Uiso   1.00
C57    C     0.00586   0.28248   0.91862   0.00000  Uiso   1.00
C58    C     0.14833   0.43875   0.05255   0.00000  Uiso   1.00
C59    C     0.44033   0.14695   0.94856   0.00000  Uiso   1.00
C60    C     0.06029   0.35285   0.05142   0.00000  Uiso   1.00
C61    C     0.49438   0.21752   0.08137   0.00000  Uiso   1.00
C62    C     0.49998   0.25036   0.39841   0.00000  Uiso   1.00
C63    C     0.49992   0.25079   0.60160   0.00000  Uiso   1.00
C64    C     0.24975   0.00001   0.39840   0.00000  Uiso   1.00
C65    C     0.46768   0.24374   0.58138   0.00000  Uiso   1.00
C66    C     0.24987   0.49998   0.60160   0.00000  Uiso   1.00
C67    C     0.25002   0.49972   0.89842   0.00000  Uiso   1.00
C68    C     0.25007   0.49921   0.10160   0.00000  Uiso   1.00
C69    C     0.49971   0.25004   0.89840   0.00000  Uiso   1.00
C70    C     0.00045   0.24996   0.10160   0.00000  Uiso   1.00
C71    C     0.43474   0.23496   0.47958   0.00000  Uiso   1.00
C72    C     0.06455   0.26900   0.52047   0.00000  Uiso   1.00
C73    C     0.26569   0.06515   0.47952   0.00000  Uiso   1.00
C74    C     0.23340   0.43495   0.52047   0.00000  Uiso   1.00
C75    C     0.06472   0.26813   0.47951   0.00000  Uiso   1.00
C76    C     0.24242   0.46782   0.41861   0.00000  Uiso   1.00
C77    C     0.43436   0.23663   0.52050   0.00000  Uiso   1.00
C78    C     0.23269   0.43509   0.47952   0.00000  Uiso   1.00
C79    C     0.26637   0.06501   0.52047   0.00000  Uiso   1.00
C80    C     0.18431   0.48605   0.97952   0.00000  Uiso   1.00
C81    C     0.31638   0.00931   0.02049   0.00000  Uiso   1.00
C82    C     0.01241   0.31593   0.97952   0.00000  Uiso   1.00
C83    C     0.48805   0.18403   0.02047   0.00000  Uiso   1.00
C84    C     0.31610   0.01103   0.97957   0.00000  Uiso   1.00
C85    C     0.18443   0.48511   0.02047   0.00000  Uiso   1.00
C86    C     0.48619   0.18438   0.97956   0.00000  Uiso   1.00
C87    C     0.25699   0.03221   0.58137   0.00000  Uiso   1.00
C88    C     0.01429   0.31558   0.02044   0.00000  Uiso   1.00
C89    C     0.24996  -0.00000   0.35596   0.00000  Uiso   1.00
C90    C     0.24996  -0.00000   0.64404   0.00000  Uiso   1.00
C91    C     0.00000   0.25003   0.35596   0.00000  Uiso   1.00
C92    C    -0.00000   0.25007   0.64404   0.00000  Uiso   1.00
C93    C     0.49998   0.25000   0.85596   0.00000  Uiso   1.00
C94    C     0.00005   0.25000   0.14404   0.00000  Uiso   1.00
C95    C     0.25000   0.49999   0.85597   0.00000  Uiso   1.00
C96    C     0.25000   0.49993   0.14404   0.00000  Uiso   1.00
C97    C     0.17994   0.07006   0.25000   0.00000  Uiso   1.00
C98    C     0.46777   0.24319   0.41865   0.00000  Uiso   1.00
C99    C     0.32006   0.42994   0.75000   0.00000  Uiso   1.00
C100   C     0.42995   0.17994   0.25001   0.00000  Uiso   1.00
C101   C     0.07006   0.32006   0.74999   0.00000  Uiso   1.00
C102   C     0.32006   0.42994   0.25000   0.00000  Uiso   1.00
C103   C     0.17994   0.07006   0.75000   0.00000  Uiso   1.00
C104   C     0.07006   0.32006   0.25000   0.00000  Uiso   1.00
C105   C     0.42994   0.17994   0.75000   0.00000  Uiso   1.00
C106   C     0.17994   0.42994   0.75000   0.00000  Uiso   1.00
C107   C     0.32006   0.07005   0.25001   0.00000  Uiso   1.00
C108   C     0.42994   0.32006   0.75000   0.00000  Uiso   1.00
C109   C     0.03195   0.25885   0.58139   0.00000  Uiso   1.00
C110   C     0.07006   0.17994   0.25000   0.00000  Uiso   1.00
C111   C     0.32006   0.07006   0.75000   0.00000  Uiso   1.00
C112   C     0.17994   0.42994   0.25000   0.00000  Uiso   1.00
C113   C     0.07006   0.17994   0.75000   0.00000  Uiso   1.00
C114   C     0.42994   0.32006   0.25000   0.00000  Uiso   1.00
C115   C     0.12241   0.40433   0.22420   0.00000  Uiso   1.00
C116   C     0.37771   0.09555   0.77564   0.00000  Uiso   1.00
C117   C     0.09521   0.12194   0.22485   0.00000  Uiso   1.00
C118   C     0.40475   0.37802   0.77520   0.00000  Uiso   1.00
C119   C     0.37780   0.09546   0.22451   0.00000  Uiso   1.00
C120   C     0.25678   0.03226   0.41863   0.00000  Uiso   1.00
C121   C     0.12233   0.40441   0.77569   0.00000  Uiso   1.00
C122   C     0.40478   0.37805   0.22484   0.00000  Uiso   1.00
C123   C     0.09517   0.12190   0.77509   0.00000  Uiso   1.00
C124   C     0.12190   0.09517   0.77509   0.00000  Uiso   1.00
C125   C     0.37805   0.40478   0.22484   0.00000  Uiso   1.00
C126   C     0.09559   0.37767   0.77569   0.00000  Uiso   1.00
C127   C     0.40454   0.12220   0.22451   0.00000  Uiso   1.00
C128   C     0.37802   0.40476   0.77520   0.00000  Uiso   1.00
C129   C     0.12194   0.09521   0.22485   0.00000  Uiso   1.00
C130   C     0.40445   0.12229   0.77564   0.00000  Uiso   1.00
C131   C     0.24267   0.46776   0.58138   0.00000  Uiso   1.00
C132   C     0.09567   0.37759   0.22420   0.00000  Uiso   1.00
C133   C     0.37227   0.15447   0.72439   0.00000  Uiso   1.00
C134   C     0.12758   0.34568   0.27582   0.00000  Uiso   1.00
C135   C     0.34524   0.37197   0.72481   0.00000  Uiso   1.00
C136   C     0.15480   0.12807   0.27513   0.00000  Uiso   1.00
C137   C     0.12763   0.34562   0.72426   0.00000  Uiso   1.00
C138   C     0.37225   0.15449   0.27559   0.00000  Uiso   1.00
C139   C     0.15483   0.12810   0.72492   0.00000  Uiso   1.00
C140   C     0.34521   0.37194   0.27514   0.00000  Uiso   1.00
C141   C     0.37194   0.34521   0.27514   0.00000  Uiso   1.00
C142   C     0.28261   0.00492   0.91865   0.00000  Uiso   1.00
C143   C     0.12810   0.15483   0.72492   0.00000  Uiso   1.00
C144   C     0.34551   0.12775   0.27559   0.00000  Uiso   1.00
C145   C     0.15438   0.37236   0.72426   0.00000  Uiso   1.00
C146   C     0.12807   0.15480   0.27513   0.00000  Uiso   1.00
C147   C     0.37198   0.34524   0.72481   0.00000  Uiso   1.00
C148   C     0.15432   0.37242   0.27582   0.00000  Uiso   1.00
C149   C     0.34553   0.12772   0.72439   0.00000  Uiso   1.00
C150   C     0.46725   0.24306   0.45926   0.00000  Uiso   1.00
C151   C     0.03221   0.26016   0.54077   0.00000  Uiso   1.00
C152   C     0.25741   0.03267   0.45924   0.00000  Uiso   1.00
H153   H     0.12000   0.42684   0.20399   0.00000  Uiso   1.00
H154   H     0.38084   0.42766   0.20516   0.00000  Uiso   1.00
H155   H     0.26221   0.05697   0.59759   0.00000  Uiso   1.00
H156   H     0.44311   0.23750   0.40243   0.00000  Uiso   1.00
H157   H     0.05669   0.26412   0.59762   0.00000  Uiso   1.00
H158   H     0.26224   0.05695   0.40239   0.00000  Uiso   1.00
H159   H     0.23729   0.44306   0.59762   0.00000  Uiso   1.00
H160   H     0.30758   0.00903   0.90245   0.00000  Uiso   1.00
H161   H     0.19258   0.48935   0.09757   0.00000  Uiso   1.00
H162   H     0.48875   0.19277   0.90242   0.00000  Uiso   1.00
H163   H     0.01152   0.30722   0.09759   0.00000  Uiso   1.00
H164   H     0.19249   0.49020   0.90242   0.00000  Uiso   1.00
H165   H     0.07302   0.38013   0.79582   0.00000  Uiso   1.00
H166   H     0.30747   0.00944   0.09756   0.00000  Uiso   1.00
H167   H     0.01128   0.30719   0.90239   0.00000  Uiso   1.00
H168   H     0.48891   0.19281   0.09759   0.00000  Uiso   1.00
H169   H     0.42721   0.11964   0.20452   0.00000  Uiso   1.00
H170   H     0.38079   0.42762   0.79491   0.00000  Uiso   1.00
H171   H     0.11914   0.07232   0.20519   0.00000  Uiso   1.00
H172   H     0.42707   0.11978   0.79570   0.00000  Uiso   1.00
H173   H     0.07316   0.37999   0.20400   0.00000  Uiso   1.00
H174   H     0.36976   0.17708   0.70434   0.00000  Uiso   1.00
H175   H     0.12998   0.32317   0.29603   0.00000  Uiso   1.00
H176   H     0.32238   0.36920   0.70510   0.00000  Uiso   1.00
H177   H     0.38022   0.07294   0.79569   0.00000  Uiso   1.00
H178   H     0.17769   0.13087   0.29479   0.00000  Uiso   1.00
H179   H     0.13009   0.32306   0.70412   0.00000  Uiso   1.00
H180   H     0.36970   0.17715   0.29558   0.00000  Uiso   1.00
H181   H     0.17775   0.13093   0.70530   0.00000  Uiso   1.00
H182   H     0.32232   0.36915   0.29481   0.00000  Uiso   1.00
H183   H     0.36915   0.32233   0.29481   0.00000  Uiso   1.00
H184   H     0.13093   0.17775   0.70530   0.00000  Uiso   1.00
H185   H     0.32285   0.13030   0.29558   0.00000  Uiso   1.00
H186   H     0.17694   0.36991   0.70412   0.00000  Uiso   1.00
H187   H     0.13087   0.17769   0.29479   0.00000  Uiso   1.00
H188   H     0.07232   0.11914   0.20519   0.00000  Uiso   1.00
H189   H     0.36921   0.32238   0.70510   0.00000  Uiso   1.00
H190   H     0.17683   0.37002   0.29602   0.00000  Uiso   1.00
H191   H     0.32292   0.13023   0.70433   0.00000  Uiso   1.00
H192   H     0.37860   0.23650   0.46976   0.00000  Uiso   1.00
H193   H     0.39660   0.17066   0.47528   0.00000  Uiso   1.00
H194   H     0.42345   0.17836   0.43195   0.00000  Uiso   1.00
H195   H     0.37461   0.18334   0.43040   0.00000  Uiso   1.00
H196   H     0.12088   0.27005   0.53045   0.00000  Uiso   1.00
H197   H     0.09917   0.33516   0.52664   0.00000  Uiso   1.00
H198   H     0.12230   0.32242   0.57083   0.00000  Uiso   1.00
H199   H     0.42761   0.38079   0.79491   0.00000  Uiso   1.00
H200   H     0.07325   0.32483   0.56993   0.00000  Uiso   1.00
H201   H     0.26062   0.12131   0.46741   0.00000  Uiso   1.00
H202   H     0.32411   0.12470   0.46183   0.00000  Uiso   1.00
H203   H     0.31042   0.11018   0.41406   0.00000  Uiso   1.00
H204   H     0.32691   0.07703   0.44848   0.00000  Uiso   1.00
H205   H     0.23829   0.37878   0.53259   0.00000  Uiso   1.00
H206   H     0.17477   0.37563   0.53805   0.00000  Uiso   1.00
H207   H     0.17213   0.42328   0.55151   0.00000  Uiso   1.00
H208   H     0.18846   0.39000   0.58587   0.00000  Uiso   1.00
H209   H     0.12092   0.26346   0.46742   0.00000  Uiso   1.00
H210   H     0.38036   0.07279   0.20452   0.00000  Uiso   1.00
H211   H     0.12363   0.32704   0.46189   0.00000  Uiso   1.00
H212   H     0.07604   0.32928   0.44809   0.00000  Uiso   1.00
H213   H     0.10965   0.31306   0.41402   0.00000  Uiso   1.00
H214   H     0.38515   0.20944   0.53028   0.00000  Uiso   1.00
H215   H     0.37117   0.27630   0.52554   0.00000  Uiso   1.00
H216   H     0.39876   0.28129   0.56881   0.00000  Uiso   1.00
H217   H     0.35758   0.25451   0.57028   0.00000  Uiso   1.00
H218   H     0.23194   0.37877   0.46951   0.00000  Uiso   1.00
H219   H     0.16671   0.40007   0.47338   0.00000  Uiso   1.00
H220   H     0.17955   0.37708   0.42914   0.00000  Uiso   1.00
H221   H     0.11988   0.42697   0.79583   0.00000  Uiso   1.00
H222   H     0.17683   0.42611   0.43014   0.00000  Uiso   1.00
H223   H     0.26691   0.12133   0.53050   0.00000  Uiso   1.00
H224   H     0.33220   0.10030   0.52655   0.00000  Uiso   1.00
H225   H     0.32223   0.07414   0.56975   0.00000  Uiso   1.00
H226   H     0.31930   0.12315   0.57086   0.00000  Uiso   1.00
H227   H     0.12845   0.49404   0.96756   0.00000  Uiso   1.00
H228   H     0.12215   0.43074   0.96152   0.00000  Uiso   1.00
H229   H     0.16949   0.42593   0.94751   0.00000  Uiso   1.00
H230   H     0.13677   0.44432   0.91372   0.00000  Uiso   1.00
H231   H     0.36722   0.03330   0.03028   0.00000  Uiso   1.00
H232   H     0.42766   0.38084   0.20517   0.00000  Uiso   1.00
H233   H     0.37690   0.46569   0.02544   0.00000  Uiso   1.00
H234   H     0.34908   0.46243   0.06873   0.00000  Uiso   1.00
H235   H     0.39188   0.48651   0.07019   0.00000  Uiso   1.00
H236   H     0.03766   0.36612   0.96963   0.00000  Uiso   1.00
H237   H     0.47039   0.37764   0.97503   0.00000  Uiso   1.00
H238   H     0.46604   0.34996   0.93175   0.00000  Uiso   1.00
H239   H     0.49127   0.39209   0.93011   0.00000  Uiso   1.00
H240   H     0.46301   0.13373   0.03034   0.00000  Uiso   1.00
H241   H     0.03037   0.12256   0.02506   0.00000  Uiso   1.00
H242   H     0.00946   0.10797   0.06991   0.00000  Uiso   1.00
H243   H     0.07225   0.11908   0.79470   0.00000  Uiso   1.00
H244   H     0.03448   0.15022   0.06838   0.00000  Uiso   1.00
H245   H     0.37203   0.00603   0.96973   0.00000  Uiso   1.00
H246   H     0.35812   0.07286   0.97527   0.00000  Uiso   1.00
H247   H     0.33085   0.06682   0.93193   0.00000  Uiso   1.00
H248   H     0.37929   0.05884   0.93038   0.00000  Uiso   1.00
H249   H     0.12816   0.48754   0.03054   0.00000  Uiso   1.00
H250   H     0.14580   0.42121   0.02644   0.00000  Uiso   1.00
H251   H     0.12354   0.43521   0.07070   0.00000  Uiso   1.00
H252   H     0.17234   0.42977   0.06974   0.00000  Uiso   1.00
H253   H     0.49005   0.12834   0.96972   0.00000  Uiso   1.00
H254   H     0.11907   0.07225   0.79470   0.00000  Uiso   1.00
H255   H     0.42352   0.14367   0.97517   0.00000  Uiso   1.00
H256   H     0.43716   0.12217   0.93032   0.00000  Uiso   1.00
H257   H     0.43020   0.17077   0.93180   0.00000  Uiso   1.00
H258   H     0.01063   0.37163   0.03027   0.00000  Uiso   1.00
H259   H     0.07710   0.35607   0.02481   0.00000  Uiso   1.00
H260   H     0.07033   0.32898   0.06817   0.00000  Uiso   1.00
H261   H     0.06356   0.37760   0.06967   0.00000  Uiso   1.00
H262   H     0.05679   0.26348   0.40238   0.00000  Uiso   1.00
H263   H     0.44326   0.23709   0.59759   0.00000  Uiso   1.00
H264   H     0.23722   0.44306   0.40239   0.00000  Uiso   1.00
N265   N     0.40239   0.22578   0.45865   0.00000  Uiso   1.00
N266   N     0.34962   0.01406   0.04148   0.00000  Uiso   1.00
N267   N     0.01788   0.34907   0.95855   0.00000  Uiso   1.00
N268   N     0.48270   0.15088   0.04145   0.00000  Uiso   1.00
N269   N     0.34894   0.01819   0.95864   0.00000  Uiso   1.00
N270   N     0.15192   0.47668   0.04147   0.00000  Uiso   1.00
N271   N     0.47839   0.15168   0.95862   0.00000  Uiso   1.00
N272   N     0.02221   0.34825   0.04138   0.00000  Uiso   1.00
N273   N     0.09651   0.27937   0.54147   0.00000  Uiso   1.00
N274   N     0.27346   0.09778   0.45847   0.00000  Uiso   1.00
N275   N     0.22551   0.40235   0.54153   0.00000  Uiso   1.00
N276   N     0.09729   0.27609   0.45844   0.00000  Uiso   1.00
N277   N     0.40149   0.22975   0.54149   0.00000  Uiso   1.00
N278   N     0.22247   0.40309   0.45850   0.00000  Uiso   1.00
N279   N     0.27648   0.09704   0.54149   0.00000  Uiso   1.00
N280   N     0.15131   0.48014   0.95845   0.00000  Uiso   1.00
O281   O     0.25000   0.00000   0.25000   0.00000  Uiso   1.00
O282   O     0.25000   0.46963   0.66245   0.00000  Uiso   1.00
O283   O     0.46963   0.25000   0.33755   0.00000  Uiso   1.00
O284   O     0.03036   0.25000   0.66245   0.00000  Uiso   1.00
O285   O     0.00000   0.21963   0.83755   0.00000  Uiso   1.00
O286   O    -0.00000   0.28037   0.16245   0.00000  Uiso   1.00
O287   O     0.28036   0.00000   0.83755   0.00000  Uiso   1.00
O288   O     0.21963   0.00000   0.16245   0.00000  Uiso   1.00
O289   O     0.00000   0.28036   0.83755   0.00000  Uiso   1.00
O290   O    -0.00000   0.21964   0.16245   0.00000  Uiso   1.00
O291   O     0.21963   0.00000   0.83755   0.00000  Uiso   1.00
O292   O     0.25000   0.00000   0.75000   0.00000  Uiso   1.00
O293   O     0.28036   0.00000   0.16245   0.00000  Uiso   1.00
O294   O     0.20724   0.07308   0.27302   0.00000  Uiso   1.00
O295   O     0.29275   0.42692   0.72698   0.00000  Uiso   1.00
O296   O     0.42692   0.20725   0.27302   0.00000  Uiso   1.00
O297   O     0.07307   0.29275   0.72698   0.00000  Uiso   1.00
O298   O     0.29275   0.42692   0.27302   0.00000  Uiso   1.00
O299   O     0.20724   0.07308   0.72698   0.00000  Uiso   1.00
O300   O     0.07307   0.29275   0.27302   0.00000  Uiso   1.00
O301   O     0.42692   0.20725   0.72698   0.00000  Uiso   1.00
O302   O     0.20724   0.42692   0.72698   0.00000  Uiso   1.00
O303   O     0.00000   0.25000   0.25000   0.00000  Uiso   1.00
O304   O     0.29275   0.07308   0.27302   0.00000  Uiso   1.00
O305   O     0.42692   0.29276   0.72698   0.00000  Uiso   1.00
O306   O     0.07307   0.20724   0.27302   0.00000  Uiso   1.00
O307   O     0.29275   0.07308   0.72698   0.00000  Uiso   1.00
O308   O     0.20724   0.42692   0.27302   0.00000  Uiso   1.00
O309   O     0.07307   0.20724   0.72698   0.00000  Uiso   1.00
O310   O     0.42692   0.29276   0.27302   0.00000  Uiso   1.00
O311   O     0.45724   0.32308   0.77302   0.00000  Uiso   1.00
O312   O     0.04275   0.17692   0.22698   0.00000  Uiso   1.00
O313   O     0.17692   0.45724   0.77302   0.00000  Uiso   1.00
O314   O     0.00000   0.25000   0.75000   0.00000  Uiso   1.00
O315   O     0.32307   0.04276   0.22698   0.00000  Uiso   1.00
O316   O     0.04275   0.17692   0.77302   0.00000  Uiso   1.00
O317   O     0.45724   0.32308   0.22698   0.00000  Uiso   1.00
O318   O     0.32307   0.04276   0.77302   0.00000  Uiso   1.00
O319   O     0.17692   0.45724   0.22698   0.00000  Uiso   1.00
O320   O     0.45724   0.17693   0.22698   0.00000  Uiso   1.00
O321   O     0.04275   0.32307   0.77302   0.00000  Uiso   1.00
O322   O     0.17692   0.04276   0.22698   0.00000  Uiso   1.00
O323   O     0.32307   0.45724   0.77302   0.00000  Uiso   1.00
O324   O     0.04275   0.32307   0.22698   0.00000  Uiso   1.00
O325   O     0.25000   0.46963   0.33755   0.00000  Uiso   1.00
O326   O     0.45724   0.17693   0.77302   0.00000  Uiso   1.00
O327   O     0.32307   0.45724   0.22698   0.00000  Uiso   1.00
O328   O     0.17692   0.04276   0.77302   0.00000  Uiso   1.00
O329   O     0.25000   0.03037   0.66245   0.00000  Uiso   1.00
O330   O     0.03036   0.25000   0.33755   0.00000  Uiso   1.00
O331   O     0.46963   0.25000   0.66245   0.00000  Uiso   1.00
O332   O     0.25000   0.03037   0.33755   0.00000  Uiso   1.00
Zn333  Zn    0.20659   0.00000   0.21735   0.00000  Uiso   1.00
Zn334  Zn    0.04340   0.25000   0.28265   0.00000  Uiso   1.00
Zn335  Zn    0.25000   0.45659   0.71735   0.00000  Uiso   1.00
Zn336  Zn    0.25000   0.04341   0.28265   0.00000  Uiso   1.00
Zn337  Zn    0.04340   0.25000   0.71735   0.00000  Uiso   1.00
Zn338  Zn    0.45659   0.25000   0.28265   0.00000  Uiso   1.00
Zn339  Zn    0.25000   0.04341   0.71735   0.00000  Uiso   1.00
Zn340  Zn    0.25000   0.45659   0.28265   0.00000  Uiso   1.00
Zn341  Zn    0.29340   0.00000   0.78265   0.00000  Uiso   1.00
Zn342  Zn    0.00000   0.20659   0.21735   0.00000  Uiso   1.00
Zn343  Zn    0.00000   0.29340   0.78265   0.00000  Uiso   1.00
Zn344  Zn    0.29340   0.00000   0.21735   0.00000  Uiso   1.00
Zn345  Zn    0.20659   0.00000   0.78265   0.00000  Uiso   1.00
Zn346  Zn    0.00000   0.29340   0.21735   0.00000  Uiso   1.00
Zn347  Zn   -0.00000   0.20660   0.78265   0.00000  Uiso   1.00
Zn348  Zn    0.45659   0.25000   0.71735   0.00000  Uiso   1.00
C349   C     0.53209   0.25807   0.41862   0.00000  Uiso   1.00
C350   C     0.71762   0.49310   0.08138   0.00000  Uiso   1.00
C351   C     0.74182   0.46739   0.54076   0.00000  Uiso   1.00
C352   C     0.53237   0.25937   0.45923   0.00000  Uiso   1.00
C353   C     0.96697   0.24435   0.54078   0.00000  Uiso   1.00
C354   C     0.74142   0.46747   0.45923   0.00000  Uiso   1.00
C355   C     0.75778   0.03260   0.54076   0.00000  Uiso   1.00
C356   C     0.71715   0.49277   0.95924   0.00000  Uiso   1.00
C357   C     0.78335   0.00366   0.04077   0.00000  Uiso   1.00
C358   C     0.50582   0.28307   0.95923   0.00000  Uiso   1.00
C359   C     0.99454   0.21691   0.04076   0.00000  Uiso   1.00
C360   C     0.78314   0.00500   0.95926   0.00000  Uiso   1.00
C361   C     0.99329   0.21767   0.91863   0.00000  Uiso   1.00
C362   C     0.71727   0.49189   0.04077   0.00000  Uiso   1.00
C363   C     0.99283   0.21721   0.95925   0.00000  Uiso   1.00
C364   C     0.50754   0.28276   0.04075   0.00000  Uiso   1.00
C365   C     0.59812   0.34813   0.25001   0.00000  Uiso   1.00
C366   C     0.90186   0.15188   0.75001   0.00000  Uiso   1.00
C367   C     0.65187   0.09814   0.24999   0.00000  Uiso   1.00
C368   C     0.84813   0.40187   0.75000   0.00000  Uiso   1.00
C369   C     0.90189   0.15185   0.25004   0.00000  Uiso   1.00
C370   C     0.59812   0.34814   0.74998   0.00000  Uiso   1.00
C371   C     0.84813   0.40186   0.24999   0.00000  Uiso   1.00
C372   C     0.50699   0.28232   0.08137   0.00000  Uiso   1.00
C373   C     0.65187   0.09813   0.75000   0.00000  Uiso   1.00
C374   C     0.59813   0.15187   0.75000   0.00000  Uiso   1.00
C375   C     0.90186   0.34813   0.24999   0.00000  Uiso   1.00
C376   C     0.65186   0.40188   0.74998   0.00000  Uiso   1.00
C377   C     0.84815   0.09811   0.25004   0.00000  Uiso   1.00
C378   C     0.90187   0.34813   0.75000   0.00000  Uiso   1.00
C379   C     0.59814   0.15187   0.24999   0.00000  Uiso   1.00
C380   C     0.84812   0.09813   0.75001   0.00000  Uiso   1.00
C381   C     0.65187   0.40188   0.25001   0.00000  Uiso   1.00
C382   C     0.99971   0.25164   0.47966   0.00000  Uiso   1.00
C383   C     0.71750   0.49403   0.91864   0.00000  Uiso   1.00
C384   C     0.99962   0.25211   0.52035   0.00000  Uiso   1.00
C385   C     0.74954   0.00004   0.47965   0.00000  Uiso   1.00
C386   C     0.74965   0.00003   0.52034   0.00000  Uiso   1.00
C387   C     0.75021   0.49845   0.97967   0.00000  Uiso   1.00
C388   C     0.75029   0.49794   0.02035   0.00000  Uiso   1.00
C389   C     0.99977   0.25006   0.97966   0.00000  Uiso   1.00
C390   C     0.50061   0.24992   0.02034   0.00000  Uiso   1.00
C391   C     0.89922   0.18754   0.44866   0.00000  Uiso   1.00
C392   C     0.59775   0.31742   0.55269   0.00000  Uiso   1.00
C393   C     0.81068   0.10248   0.44520   0.00000  Uiso   1.00
C394   C     0.78267   0.00432   0.08137   0.00000  Uiso   1.00
C395   C     0.68827   0.39776   0.55475   0.00000  Uiso   1.00
C396   C     0.60170   0.31332   0.44510   0.00000  Uiso   1.00
C397   C     0.88130   0.26221   0.55197   0.00000  Uiso   1.00
C398   C     0.68442   0.40163   0.44732   0.00000  Uiso   1.00
C399   C     0.81453   0.09863   0.55263   0.00000  Uiso   1.00
C400   C     0.64477   0.44334   0.94476   0.00000  Uiso   1.00
C401   C     0.86771   0.48036   0.05189   0.00000  Uiso   1.00
C402   C     0.98461   0.36808   0.94844   0.00000  Uiso   1.00
C403   C     0.51604   0.13203   0.05162   0.00000  Uiso   1.00
C404   C     0.85447   0.05616   0.94864   0.00000  Uiso   1.00
C405   C     0.50586   0.28248   0.91862   0.00000  Uiso   1.00
C406   C     0.64833   0.43875   0.05255   0.00000  Uiso   1.00
C407   C     0.94033   0.14695   0.94856   0.00000  Uiso   1.00
C408   C     0.56029   0.35285   0.05142   0.00000  Uiso   1.00
C409   C     0.99438   0.21752   0.08137   0.00000  Uiso   1.00
C410   C     0.99998   0.25036   0.39841   0.00000  Uiso   1.00
C411   C     0.99992   0.25079   0.60160   0.00000  Uiso   1.00
C412   C     0.74975   0.00001   0.39840   0.00000  Uiso   1.00
C413   C     0.96768   0.24374   0.58138   0.00000  Uiso   1.00
C414   C     0.74987   0.49998   0.60160   0.00000  Uiso   1.00
C415   C     0.75002   0.49972   0.89842   0.00000  Uiso   1.00
C416   C     0.75007   0.49921   0.10160   0.00000  Uiso   1.00
C417   C     0.99971   0.25004   0.89840   0.00000  Uiso   1.00
C418   C     0.50045   0.24996   0.10160   0.00000  Uiso   1.00
C419   C     0.93474   0.23496   0.47958   0.00000  Uiso   1.00
C420   C     0.56455   0.26900   0.52047   0.00000  Uiso   1.00
C421   C     0.76569   0.06515   0.47952   0.00000  Uiso   1.00
C422   C     0.73340   0.43495   0.52047   0.00000  Uiso   1.00
C423   C     0.56472   0.26813   0.47951   0.00000  Uiso   1.00
C424   C     0.74242   0.46782   0.41861   0.00000  Uiso   1.00
C425   C     0.93436   0.23663   0.52050   0.00000  Uiso   1.00
C426   C     0.73269   0.43509   0.47952   0.00000  Uiso   1.00
C427   C     0.76637   0.06501   0.52047   0.00000  Uiso   1.00
C428   C     0.68431   0.48605   0.97952   0.00000  Uiso   1.00
C429   C     0.81638   0.00931   0.02049   0.00000  Uiso   1.00
C430   C     0.51241   0.31593   0.97952   0.00000  Uiso   1.00
C431   C     0.98805   0.18403   0.02047   0.00000  Uiso   1.00
C432   C     0.81610   0.01103   0.97957   0.00000  Uiso   1.00
C433   C     0.68443   0.48511   0.02047   0.00000  Uiso   1.00
C434   C     0.98619   0.18438   0.97956   0.00000  Uiso   1.00
C435   C     0.75699   0.03221   0.58137   0.00000  Uiso   1.00
C436   C     0.51429   0.31558   0.02044   0.00000  Uiso   1.00
C437   C     0.74996  -0.00000   0.35596   0.00000  Uiso   1.00
C438   C     0.74996  -0.00000   0.64404   0.00000  Uiso   1.00
C439   C     0.50000   0.25003   0.35596   0.00000  Uiso   1.00
C440   C     0.50000   0.25007   0.64404   0.00000  Uiso   1.00
C441   C     0.99998   0.25000   0.85596   0.00000  Uiso   1.00
C442   C     0.50005   0.25000   0.14404   0.00000  Uiso   1.00
C443   C     0.75000   0.49999   0.85597   0.00000  Uiso   1.00
C444   C     0.75000   0.49993   0.14404   0.00000  Uiso   1.00
C445   C     0.67994   0.07006   0.25000   0.00000  Uiso   1.00
C446   C     0.96777   0.24319   0.41865   0.00000  Uiso   1.00
C447   C     0.82006   0.42994   0.75000   0.00000  Uiso   1.00
C448   C     0.92995   0.17994   0.25001   0.00000  Uiso   1.00
C449   C     0.57006   0.32006   0.74999   0.00000  Uiso   1.00
C450   C     0.82006   0.42994   0.25000   0.00000  Uiso   1.00
C451   C     0.67994   0.07006   0.75000   0.00000  Uiso   1.00
C452   C     0.57006   0.32006   0.25000   0.00000  Uiso   1.00
C453   C     0.92994   0.17994   0.75000   0.00000  Uiso   1.00
C454   C     0.67994   0.42994   0.75000   0.00000  Uiso   1.00
C455   C     0.82006   0.07005   0.25001   0.00000  Uiso   1.00
C456   C     0.92994   0.32006   0.75000   0.00000  Uiso   1.00
C457   C     0.53195   0.25885   0.58139   0.00000  Uiso   1.00
C458   C     0.57006   0.17994   0.25000   0.00000  Uiso   1.00
C459   C     0.82006   0.07006   0.75000   0.00000  Uiso   1.00
C460   C     0.67994   0.42994   0.25000   0.00000  Uiso   1.00
C461   C     0.57006   0.17994   0.75000   0.00000  Uiso   1.00
C462   C     0.92994   0.32006   0.25000   0.00000  Uiso   1.00
C463   C     0.62241   0.40433   0.22420   0.00000  Uiso   1.00
C464   C     0.87771   0.09555   0.77564   0.00000  Uiso   1.00
C465   C     0.59521   0.12194   0.22485   0.00000  Uiso   1.00
C466   C     0.90475   0.37802   0.77520   0.00000  Uiso   1.00
C467   C     0.87780   0.09546   0.22451   0.00000  Uiso   1.00
C468   C     0.75678   0.03226   0.41863   0.00000  Uiso   1.00
C469   C     0.62233   0.40441   0.77569   0.00000  Uiso   1.00
C470   C     0.90478   0.37805   0.22484   0.00000  Uiso   1.00
C471   C     0.59517   0.12190   0.77509   0.00000  Uiso   1.00
C472   C     0.62190   0.09517   0.77509   0.00000  Uiso   1.00
C473   C     0.87805   0.40478   0.22484   0.00000  Uiso   1.00
C474   C     0.59559   0.37767   0.77569   0.00000  Uiso   1.00
C475   C     0.90454   0.12220   0.22451   0.00000  Uiso   1.00
C476   C     0.87802   0.40476   0.77520   0.00000  Uiso   1.00
C477   C     0.62194   0.09521   0.22485   0.00000  Uiso   1.00
C478   C     0.90445   0.12229   0.77564   0.00000  Uiso   1.00
C479   C     0.74267   0.46776   0.58138   0.00000  Uiso   1.00
C480   C     0.59567   0.37759   0.22420   0.00000  Uiso   1.00
C481   C     0.87227   0.15447   0.72439   0.00000  Uiso   1.00
C482   C     0.62758   0.34568   0.27582   0.00000  Uiso   1.00
C483   C     0.84524   0.37197   0.72481   0.00000  Uiso   1.00
C484   C     0.65480   0.12807   0.27513   0.00000  Uiso   1.00
C485   C     0.62763   0.34562   0.72426   0.00000  Uiso   1.00
C486   C     0.87225   0.15449   0.27559   0.00000  Uiso   1.00
C487   C     0.65483   0.12810   0.72492   0.00000  Uiso   1.00
C488   C     0.84521   0.37194   0.27514   0.00000  Uiso   1.00
C489   C     0.87194   0.34521   0.27514   0.00000  Uiso   1.00
C490   C     0.78261   0.00492   0.91865   0.00000  Uiso   1.00
C491   C     0.62810   0.15483   0.72492   0.00000  Uiso   1.00
C492   C     0.84551   0.12775   0.27559   0.00000  Uiso   1.00
C493   C     0.65438   0.37236   0.72426   0.00000  Uiso   1.00
C494   C     0.62807   0.15480   0.27513   0.00000  Uiso   1.00
C495   C     0.87198   0.34524   0.72481   0.00000  Uiso   1.00
C496   C     0.65432   0.37242   0.27582   0.00000  Uiso   1.00
C497   C     0.84553   0.12772   0.72439   0.00000  Uiso   1.00
C498   C     0.96725   0.24306   0.45926   0.00000  Uiso   1.00
C499   C     0.53221   0.26016   0.54077   0.00000  Uiso   1.00
C500   C     0.75741   0.03267   0.45924   0.00000  Uiso   1.00
H501   H     0.62000   0.42684   0.20399   0.00000  Uiso   1.00
H502   H     0.88084   0.42766   0.20516   0.00000  Uiso   1.00
H503   H     0.76221   0.05697   0.59759   0.00000  Uiso   1.00
H504   H     0.94311   0.23750   0.40243   0.00000  Uiso   1.00
H505   H     0.55669   0.26412   0.59762   0.00000  Uiso   1.00
H506   H     0.76224   0.05695   0.40239   0.00000  Uiso   1.00
H507   H     0.73729   0.44306   0.59762   0.00000  Uiso   1.00
H508   H     0.80758   0.00903   0.90245   0.00000  Uiso   1.00
H509   H     0.69258   0.48935   0.09757   0.00000  Uiso   1.00
H510   H     0.98875   0.19277   0.90242   0.00000  Uiso   1.00
H511   H     0.51152   0.30722   0.09759   0.00000  Uiso   1.00
H512   H     0.69249   0.49020   0.90242   0.00000  Uiso   1.00
H513   H     0.57302   0.38013   0.79582   0.00000  Uiso   1.00
H514   H     0.80747   0.00944   0.09756   0.00000  Uiso   1.00
H515   H     0.51128   0.30719   0.90239   0.00000  Uiso   1.00
H516   H     0.98891   0.19281   0.09759   0.00000  Uiso   1.00
H517   H     0.92721   0.11964   0.20452   0.00000  Uiso   1.00
H518   H     0.88079   0.42762   0.79491   0.00000  Uiso   1.00
H519   H     0.61914   0.07232   0.20519   0.00000  Uiso   1.00
H520   H     0.92707   0.11978   0.79570   0.00000  Uiso   1.00
H521   H     0.57316   0.37999   0.20400   0.00000  Uiso   1.00
H522   H     0.86976   0.17708   0.70434   0.00000  Uiso   1.00
H523   H     0.62998   0.32317   0.29603   0.00000  Uiso   1.00
H524   H     0.82238   0.36920   0.70510   0.00000  Uiso   1.00
H525   H     0.88022   0.07294   0.79569   0.00000  Uiso   1.00
H526   H     0.67769   0.13087   0.29479   0.00000  Uiso   1.00
H527   H     0.63009   0.32306   0.70412   0.00000  Uiso   1.00
H528   H     0.86970   0.17715   0.29558   0.00000  Uiso   1.00
H529   H     0.67775   0.13093   0.70530   0.00000  Uiso   1.00
H530   H     0.82232   0.36915   0.29481   0.00000  Uiso   1.00
H531   H     0.86915   0.32233   0.29481   0.00000  Uiso   1.00
H532   H     0.63093   0.17775   0.70530   0.00000  Uiso   1.00
H533   H     0.82285   0.13030   0.29558   0.00000  Uiso   1.00
H534   H     0.67694   0.36991   0.70412   0.00000  Uiso   1.00
H535   H     0.63087   0.17769   0.29479   0.00000  Uiso   1.00
H536   H     0.57232   0.11914   0.20519   0.00000  Uiso   1.00
H537   H     0.86921   0.32238   0.70510   0.00000  Uiso   1.00
H538   H     0.67683   0.37002   0.29602   0.00000  Uiso   1.00
H539   H     0.82292   0.13023   0.70433   0.00000  Uiso   1.00
H540   H     0.87860   0.23650   0.46976   0.00000  Uiso   1.00
H541   H     0.89660   0.17066   0.47528   0.00000  Uiso   1.00
H542   H     0.92345   0.17836   0.43195   0.00000  Uiso   1.00
H543   H     0.87461   0.18334   0.43040   0.00000  Uiso   1.00
H544   H     0.62088   0.27005   0.53045   0.00000  Uiso   1.00
H545   H     0.59917   0.33516   0.52664   0.00000  Uiso   1.00
H546   H     0.62230   0.32242   0.57083   0.00000  Uiso   1.00
H547   H     0.92761   0.38079   0.79491   0.00000  Uiso   1.00
H548   H     0.57325   0.32483   0.56993   0.00000  Uiso   1.00
H549   H     0.76062   0.12131   0.46741   0.00000  Uiso   1.00
H550   H     0.82411   0.12470   0.46183   0.00000  Uiso   1.00
H551   H     0.81042   0.11018   0.41406   0.00000  Uiso   1.00
H552   H     0.82691   0.07703   0.44848   0.00000  Uiso   1.00
H553   H     0.73829   0.37878   0.53259   0.00000  Uiso   1.00
H554   H     0.67477   0.37563   0.53805   0.00000  Uiso   1.00
H555   H     0.67213   0.42328   0.55151   0.00000  Uiso   1.00
H556   H     0.68846   0.39000   0.58587   0.00000  Uiso   1.00
H557   H     0.62092   0.26346   0.46742   0.00000  Uiso   1.00
H558   H     0.88036   0.07279   0.20452   0.00000  Uiso   1.00
H559   H     0.62363   0.32704   0.46189   0.00000  Uiso   1.00
H560   H     0.57604   0.32928   0.44809   0.00000  Uiso   1.00
H561   H     0.60965   0.31306   0.41402   0.00000  Uiso   1.00
H562   H     0.88515   0.20944   0.53028   0.00000  Uiso   1.00
H563   H     0.87117   0.27630   0.52554   0.00000  Uiso   1.00
H564   H     0.89876   0.28129   0.56881   0.00000  Uiso   1.00
H565   H     0.85758   0.25451   0.57028   0.00000  Uiso   1.00
H566   H     0.73194   0.37877   0.46951   0.00000  Uiso   1.00
H567   H     0.66671   0.40007   0.47338   0.00000  Uiso   1.00
H568   H     0.67955   0.37708   0.42914   0.00000  Uiso   1.00
H569   H     0.61988   0.42697   0.79583   0.00000  Uiso   1.00
H570   H     0.67683   0.42611   0.43014   0.00000  Uiso   1.00
H571   H     0.76691   0.12133   0.53050   0.00000  Uiso   1.00
H572   H     0.83220   0.10030   0.52655   0.00000  Uiso   1.00
H573   H     0.82223   0.07414   0.56975   0.00000  Uiso   1.00
H574   H     0.81930   0.12315   0.57086   0.00000  Uiso   1.00
H575   H     0.62845   0.49404   0.96756   0.00000  Uiso   1.00
H576   H     0.62215   0.43074   0.96152   0.00000  Uiso   1.00
H577   H     0.66949   0.42593   0.94751   0.00000  Uiso   1.00
H578   H     0.63677   0.44432   0.91372   0.00000  Uiso   1.00
H579   H     0.86722   0.03330   0.03028   0.00000  Uiso   1.00
H580   H     0.92766   0.38084   0.20517   0.00000  Uiso   1.00
H581   H     0.87690   0.46569   0.02544   0.00000  Uiso   1.00
H582   H     0.84908   0.46243   0.06873   0.00000  Uiso   1.00
H583   H     0.89188   0.48651   0.07019   0.00000  Uiso   1.00
H584   H     0.53766   0.36612   0.96963   0.00000  Uiso   1.00
H585   H     0.97039   0.37764   0.97503   0.00000  Uiso   1.00
H586   H     0.96604   0.34996   0.93175   0.00000  Uiso   1.00
H587   H     0.99127   0.39209   0.93011   0.00000  Uiso   1.00
H588   H     0.96301   0.13373   0.03034   0.00000  Uiso   1.00
H589   H     0.53037   0.12256   0.02506   0.00000  Uiso   1.00
H590   H     0.50946   0.10797   0.06991   0.00000  Uiso   1.00
H591   H     0.57225   0.11908   0.79470   0.00000  Uiso   1.00
H592   H     0.53448   0.15022   0.06838   0.00000  Uiso   1.00
H593   H     0.87203   0.00603   0.96973   0.00000  Uiso   1.00
H594   H     0.85812   0.07286   0.97527   0.00000  Uiso   1.00
H595   H     0.83085   0.06682   0.93193   0.00000  Uiso   1.00
H596   H     0.87929   0.05884   0.93038   0.00000  Uiso   1.00
H597   H     0.62816   0.48754   0.03054   0.00000  Uiso   1.00
H598   H     0.64580   0.42121   0.02644   0.00000  Uiso   1.00
H599   H     0.62354   0.43521   0.07070   0.00000  Uiso   1.00
H600   H     0.67234   0.42977   0.06974   0.00000  Uiso   1.00
H601   H     0.99005   0.12834   0.96972   0.00000  Uiso   1.00
H602   H     0.61907   0.07225   0.79470   0.00000  Uiso   1.00
H603   H     0.92352   0.14367   0.97517   0.00000  Uiso   1.00
H604   H     0.93716   0.12217   0.93032   0.00000  Uiso   1.00
H605   H     0.93020   0.17077   0.93180   0.00000  Uiso   1.00
H606   H     0.51063   0.37163   0.03027   0.00000  Uiso   1.00
H607   H     0.57710   0.35607   0.02481   0.00000  Uiso   1.00
H608   H     0.57033   0.32898   0.06817   0.00000  Uiso   1.00
H609   H     0.56356   0.37760   0.06967   0.00000  Uiso   1.00
H610   H     0.55679   0.26348   0.40238   0.00000  Uiso   1.00
H611   H     0.94326   0.23709   0.59759   0.00000  Uiso   1.00
H612   H     0.73722   0.44306   0.40239   0.00000  Uiso   1.00
N613   N     0.90239   0.22578   0.45865   0.00000  Uiso   1.00
N614   N     0.84962   0.01406   0.04148   0.00000  Uiso   1.00
N615   N     0.51788   0.34907   0.95855   0.00000  Uiso   1.00
N616   N     0.98270   0.15088   0.04145   0.00000  Uiso   1.00
N617   N     0.84894   0.01819   0.95864   0.00000  Uiso   1.00
N618   N     0.65192   0.47668   0.04147   0.00000  Uiso   1.00
N619   N     0.97839   0.15168   0.95862   0.00000  Uiso   1.00
N620   N     0.52221   0.34825   0.04138   0.00000  Uiso   1.00
N621   N     0.59651   0.27937   0.54147   0.00000  Uiso   1.00
N622   N     0.77346   0.09778   0.45847   0.00000  Uiso   1.00
N623   N     0.72551   0.40235   0.54153   0.00000  Uiso   1.00
N624   N     0.59729   0.27609   0.45844   0.00000  Uiso   1.00
N625   N     0.90149   0.22975   0.54149   0.00000  Uiso   1.00
N626   N     0.72247   0.40309   0.45850   0.00000  Uiso   1.00
N627   N     0.77648   0.09704   0.54149   0.00000  Uiso   1.00
N628   N     0.65131   0.48014   0.95845   0.00000  Uiso   1.00
O629   O     0.75000   0.00000   0.25000   0.00000  Uiso   1.00
O630   O     0.75000   0.46963   0.66245   0.00000  Uiso   1.00
O631   O     0.96963   0.25000   0.33755   0.00000  Uiso   1.00
O632   O     0.53036   0.25000   0.66245   0.00000  Uiso   1.00
O633   O     0.50000   0.21963   0.83755   0.00000  Uiso   1.00
O634   O     0.50000   0.28037   0.16245   0.00000  Uiso   1.00
O635   O     0.78036   0.00000   0.83755   0.00000  Uiso   1.00
O636   O     0.71963   0.00000   0.16245   0.00000  Uiso   1.00
O637   O     0.50000   0.28036   0.83755   0.00000  Uiso   1.00
O638   O     0.50000   0.21964   0.16245   0.00000  Uiso   1.00
O639   O     0.71963   0.00000   0.83755   0.00000  Uiso   1.00
O640   O     0.75000   0.00000   0.75000   0.00000  Uiso   1.00
O641   O     0.78036   0.00000   0.16245   0.00000  Uiso   1.00
O642   O     0.70724   0.07308   0.27302   0.00000  Uiso   1.00
O643   O     0.79275   0.42692   0.72698   0.00000  Uiso   1.00
O644   O     0.92692   0.20725   0.27302   0.00000  Uiso   1.00
O645   O     0.57307   0.29275   0.72698   0.00000  Uiso   1.00
O646   O     0.79275   0.42692   0.27302   0.00000  Uiso   1.00
O647   O     0.70724   0.07308   0.72698   0.00000  Uiso   1.00
O648   O     0.57307   0.29275   0.27302   0.00000  Uiso   1.00
O649   O     0.92692   0.20725   0.72698   0.00000  Uiso   1.00
O650   O     0.70724   0.42692   0.72698   0.00000  Uiso   1.00
O651   O     0.50000   0.25000   0.25000   0.00000  Uiso   1.00
O652   O     0.79275   0.07308   0.27302   0.00000  Uiso   1.00
O653   O     0.92692   0.29276   0.72698   0.00000  Uiso   1.00
O654   O     0.57307   0.20724   0.27302   0.00000  Uiso   1.00
O655   O     0.79275   0.07308   0.72698   0.00000  Uiso   1.00
O656   O     0.70724   0.42692   0.27302   0.00000  Uiso   1.00
O657   O     0.57307   0.20724   0.72698   0.00000  Uiso   1.00
O658   O     0.92692   0.29276   0.27302   0.00000  Uiso   1.00
O659   O     0.95724   0.32308   0.77302   0.00000  Uiso   1.00
O660   O     0.54275   0.17692   0.22698   0.00000  Uiso   1.00
O661   O     0.67692   0.45724   0.77302   0.00000  Uiso   1.00
O662   O     0.50000   0.25000   0.75000   0.00000  Uiso   1.00
O663   O     0.82307   0.04276   0.22698   0.00000  Uiso   1.00
O664   O     0.54275   0.17692   0.77302   0.00000  Uiso   1.00
O665   O     0.95724   0.32308   0.22698   0.00000  Uiso   1.00
O666   O     0.82307   0.04276   0.77302   0.00000  Uiso   1.00
O667   O     0.67692   0.45724   0.22698   0.00000  Uiso   1.00
O668   O     0.95724   0.17693   0.22698   0.00000  Uiso   1.00
O669   O     0.54275   0.32307   0.77302   0.00000  Uiso   1.00
O670   O     0.67692   0.04276   0.22698   0.00000  Uiso   1.00
O671   O     0.82307   0.45724   0.77302   0.00000  Uiso   1.00
O672   O     0.54275   0.32307   0.22698   0.00000  Uiso   1.00
O673   O     0.75000   0.46963   0.33755   0.00000  Uiso   1.00
O674   O     0.95724   0.17693   0.77302   0.00000  Uiso   1.00
O675   O     0.82307   0.45724   0.22698   0.00000  Uiso   1.00
O676   O     0.67692   0.04276   0.77302   0.00000  Uiso   1.00
O677   O     0.75000   0.03037   0.66245   0.00000  Uiso   1.00
O678   O     0.53036   0.25000   0.33755   0.00000  Uiso   1.00
O679   O     0.96963   0.25000   0.66245   0.00000  Uiso   1.00
O680   O     0.75000   0.03037   0.33755   0.00000  Uiso   1.00
Zn681  Zn    0.70659   0.00000   0.21735   0.00000  Uiso   1.00
Zn682  Zn    0.54340   0.25000   0.28265   0.00000  Uiso   1.00
Zn683  Zn    0.75000   0.45659   0.71735   0.00000  Uiso   1.00
Zn684  Zn    0.75000   0.04341   0.28265   0.00000  Uiso   1.00
Zn685  Zn    0.54340   0.25000   0.71735   0.00000  Uiso   1.00
Zn686  Zn    0.95659   0.25000   0.28265   0.00000  Uiso   1.00
Zn687  Zn    0.75000   0.04341   0.71735   0.00000  Uiso   1.00
Zn688  Zn    0.75000   0.45659   0.28265   0.00000  Uiso   1.00
Zn689  Zn    0.79340   0.00000   0.78265   0.00000  Uiso   1.00
Zn690  Zn    0.50000   0.20659   0.21735   0.00000  Uiso   1.00
Zn691  Zn    0.50000   0.29340   0.78265   0.00000  Uiso   1.00
Zn692  Zn    0.79340   0.00000   0.21735   0.00000  Uiso   1.00
Zn693  Zn    0.70659   0.00000   0.78265   0.00000  Uiso   1.00
Zn694  Zn    0.50000   0.29340   0.21735   0.00000  Uiso   1.00
Zn695  Zn    0.50000   0.20660   0.78265   0.00000  Uiso   1.00
Zn696  Zn    0.95659   0.25000   0.71735   0.00000  Uiso   1.00
C697   C     0.03209   0.75807   0.41862   0.00000  Uiso   1.00
C698   C     0.21762   0.99310   0.08138   0.00000  Uiso   1.00
C699   C     0.24182   0.96739   0.54076   0.00000  Uiso   1.00
C700   C     0.03237   0.75937   0.45923   0.00000  Uiso   1.00
C701   C     0.46697   0.74435   0.54078   0.00000  Uiso   1.00
C702   C     0.24142   0.96747   0.45923   0.00000  Uiso   1.00
C703   C     0.25778   0.53260   0.54076   0.00000  Uiso   1.00
C704   C     0.21715   0.99277   0.95924   0.00000  Uiso   1.00
C705   C     0.28335   0.50366   0.04077   0.00000  Uiso   1.00
C706   C     0.00582   0.78307   0.95923   0.00000  Uiso   1.00
C707   C     0.49454   0.71691   0.04076   0.00000  Uiso   1.00
C708   C     0.28314   0.50500   0.95926   0.00000  Uiso   1.00
C709   C     0.49329   0.71767   0.91863   0.00000  Uiso   1.00
C710   C     0.21727   0.99189   0.04077   0.00000  Uiso   1.00
C711   C     0.49283   0.71721   0.95925   0.00000  Uiso   1.00
C712   C     0.00754   0.78276   0.04075   0.00000  Uiso   1.00
C713   C     0.09812   0.84813   0.25001   0.00000  Uiso   1.00
C714   C     0.40186   0.65188   0.75001   0.00000  Uiso   1.00
C715   C     0.15187   0.59814   0.24999   0.00000  Uiso   1.00
C716   C     0.34813   0.90187   0.75000   0.00000  Uiso   1.00
C717   C     0.40189   0.65185   0.25004   0.00000  Uiso   1.00
C718   C     0.09812   0.84814   0.74998   0.00000  Uiso   1.00
C719   C     0.34813   0.90186   0.24999   0.00000  Uiso   1.00
C720   C     0.00699   0.78232   0.08137   0.00000  Uiso   1.00
C721   C     0.15187   0.59813   0.75000   0.00000  Uiso   1.00
C722   C     0.09813   0.65187   0.75000   0.00000  Uiso   1.00
C723   C     0.40186   0.84813   0.24999   0.00000  Uiso   1.00
C724   C     0.15186   0.90188   0.74998   0.00000  Uiso   1.00
C725   C     0.34815   0.59811   0.25004   0.00000  Uiso   1.00
C726   C     0.40187   0.84813   0.75000   0.00000  Uiso   1.00
C727   C     0.09814   0.65187   0.24999   0.00000  Uiso   1.00
C728   C     0.34812   0.59813   0.75001   0.00000  Uiso   1.00
C729   C     0.15187   0.90188   0.25001   0.00000  Uiso   1.00
C730   C     0.49971   0.75164   0.47966   0.00000  Uiso   1.00
C731   C     0.21750   0.99403   0.91864   0.00000  Uiso   1.00
C732   C     0.49962   0.75211   0.52035   0.00000  Uiso   1.00
C733   C     0.24954   0.50004   0.47965   0.00000  Uiso   1.00
C734   C     0.24965   0.50003   0.52034   0.00000  Uiso   1.00
C735   C     0.25021   0.99845   0.97967   0.00000  Uiso   1.00
C736   C     0.25029   0.99794   0.02035   0.00000  Uiso   1.00
C737   C     0.49977   0.75006   0.97966   0.00000  Uiso   1.00
C738   C     0.00061   0.74992   0.02034   0.00000  Uiso   1.00
C739   C     0.39922   0.68754   0.44866   0.00000  Uiso   1.00
C740   C     0.09775   0.81742   0.55269   0.00000  Uiso   1.00
C741   C     0.31068   0.60248   0.44520   0.00000  Uiso   1.00
C742   C     0.28267   0.50432   0.08137   0.00000  Uiso   1.00
C743   C     0.18827   0.89776   0.55475   0.00000  Uiso   1.00
C744   C     0.10170   0.81332   0.44510   0.00000  Uiso   1.00
C745   C     0.38130   0.76221   0.55197   0.00000  Uiso   1.00
C746   C     0.18442   0.90163   0.44732   0.00000  Uiso   1.00
C747   C     0.31453   0.59863   0.55263   0.00000  Uiso   1.00
C748   C     0.14477   0.94334   0.94476   0.00000  Uiso   1.00
C749   C     0.36771   0.98036   0.05189   0.00000  Uiso   1.00
C750   C     0.48461   0.86808   0.94844   0.00000  Uiso   1.00
C751   C     0.01604   0.63203   0.05162   0.00000  Uiso   1.00
C752   C     0.35447   0.55616   0.94864   0.00000  Uiso   1.00
C753   C     0.00586   0.78248   0.91862   0.00000  Uiso   1.00
C754   C     0.14833   0.93875   0.05255   0.00000  Uiso   1.00
C755   C     0.44033   0.64695   0.94856   0.00000  Uiso   1.00
C756   C     0.06029   0.85285   0.05142   0.00000  Uiso   1.00
C757   C     0.49438   0.71752   0.08137   0.00000  Uiso   1.00
C758   C     0.49998   0.75036   0.39841   0.00000  Uiso   1.00
C759   C     0.49992   0.75079   0.60160   0.00000  Uiso   1.00
C760   C     0.24975   0.50001   0.39840   0.00000  Uiso   1.00
C761   C     0.46768   0.74374   0.58138   0.00000  Uiso   1.00
C762   C     0.24987   0.99998   0.60160   0.00000  Uiso   1.00
C763   C     0.25002   0.99972   0.89842   0.00000  Uiso   1.00
C764   C     0.25007   0.99921   0.10160   0.00000  Uiso   1.00
C765   C     0.49971   0.75004   0.89840   0.00000  Uiso   1.00
C766   C     0.00045   0.74996   0.10160   0.00000  Uiso   1.00
C767   C     0.43474   0.73496   0.47958   0.00000  Uiso   1.00
C768   C     0.06455   0.76900   0.52047   0.00000  Uiso   1.00
C769   C     0.26569   0.56515   0.47952   0.00000  Uiso   1.00
C770   C     0.23340   0.93495   0.52047   0.00000  Uiso   1.00
C771   C     0.06472   0.76813   0.47951   0.00000  Uiso   1.00
C772   C     0.24242   0.96782   0.41861   0.00000  Uiso   1.00
C773   C     0.43436   0.73663   0.52050   0.00000  Uiso   1.00
C774   C     0.23269   0.93509   0.47952   0.00000  Uiso   1.00
C775   C     0.26637   0.56501   0.52047   0.00000  Uiso   1.00
C776   C     0.18431   0.98605   0.97952   0.00000  Uiso   1.00
C777   C     0.31638   0.50931   0.02049   0.00000  Uiso   1.00
C778   C     0.01241   0.81593   0.97952   0.00000  Uiso   1.00
C779   C     0.48805   0.68403   0.02047   0.00000  Uiso   1.00
C780   C     0.31610   0.51103   0.97957   0.00000  Uiso   1.00
C781   C     0.18443   0.98511   0.02047   0.00000  Uiso   1.00
C782   C     0.48619   0.68438   0.97956   0.00000  Uiso   1.00
C783   C     0.25699   0.53221   0.58137   0.00000  Uiso   1.00
C784   C     0.01429   0.81558   0.02044   0.00000  Uiso   1.00
C785   C     0.24996   0.50000   0.35596   0.00000  Uiso   1.00
C786   C     0.24996   0.50000   0.64404   0.00000  Uiso   1.00
C787   C     0.00000   0.75003   0.35596   0.00000  Uiso   1.00
C788   C    -0.00000   0.75007   0.64404   0.00000  Uiso   1.00
C789   C     0.49998   0.75000   0.85596   0.00000  Uiso   1.00
C790   C     0.00005   0.75000   0.14404   0.00000  Uiso   1.00
C791   C     0.25000   0.99999   0.85597   0.00000  Uiso   1.00
C792   C     0.25000   0.99993   0.14404   0.00000  Uiso   1.00
C793   C     0.17994   0.57006   0.25000   0.00000  Uiso   1.00
C794   C     0.46777   0.74319   0.41865   0.00000  Uiso   1.00
C795   C     0.32006   0.92994   0.75000   0.00000  Uiso   1.00
C796   C     0.42995   0.67994   0.25001   0.00000  Uiso   1.00
C797   C     0.07006   0.82006   0.74999   0.00000  Uiso   1.00
C798   C     0.32006   0.92994   0.25000   0.00000  Uiso   1.00
C799   C     0.17994   0.57006   0.75000   0.00000  Uiso   1.00
C800   C     0.07006   0.82006   0.25000   0.00000  Uiso   1.00
C801   C     0.42994   0.67994   0.75000   0.00000  Uiso   1.00
C802   C     0.17994   0.92994   0.75000   0.00000  Uiso   1.00
C803   C     0.32006   0.57005   0.25001   0.00000  Uiso   1.00
C804   C     0.42994   0.82006   0.75000   0.00000  Uiso   1.00
C805   C     0.03195   0.75885   0.58139   0.00000  Uiso   1.00
C806   C     0.07006   0.67994   0.25000   0.00000  Uiso   1.00
C807   C     0.32006   0.57006   0.75000   0.00000  Uiso   1.00
C808   C     0.17994   0.92994   0.25000   0.00000  Uiso   1.00
C809   C     0.07006   0.67994   0.75000   0.00000  Uiso   1.00
C810   C     0.42994   0.82006   0.25000   0.00000  Uiso   1.00
C811   C     0.12241   0.90433   0.22420   0.00000  Uiso   1.00
C812   C     0.37771   0.59555   0.77564   0.00000  Uiso   1.00
C813   C     0.09521   0.62194   0.22485   0.00000  Uiso   1.00
C814   C     0.40475   0.87802   0.77520   0.00000  Uiso   1.00
C815   C     0.37780   0.59546   0.22451   0.00000  Uiso   1.00
C816   C     0.25678   0.53226   0.41863   0.00000  Uiso   1.00
C817   C     0.12233   0.90441   0.77569   0.00000  Uiso   1.00
C818   C     0.40478   0.87805   0.22484   0.00000  Uiso   1.00
C819   C     0.09517   0.62190   0.77509   0.00000  Uiso   1.00
C820   C     0.12190   0.59517   0.77509   0.00000  Uiso   1.00
C821   C     0.37805   0.90478   0.22484   0.00000  Uiso   1.00
C822   C     0.09559   0.87767   0.77569   0.00000  Uiso   1.00
C823   C     0.40454   0.62220   0.22451   0.00000  Uiso   1.00
C824   C     0.37802   0.90476   0.77520   0.00000  Uiso   1.00
C825   C     0.12194   0.59521   0.22485   0.00000  Uiso   1.00
C826   C     0.40445   0.62229   0.77564   0.00000  Uiso   1.00
C827   C     0.24267   0.96776   0.58138   0.00000  Uiso   1.00
C828   C     0.09567   0.87759   0.22420   0.00000  Uiso   1.00
C829   C     0.37227   0.65447   0.72439   0.00000  Uiso   1.00
C830   C     0.12758   0.84568   0.27582   0.00000  Uiso   1.00
C831   C     0.34524   0.87197   0.72481   0.00000  Uiso   1.00
C832   C     0.15480   0.62807   0.27513   0.00000  Uiso   1.00
C833   C     0.12763   0.84562   0.72426   0.00000  Uiso   1.00
C834   C     0.37225   0.65449   0.27559   0.00000  Uiso   1.00
C835   C     0.15483   0.62810   0.72492   0.00000  Uiso   1.00
C836   C     0.34521   0.87194   0.27514   0.00000  Uiso   1.00
C837   C     0.37194   0.84521   0.27514   0.00000  Uiso   1.00
C838   C     0.28261   0.50492   0.91865   0.00000  Uiso   1.00
C839   C     0.12810   0.65483   0.72492   0.00000  Uiso   1.00
C840   C     0.34551   0.62775   0.27559   0.00000  Uiso   1.00
C841   C     0.15438   0.87236   0.72426   0.00000  Uiso   1.00
C842   C     0.12807   0.65480   0.27513   0.00000  Uiso   1.00
C843   C     0.37198   0.84524   0.72481   0.00000  Uiso   1.00
C844   C     0.15432   0.87242   0.27582   0.00000  Uiso   1.00
C845   C     0.34553   0.62772   0.72439   0.00000  Uiso   1.00
C846   C     0.46725   0.74306   0.45926   0.00000  Uiso   1.00
C847   C     0.03221   0.76016   0.54077   0.00000  Uiso   1.00
C848   C     0.25741   0.53267   0.45924   0.00000  Uiso   1.00
H849   H     0.12000   0.92684   0.20399   0.00000  Uiso   1.00
H850   H     0.38084   0.92766   0.20516   0.00000  Uiso   1.00
H851   H     0.26221   0.55697   0.59759   0.00000  Uiso   1.00
H852   H     0.44311   0.73750   0.40243   0.00000  Uiso   1.00
H853   H     0.05669   0.76412   0.59762   0.00000  Uiso   1.00
H854   H     0.26224   0.55695   0.40239   0.00000  Uiso   1.00
H855   H     0.23729   0.94306   0.59762   0.00000  Uiso   1.00
H856   H     0.30758   0.50903   0.90245   0.00000  Uiso   1.00
H857   H     0.19258   0.98935   0.09757   0.00000  Uiso   1.00
H858   H     0.48875   0.69277   0.90242   0.00000  Uiso   1.00
H859   H     0.01152   0.80722   0.09759   0.00000  Uiso   1.00
H860   H     0.19249   0.99020   0.90242   0.00000  Uiso   1.00
H861   H     0.07302   0.88013   0.79582   0.00000  Uiso   1.00
H862   H     0.30747   0.50944   0.09756   0.00000  Uiso   1.00
H863   H     0.01128   0.80719   0.90239   0.00000  Uiso   1.00
H864   H     0.48891   0.69281   0.09759   0.00000  Uiso   1.00
H865   H     0.42721   0.61964   0.20452   0.00000  Uiso   1.00
H866   H     0.38079   0.92762   0.79491   0.00000  Uiso   1.00
H867   H     0.11914   0.57232   0.20519   0.00000  Uiso   1.00
H868   H     0.42707   0.61978   0.79570   0.00000  Uiso   1.00
H869   H     0.07316   0.87999   0.20400   0.00000  Uiso   1.00
H870   H     0.36976   0.67708   0.70434   0.00000  Uiso   1.00
H871   H     0.12998   0.82317   0.29603   0.00000  Uiso   1.00
H872   H     0.32238   0.86920   0.70510   0.00000  Uiso   1.00
H873   H     0.38022   0.57294   0.79569   0.00000  Uiso   1.00
H874   H     0.17769   0.63087   0.29479   0.00000  Uiso   1.00
H875   H     0.13009   0.82306   0.70412   0.00000  Uiso   1.00
H876   H     0.36970   0.67715   0.29558   0.00000  Uiso   1.00
H877   H     0.17775   0.63093   0.70530   0.00000  Uiso   1.00
H878   H     0.32232   0.86915   0.29481   0.00000  Uiso   1.00
H879   H     0.36915   0.82233   0.29481   0.00000  Uiso   1.00
H880   H     0.13093   0.67775   0.70530   0.00000  Uiso   1.00
H881   H     0.32285   0.63030   0.29558   0.00000  Uiso   1.00
H882   H     0.17694   0.86991   0.70412   0.00000  Uiso   1.00
H883   H     0.13087   0.67769   0.29479   0.00000  Uiso   1.00
H884   H     0.07232   0.61914   0.20519   0.00000  Uiso   1.00
H885   H     0.36921   0.82238   0.70510   0.00000  Uiso   1.00
H886   H     0.17683   0.87002   0.29602   0.00000  Uiso   1.00
H887   H     0.32292   0.63023   0.70433   0.00000  Uiso   1.00
H888   H     0.37860   0.73650   0.46976   0.00000  Uiso   1.00
H889   H     0.39660   0.67066   0.47528   0.00000  Uiso   1.00
H890   H     0.42345   0.67836   0.43195   0.00000  Uiso   1.00
H891   H     0.37461   0.68334   0.43040   0.00000  Uiso   1.00
H892   H     0.12088   0.77005   0.53045   0.00000  Uiso   1.00
H893   H     0.09917   0.83516   0.52664   0.00000  Uiso   1.00
H894   H     0.12230   0.82242   0.57083   0.00000  Uiso   1.00
H895   H     0.42761   0.88079   0.79491   0.00000  Uiso   1.00
H896   H     0.07325   0.82483   0.56993   0.00000  Uiso   1.00
H897   H     0.26062   0.62131   0.46741   0.00000  Uiso   1.00
H898   H     0.32411   0.62470   0.46183   0.00000  Uiso   1.00
H899   H     0.31042   0.61018   0.41406   0.00000  Uiso   1.00
H900   H     0.32691   0.57703   0.44848   0.00000  Uiso   1.00
H901   H     0.23829   0.87878   0.53259   0.00000  Uiso   1.00
H902   H     0.17477   0.87563   0.53805   0.00000  Uiso   1.00
H903   H     0.17213   0.92328   0.55151   0.00000  Uiso   1.00
H904   H     0.18846   0.89000   0.58587   0.00000  Uiso   1.00
H905   H     0.12092   0.76346   0.46742   0.00000  Uiso   1.00
H906   H     0.38036   0.57279   0.20452   0.00000  Uiso   1.00
H907   H     0.12363   0.82704   0.46189   0.00000  Uiso   1.00
H908   H     0.07604   0.82928   0.44809   0.00000  Uiso   1.00
H909   H     0.10965   0.81306   0.41402   0.00000  Uiso   1.00
H910   H     0.38515   0.70944   0.53028   0.00000  Uiso   1.00
H911   H     0.37117   0.77630   0.52554   0.00000  Uiso   1.00
H912   H     0.39876   0.78129   0.56881   0.00000  Uiso   1.00
H913   H     0.35758   0.75451   0.57028   0.00000  Uiso   1.00
H914   H     0.23194   0.87877   0.46951   0.00000  Uiso   1.00
H915   H     0.16671   0.90007   0.47338   0.00000  Uiso   1.00
H916   H     0.17955   0.87708   0.42914   0.00000  Uiso   1.00
H917   H     0.11988   0.92697   0.79583   0.00000  Uiso   1.00
H918   H     0.17683   0.92611   0.43014   0.00000  Uiso   1.00
H919   H     0.26691   0.62133   0.53050   0.00000  Uiso   1.00
H920   H     0.33220   0.60030   0.52655   0.00000  Uiso   1.00
H921   H     0.32223   0.57414   0.56975   0.00000  Uiso   1.00
H922   H     0.31930   0.62315   0.57086   0.00000  Uiso   1.00
H923   H     0.12845   0.99404   0.96756   0.00000  Uiso   1.00
H924   H     0.12215   0.93074   0.96152   0.00000  Uiso   1.00
H925   H     0.16949   0.92593   0.94751   0.00000  Uiso   1.00
H926   H     0.13677   0.94432   0.91372   0.00000  Uiso   1.00
H927   H     0.36722   0.53330   0.03028   0.00000  Uiso   1.00
H928   H     0.42766   0.88084   0.20517   0.00000  Uiso   1.00
H929   H     0.37690   0.96569   0.02544   0.00000  Uiso   1.00
H930   H     0.34908   0.96243   0.06873   0.00000  Uiso   1.00
H931   H     0.39188   0.98651   0.07019   0.00000  Uiso   1.00
H932   H     0.03766   0.86612   0.96963   0.00000  Uiso   1.00
H933   H     0.47039   0.87764   0.97503   0.00000  Uiso   1.00
H934   H     0.46604   0.84996   0.93175   0.00000  Uiso   1.00
H935   H     0.49127   0.89209   0.93011   0.00000  Uiso   1.00
H936   H     0.46301   0.63373   0.03034   0.00000  Uiso   1.00
H937   H     0.03037   0.62256   0.02506   0.00000  Uiso   1.00
H938   H     0.00946   0.60797   0.06991   0.00000  Uiso   1.00
H939   H     0.07225   0.61908   0.79470   0.00000  Uiso   1.00
H940   H     0.03448   0.65022   0.06838   0.00000  Uiso   1.00
H941   H     0.37203   0.50603   0.96973   0.00000  Uiso   1.00
H942   H     0.35812   0.57286   0.97527   0.00000  Uiso   1.00
H943   H     0.33085   0.56682   0.93193   0.00000  Uiso   1.00
H944   H     0.37929   0.55884   0.93038   0.00000  Uiso   1.00
H945   H     0.12816   0.98754   0.03054   0.00000  Uiso   1.00
H946   H     0.14580   0.92121   0.02644   0.00000  Uiso   1.00
H947   H     0.12354   0.93521   0.07070   0.00000  Uiso   1.00
H948   H     0.17234   0.92977   0.06974   0.00000  Uiso   1.00
H949   H     0.49005   0.62834   0.96972   0.00000  Uiso   1.00
H950   H     0.11907   0.57225   0.79470   0.00000  Uiso   1.00
H951   H     0.42352   0.64367   0.97517   0.00000  Uiso   1.00
H952   H     0.43716   0.62217   0.93032   0.00000  Uiso   1.00
H953   H     0.43020   0.67077   0.93180   0.00000  Uiso   1.00
H954   H     0.01063   0.87163   0.03027   0.00000  Uiso   1.00
H955   H     0.07710   0.85607   0.02481   0.00000  Uiso   1.00
H956   H     0.07033   0.82898   0.06817   0.00000  Uiso   1.00
H957   H     0.06356   0.87760   0.06967   0.00000  Uiso   1.00
H958   H     0.05679   0.76348   0.40238   0.00000  Uiso   1.00
H959   H     0.44326   0.73709   0.59759   0.00000  Uiso   1.00
H960   H     0.23722   0.94306   0.40239   0.00000  Uiso   1.00
N961   N     0.40239   0.72578   0.45865   0.00000  Uiso   1.00
N962   N     0.34962   0.51406   0.04148   0.00000  Uiso   1.00
N963   N     0.01788   0.84907   0.95855   0.00000  Uiso   1.00
N964   N     0.48270   0.65088   0.04145   0.00000  Uiso   1.00
N965   N     0.34894   0.51819   0.95864   0.00000  Uiso   1.00
N966   N     0.15192   0.97668   0.04147   0.00000  Uiso   1.00
N967   N     0.47839   0.65168   0.95862   0.00000  Uiso   1.00
N968   N     0.02221   0.84825   0.04138   0.00000  Uiso   1.00
N969   N     0.09651   0.77937   0.54147   0.00000  Uiso   1.00
N970   N     0.27346   0.59778   0.45847   0.00000  Uiso   1.00
N971   N     0.22551   0.90235   0.54153   0.00000  Uiso   1.00
N972   N     0.09729   0.77609   0.45844   0.00000  Uiso   1.00
N973   N     0.40149   0.72975   0.54149   0.00000  Uiso   1.00
N974   N     0.22247   0.90309   0.45850   0.00000  Uiso   1.00
N975   N     0.27648   0.59704   0.54149   0.00000  Uiso   1.00
N976   N     0.15131   0.98014   0.95845   0.00000  Uiso   1.00
O977   O     0.25000   0.50000   0.25000   0.00000  Uiso   1.00
O978   O     0.25000   0.96963   0.66245   0.00000  Uiso   1.00
O979   O     0.46963   0.75000   0.33755   0.00000  Uiso   1.00
O980   O     0.03036   0.75000   0.66245   0.00000  Uiso   1.00
O981   O     0.00000   0.71963   0.83755   0.00000  Uiso   1.00
O982   O    -0.00000   0.78037   0.16245   0.00000  Uiso   1.00
O983   O     0.28036   0.50000   0.83755   0.00000  Uiso   1.00
O984   O     0.21963   0.50000   0.16245   0.00000  Uiso   1.00
O985   O     0.00000   0.78036   0.83755   0.00000  Uiso   1.00
O986   O    -0.00000   0.71964   0.16245   0.00000  Uiso   1.00
O987   O     0.21963   0.50000   0.83755   0.00000  Uiso   1.00
O988   O     0.25000   0.50000   0.75000   0.00000  Uiso   1.00
O989   O     0.28036   0.50000   0.16245   0.00000  Uiso   1.00
O990   O     0.20724   0.57308   0.27302   0.00000  Uiso   1.00
O991   O     0.29275   0.92692   0.72698   0.00000  Uiso   1.00
O992   O     0.42692   0.70725   0.27302   0.00000  Uiso   1.00
O993   O     0.07307   0.79275   0.72698   0.00000  Uiso   1.00
O994   O     0.29275   0.92692   0.27302   0.00000  Uiso   1.00
O995   O     0.20724   0.57308   0.72698   0.00000  Uiso   1.00
O996   O     0.07307   0.79275   0.27302   0.00000  Uiso   1.00
O997   O     0.42692   0.70725   0.72698   0.00000  Uiso   1.00
O998   O     0.20724   0.92692   0.72698   0.00000  Uiso   1.00
O999   O     0.00000   0.75000   0.25000   0.00000  Uiso   1.00
O1000  O     0.29275   0.57308   0.27302   0.00000  Uiso   1.00
O1001  O     0.42692   0.79276   0.72698   0.00000  Uiso   1.00
O1002  O     0.07307   0.70724   0.27302   0.00000  Uiso   1.00
O1003  O     0.29275   0.57308   0.72698   0.00000  Uiso   1.00
O1004  O     0.20724   0.92692   0.27302   0.00000  Uiso   1.00
O1005  O     0.07307   0.70724   0.72698   0.00000  Uiso   1.00
O1006  O     0.42692   0.79276   0.27302   0.00000  Uiso   1.00
O1007  O     0.45724   0.82308   0.77302   0.00000  Uiso   1.00
O1008  O     0.04275   0.67692   0.22698   0.00000  Uiso   1.00
O1009  O     0.17692   0.95724   0.77302   0.00000  Uiso   1.00
O1010  O     0.00000   0.75000   0.75000   0.00000  Uiso   1.00
O1011  O     0.32307   0.54276   0.22698   0.00000  Uiso   1.00
O1012  O     0.04275   0.67692   0.77302   0.00000  Uiso   1.00
O1013  O     0.45724   0.82308   0.22698   0.00000  Uiso   1.00
O1014  O     0.32307   0.54276   0.77302   0.00000  Uiso   1.00
O1015  O     0.17692   0.95724   0.22698   0.00000  Uiso   1.00
O1016  O     0.45724   0.67693   0.22698   0.00000  Uiso   1.00
O1017  O     0.04275   0.82307   0.77302   0.00000  Uiso   1.00
O1018  O     0.17692   0.54276   0.22698   0.00000  Uiso   1.00
O1019  O     0.32307   0.95724   0.77302   0.00000  Uiso   1.00
O1020  O     0.04275   0.82307   0.22698   0.00000  Uiso   1.00
O1021  O     0.25000   0.96963   0.33755   0.00000  Uiso   1.00
O1022  O     0.45724   0.67693   0.77302   0.00000  Uiso   1.00
O1023  O     0.32307   0.95724   0.22698   0.00000  Uiso   1.00
O1024  O     0.17692   0.54276   0.77302   0.00000  Uiso   1.00
O1025  O     0.25000   0.53037   0.66245   0.00000  Uiso   1.00
O1026  O     0.03036   0.75000   0.33755   0.00000  Uiso   1.00
O1027  O     0.46963   0.75000   0.66245   0.00000  Uiso   1.00
O1028  O     0.25000   0.53037   0.33755   0.00000  Uiso   1.00
Zn1029 Zn    0.20659   0.50000   0.21735   0.00000  Uiso   1.00
Zn1030 Zn    0.04340   0.75000   0.28265   0.00000  Uiso   1.00
Zn1031 Zn    0.25000   0.95659   0.71735   0.00000  Uiso   1.00
Zn1032 Zn    0.25000   0.54341   0.28265   0.00000  Uiso   1.00
Zn1033 Zn    0.04340   0.75000   0.71735   0.00000  Uiso   1.00
Zn1034 Zn    0.45659   0.75000   0.28265   0.00000  Uiso   1.00
Zn1035 Zn    0.25000   0.54341   0.71735   0.00000  Uiso   1.00
Zn1036 Zn    0.25000   0.95659   0.28265   0.00000  Uiso   1.00
Zn1037 Zn    0.29340   0.50000   0.78265   0.00000  Uiso   1.00
Zn1038 Zn    0.00000   0.70659   0.21735   0.00000  Uiso   1.00
Zn1039 Zn    0.00000   0.79340   0.78265   0.00000  Uiso   1.00
Zn1040 Zn    0.29340   0.50000   0.21735   0.00000  Uiso   1.00
Zn1041 Zn    0.20659   0.50000   0.78265   0.00000  Uiso   1.00
Zn1042 Zn    0.00000   0.79340   0.21735   0.00000  Uiso   1.00
Zn1043 Zn   -0.00000   0.70660   0.78265   0.00000  Uiso   1.00
Zn1044 Zn    0.45659   0.75000   0.71735   0.00000  Uiso   1.00
C1045  C     0.53209   0.75807   0.41862   0.00000  Uiso   1.00
C1046  C     0.71762   0.99310   0.08138   0.00000  Uiso   1.00
C1047  C     0.74182   0.96739   0.54076   0.00000  Uiso   1.00
C1048  C     0.53237   0.75937   0.45923   0.00000  Uiso   1.00
C1049  C     0.96697   0.74435   0.54078   0.00000  Uiso   1.00
C1050  C     0.74142   0.96747   0.45923   0.00000  Uiso   1.00
C1051  C     0.75778   0.53260   0.54076   0.00000  Uiso   1.00
C1052  C     0.71715   0.99277   0.95924   0.00000  Uiso   1.00
C1053  C     0.78335   0.50366   0.04077   0.00000  Uiso   1.00
C1054  C     0.50582   0.78307   0.95923   0.00000  Uiso   1.00
C1055  C     0.99454   0.71691   0.04076   0.00000  Uiso   1.00
C1056  C     0.78314   0.50500   0.95926   0.00000  Uiso   1.00
C1057  C     0.99329   0.71767   0.91863   0.00000  Uiso   1.00
C1058  C     0.71727   0.99189   0.04077   0.00000  Uiso   1.00
C1059  C     0.99283   0.71721   0.95925   0.00000  Uiso   1.00
C1060  C     0.50754   0.78276   0.04075   0.00000  Uiso   1.00
C1061  C     0.59812   0.84813   0.25001   0.00000  Uiso   1.00
C1062  C     0.90186   0.65188   0.75001   0.00000  Uiso   1.00
C1063  C     0.65187   0.59814   0.24999   0.00000  Uiso   1.00
C1064  C     0.84813   0.90187   0.75000   0.00000  Uiso   1.00
C1065  C     0.90189   0.65185   0.25004   0.00000  Uiso   1.00
C1066  C     0.59812   0.84814   0.74998   0.00000  Uiso   1.00
C1067  C     0.84813   0.90186   0.24999   0.00000  Uiso   1.00
C1068  C     0.50699   0.78232   0.08137   0.00000  Uiso   1.00
C1069  C     0.65187   0.59813   0.75000   0.00000  Uiso   1.00
C1070  C     0.59813   0.65187   0.75000   0.00000  Uiso   1.00
C1071  C     0.90186   0.84813   0.24999   0.00000  Uiso   1.00
C1072  C     0.65186   0.90188   0.74998   0.00000  Uiso   1.00
C1073  C     0.84815   0.59811   0.25004   0.00000  Uiso   1.00
C1074  C     0.90187   0.84813   0.75000   0.00000  Uiso   1.00
C1075  C     0.59814   0.65187   0.24999   0.00000  Uiso   1.00
C1076  C     0.84812   0.59813   0.75001   0.00000  Uiso   1.00
C1077  C     0.65187   0.90188   0.25001   0.00000  Uiso   1.00
C1078  C     0.99971   0.75164   0.47966   0.00000  Uiso   1.00
C1079  C     0.71750   0.99403   0.91864   0.00000  Uiso   1.00
C1080  C     0.99962   0.75211   0.52035   0.00000  Uiso   1.00
C1081  C     0.74954   0.50004   0.47965   0.00000  Uiso   1.00
C1082  C     0.74965   0.50003   0.52034   0.00000  Uiso   1.00
C1083  C     0.75021   0.99845   0.97967   0.00000  Uiso   1.00
C1084  C     0.75029   0.99794   0.02035   0.00000  Uiso   1.00
C1085  C     0.99977   0.75006   0.97966   0.00000  Uiso   1.00
C1086  C     0.50061   0.74992   0.02034   0.00000  Uiso   1.00
C1087  C     0.89922   0.68754   0.44866   0.00000  Uiso   1.00
C1088  C     0.59775   0.81742   0.55269   0.00000  Uiso   1.00
C1089  C     0.81068   0.60248   0.44520   0.00000  Uiso   1.00
C1090  C     0.78267   0.50432   0.08137   0.00000  Uiso   1.00
C1091  C     0.68827   0.89776   0.55475   0.00000  Uiso   1.00
C1092  C     0.60170   0.81332   0.44510   0.00000  Uiso   1.00
C1093  C     0.88130   0.76221   0.55197   0.00000  Uiso   1.00
C1094  C     0.68442   0.90163   0.44732   0.00000  Uiso   1.00
C1095  C     0.81453   0.59863   0.55263   0.00000  Uiso   1.00
C1096  C     0.64477   0.94334   0.94476   0.00000  Uiso   1.00
C1097  C     0.86771   0.98036   0.05189   0.00000  Uiso   1.00
C1098  C     0.98461   0.86808   0.94844   0.00000  Uiso   1.00
C1099  C     0.51604   0.63203   0.05162   0.00000  Uiso   1.00
C1100  C     0.85447   0.55616   0.94864   0.00000  Uiso   1.00
C1101  C     0.50586   0.78248   0.91862   0.00000  Uiso   1.00
C1102  C     0.64833   0.93875   0.05255   0.00000  Uiso   1.00
C1103  C     0.94033   0.64695   0.94856   0.00000  Uiso   1.00
C1104  C     0.56029   0.85285   0.05142   0.00000  Uiso   1.00
C1105  C     0.99438   0.71752   0.08137   0.00000  Uiso   1.00
C1106  C     0.99998   0.75036   0.39841   0.00000  Uiso   1.00
C1107  C     0.99992   0.75079   0.60160   0.00000  Uiso   1.00
C1108  C     0.74975   0.50001   0.39840   0.00000  Uiso   1.00
C1109  C     0.96768   0.74374   0.58138   0.00000  Uiso   1.00
C1110  C     0.74987   0.99998   0.60160   0.00000  Uiso   1.00
C1111  C     0.75002   0.99972   0.89842   0.00000  Uiso   1.00
C1112  C     0.75007   0.99921   0.10160   0.00000  Uiso   1.00
C1113  C     0.99971   0.75004   0.89840   0.00000  Uiso   1.00
C1114  C     0.50045   0.74996   0.10160   0.00000  Uiso   1.00
C1115  C     0.93474   0.73496   0.47958   0.00000  Uiso   1.00
C1116  C     0.56455   0.76900   0.52047   0.00000  Uiso   1.00
C1117  C     0.76569   0.56515   0.47952   0.00000  Uiso   1.00
C1118  C     0.73340   0.93495   0.52047   0.00000  Uiso   1.00
C1119  C     0.56472   0.76813   0.47951   0.00000  Uiso   1.00
C1120  C     0.74242   0.96782   0.41861   0.00000  Uiso   1.00
C1121  C     0.93436   0.73663   0.52050   0.00000  Uiso   1.00
C1122  C     0.73269   0.93509   0.47952   0.00000  Uiso   1.00
C1123  C     0.76637   0.56501   0.52047   0.00000  Uiso   1.00
C1124  C     0.68431   0.98605   0.97952   0.00000  Uiso   1.00
C1125  C     0.81638   0.50931   0.02049   0.00000  Uiso   1.00
C1126  C     0.51241   0.81593   0.97952   0.00000  Uiso   1.00
C1127  C     0.98805   0.68403   0.02047   0.00000  Uiso   1.00
C1128  C     0.81610   0.51103   0.97957   0.00000  Uiso   1.00
C1129  C     0.68443   0.98511   0.02047   0.00000  Uiso   1.00
C1130  C     0.98619   0.68438   0.97956   0.00000  Uiso   1.00
C1131  C     0.75699   0.53221   0.58137   0.00000  Uiso   1.00
C1132  C     0.51429   0.81558   0.02044   0.00000  Uiso   1.00
C1133  C     0.74996   0.50000   0.35596   0.00000  Uiso   1.00
C1134  C     0.74996   0.50000   0.64404   0.00000  Uiso   1.00
C1135  C     0.50000   0.75003   0.35596   0.00000  Uiso   1.00
C1136  C     0.50000   0.75007   0.64404   0.00000  Uiso   1.00
C1137  C     0.99998   0.75000   0.85596   0.00000  Uiso   1.00
C1138  C     0.50005   0.75000   0.14404   0.00000  Uiso   1.00
C1139  C     0.75000   0.99999   0.85597   0.00000  Uiso   1.00
C1140  C     0.75000   0.99993   0.14404   0.00000  Uiso   1.00
C1141  C     0.67994   0.57006   0.25000   0.00000  Uiso   1.00
C1142  C     0.96777   0.74319   0.41865   0.00000  Uiso   1.00
C1143  C     0.82006   0.92994   0.75000   0.00000  Uiso   1.00
C1144  C     0.92995   0.67994   0.25001   0.00000  Uiso   1.00
C1145  C     0.57006   0.82006   0.74999   0.00000  Uiso   1.00
C1146  C     0.82006   0.92994   0.25000   0.00000  Uiso   1.00
C1147  C     0.67994   0.57006   0.75000   0.00000  Uiso   1.00
C1148  C     0.57006   0.82006   0.25000   0.00000  Uiso   1.00
C1149  C     0.92994   0.67994   0.75000   0.00000  Uiso   1.00
C1150  C     0.67994   0.92994   0.75000   0.00000  Uiso   1.00
C1151  C     0.82006   0.57005   0.25001   0.00000  Uiso   1.00
C1152  C     0.92994   0.82006   0.75000   0.00000  Uiso   1.00
C1153  C     0.53195   0.75885   0.58139   0.00000  Uiso   1.00
C1154  C     0.57006   0.67994   0.25000   0.00000  Uiso   1.00
C1155  C     0.82006   0.57006   0.75000   0.00000  Uiso   1.00
C1156  C     0.67994   0.92994   0.25000   0.00000  Uiso   1.00
C1157  C     0.57006   0.67994   0.75000   0.00000  Uiso   1.00
C1158  C     0.92994   0.82006   0.25000   0.00000  Uiso   1.00
C1159  C     0.62241   0.90433   0.22420   0.00000  Uiso   1.00
C1160  C     0.87771   0.59555   0.77564   0.00000  Uiso   1.00
C1161  C     0.59521   0.62194   0.22485   0.00000  Uiso   1.00
C1162  C     0.90475   0.87802   0.77520   0.00000  Uiso   1.00
C1163  C     0.87780   0.59546   0.22451   0.00000  Uiso   1.00
C1164  C     0.75678   0.53226   0.41863   0.00000  Uiso   1.00
C1165  C     0.62233   0.90441   0.77569   0.00000  Uiso   1.00
C1166  C     0.90478   0.87805   0.22484   0.00000  Uiso   1.00
C1167  C     0.59517   0.62190   0.77509   0.00000  Uiso   1.00
C1168  C     0.62190   0.59517   0.77509   0.00000  Uiso   1.00
C1169  C     0.87805   0.90478   0.22484   0.00000  Uiso   1.00
C1170  C     0.59559   0.87767   0.77569   0.00000  Uiso   1.00
C1171  C     0.90454   0.62220   0.22451   0.00000  Uiso   1.00
C1172  C     0.87802   0.90476   0.77520   0.00000  Uiso   1.00
C1173  C     0.62194   0.59521   0.22485   0.00000  Uiso   1.00
C1174  C     0.90445   0.62229   0.77564   0.00000  Uiso   1.00
C1175  C     0.74267   0.96776   0.58138   0.00000  Uiso   1.00
C1176  C     0.59567   0.87759   0.22420   0.00000  Uiso   1.00
C1177  C     0.87227   0.65447   0.72439   0.00000  Uiso   1.00
C1178  C     0.62758   0.84568   0.27582   0.00000  Uiso   1.00
C1179  C     0.84524   0.87197   0.72481   0.00000  Uiso   1.00
C1180  C     0.65480   0.62807   0.27513   0.00000  Uiso   1.00
C1181  C     0.62763   0.84562   0.72426   0.00000  Uiso   1.00
C1182  C     0.87225   0.65449   0.27559   0.00000  Uiso   1.00
C1183  C     0.65483   0.62810   0.72492   0.00000  Uiso   1.00
C1184  C     0.84521   0.87194   0.27514   0.00000  Uiso   1.00
C1185  C     0.87194   0.84521   0.27514   0.00000  Uiso   1.00
C1186  C     0.78261   0.50492   0.91865   0.00000  Uiso   1.00
C1187  C     0.62810   0.65483   0.72492   0.00000  Uiso   1.00
C1188  C     0.84551   0.62775   0.27559   0.00000  Uiso   1.00
C1189  C     0.65438   0.87236   0.72426   0.00000  Uiso   1.00
C1190  C     0.62807   0.65480   0.27513   0.00000  Uiso   1.00
C1191  C     0.87198   0.84524   0.72481   0.00000  Uiso   1.00
C1192  C     0.65432   0.87242   0.27582   0.00000  Uiso   1.00
C1193  C     0.84553   0.62772   0.72439   0.00000  Uiso   1.00
C1194  C     0.96725   0.74306   0.45926   0.00000  Uiso   1.00
C1195  C     0.53221   0.76016   0.54077   0.00000  Uiso   1.00
C1196  C     0.75741   0.53267   0.45924   0.00000  Uiso   1.00
H1197  H     0.62000   0.92684   0.20399   0.00000  Uiso   1.00
H1198  H     0.88084   0.92766   0.20516   0.00000  Uiso   1.00
H1199  H     0.76221   0.55697   0.59759   0.00000  Uiso   1.00
H1200  H     0.94311   0.73750   0.40243   0.00000  Uiso   1.00
H1201  H     0.55669   0.76412   0.59762   0.00000  Uiso   1.00
H1202  H     0.76224   0.55695   0.40239   0.00000  Uiso   1.00
H1203  H     0.73729   0.94306   0.59762   0.00000  Uiso   1.00
H1204  H     0.80758   0.50903   0.90245   0.00000  Uiso   1.00
H1205  H     0.69258   0.98935   0.09757   0.00000  Uiso   1.00
H1206  H     0.98875   0.69277   0.90242   0.00000  Uiso   1.00
H1207  H     0.51152   0.80722   0.09759   0.00000  Uiso   1.00
H1208  H     0.69249   0.99020   0.90242   0.00000  Uiso   1.00
H1209  H     0.57302   0.88013   0.79582   0.00000  Uiso   1.00
H1210  H     0.80747   0.50944   0.09756   0.00000  Uiso   1.00
H1211  H     0.51128   0.80719   0.90239   0.00000  Uiso   1.00
H1212  H     0.98891   0.69281   0.09759   0.00000  Uiso   1.00
H1213  H     0.92721   0.61964   0.20452   0.00000  Uiso   1.00
H1214  H     0.88079   0.92762   0.79491   0.00000  Uiso   1.00
H1215  H     0.61914   0.57232   0.20519   0.00000  Uiso   1.00
H1216  H     0.92707   0.61978   0.79570   0.00000  Uiso   1.00
H1217  H     0.57316   0.87999   0.20400   0.00000  Uiso   1.00
H1218  H     0.86976   0.67708   0.70434   0.00000  Uiso   1.00
H1219  H     0.62998   0.82317   0.29603   0.00000  Uiso   1.00
H1220  H     0.82238   0.86920   0.70510   0.00000  Uiso   1.00
H1221  H     0.88022   0.57294   0.79569   0.00000  Uiso   1.00
H1222  H     0.67769   0.63087   0.29479   0.00000  Uiso   1.00
H1223  H     0.63009   0.82306   0.70412   0.00000  Uiso   1.00
H1224  H     0.86970   0.67715   0.29558   0.00000  Uiso   1.00
H1225  H     0.67775   0.63093   0.70530   0.00000  Uiso   1.00
H1226  H     0.82232   0.86915   0.29481   0.00000  Uiso   1.00
H1227  H     0.86915   0.82233   0.29481   0.00000  Uiso   1.00
H1228  H     0.63093   0.67775   0.70530   0.00000  Uiso   1.00
H1229  H     0.82285   0.63030   0.29558   0.00000  Uiso   1.00
H1230  H     0.67694   0.86991   0.70412   0.00000  Uiso   1.00
H1231  H     0.63087   0.67769   0.29479   0.00000  Uiso   1.00
H1232  H     0.57232   0.61914   0.20519   0.00000  Uiso   1.00
H1233  H     0.86921   0.82238   0.70510   0.00000  Uiso   1.00
H1234  H     0.67683   0.87002   0.29602   0.00000  Uiso   1.00
H1235  H     0.82292   0.63023   0.70433   0.00000  Uiso   1.00
H1236  H     0.87860   0.73650   0.46976   0.00000  Uiso   1.00
H1237  H     0.89660   0.67066   0.47528   0.00000  Uiso   1.00
H1238  H     0.92345   0.67836   0.43195   0.00000  Uiso   1.00
H1239  H     0.87461   0.68334   0.43040   0.00000  Uiso   1.00
H1240  H     0.62088   0.77005   0.53045   0.00000  Uiso   1.00
H1241  H     0.59917   0.83516   0.52664   0.00000  Uiso   1.00
H1242  H     0.62230   0.82242   0.57083   0.00000  Uiso   1.00
H1243  H     0.92761   0.88079   0.79491   0.00000  Uiso   1.00
H1244  H     0.57325   0.82483   0.56993   0.00000  Uiso   1.00
H1245  H     0.76062   0.62131   0.46741   0.00000  Uiso   1.00
H1246  H     0.82411   0.62470   0.46183   0.00000  Uiso   1.00
H1247  H     0.81042   0.61018   0.41406   0.00000  Uiso   1.00
H1248  H     0.82691   0.57703   0.44848   0.00000  Uiso   1.00
H1249  H     0.73829   0.87878   0.53259   0.00000  Uiso   1.00
H1250  H     0.67477   0.87563   0.53805   0.00000  Uiso   1.00
H1251  H     0.67213   0.92328   0.55151   0.00000  Uiso   1.00
H1252  H     0.68846   0.89000   0.58587   0.00000  Uiso   1.00
H1253  H     0.62092   0.76346   0.46742   0.00000  Uiso   1.00
H1254  H     0.88036   0.57279   0.20452   0.00000  Uiso   1.00
H1255  H     0.62363   0.82704   0.46189   0.00000  Uiso   1.00
H1256  H     0.57604   0.82928   0.44809   0.00000  Uiso   1.00
H1257  H     0.60965   0.81306   0.41402   0.00000  Uiso   1.00
H1258  H     0.88515   0.70944   0.53028   0.00000  Uiso   1.00
H1259  H     0.87117   0.77630   0.52554   0.00000  Uiso   1.00
H1260  H     0.89876   0.78129   0.56881   0.00000  Uiso   1.00
H1261  H     0.85758   0.75451   0.57028   0.00000  Uiso   1.00
H1262  H     0.73194   0.87877   0.46951   0.00000  Uiso   1.00
H1263  H     0.66671   0.90007   0.47338   0.00000  Uiso   1.00
H1264  H     0.67955   0.87708   0.42914   0.00000  Uiso   1.00
H1265  H     0.61988   0.92697   0.79583   0.00000  Uiso   1.00
H1266  H     0.67683   0.92611   0.43014   0.00000  Uiso   1.00
H1267  H     0.76691   0.62133   0.53050   0.00000  Uiso   1.00
H1268  H     0.83220   0.60030   0.52655   0.00000  Uiso   1.00
H1269  H     0.82223   0.57414   0.56975   0.00000  Uiso   1.00
H1270  H     0.81930   0.62315   0.57086   0.00000  Uiso   1.00
H1271  H     0.62845   0.99404   0.96756   0.00000  Uiso   1.00
H1272  H     0.62215   0.93074   0.96152   0.00000  Uiso   1.00
H1273  H     0.66949   0.92593   0.94751   0.00000  Uiso   1.00
H1274  H     0.63677   0.94432   0.91372   0.00000  Uiso   1.00
H1275  H     0.86722   0.53330   0.03028   0.00000  Uiso   1.00
H1276  H     0.92766   0.88084   0.20517   0.00000  Uiso   1.00
H1277  H     0.87690   0.96569   0.02544   0.00000  Uiso   1.00
H1278  H     0.84908   0.96243   0.06873   0.00000  Uiso   1.00
H1279  H     0.89188   0.98651   0.07019   0.00000  Uiso   1.00
H1280  H     0.53766   0.86612   0.96963   0.00000  Uiso   1.00
H1281  H     0.97039   0.87764   0.97503   0.00000  Uiso   1.00
H1282  H     0.96604   0.84996   0.93175   0.00000  Uiso   1.00
H1283  H     0.99127   0.89209   0.93011   0.00000  Uiso   1.00
H1284  H     0.96301   0.63373   0.03034   0.00000  Uiso   1.00
H1285  H     0.53037   0.62256   0.02506   0.00000  Uiso   1.00
H1286  H     0.50946   0.60797   0.06991   0.00000  Uiso   1.00
H1287  H     0.57225   0.61908   0.79470   0.00000  Uiso   1.00
H1288  H     0.53448   0.65022   0.06838   0.00000  Uiso   1.00
H1289  H     0.87203   0.50603   0.96973   0.00000  Uiso   1.00
H1290  H     0.85812   0.57286   0.97527   0.00000  Uiso   1.00
H1291  H     0.83085   0.56682   0.93193   0.00000  Uiso   1.00
H1292  H     0.87929   0.55884   0.93038   0.00000  Uiso   1.00
H1293  H     0.62816   0.98754   0.03054   0.00000  Uiso   1.00
H1294  H     0.64580   0.92121   0.02644   0.00000  Uiso   1.00
H1295  H     0.62354   0.93521   0.07070   0.00000  Uiso   1.00
H1296  H     0.67234   0.92977   0.06974   0.00000  Uiso   1.00
H1297  H     0.99005   0.62834   0.96972   0.00000  Uiso   1.00
H1298  H     0.61907   0.57225   0.79470   0.00000  Uiso   1.00
H1299  H     0.92352   0.64367   0.97517   0.00000  Uiso   1.00
H1300  H     0.93716   0.62217   0.93032   0.00000  Uiso   1.00
H1301  H     0.93020   0.67077   0.93180   0.00000  Uiso   1.00
H1302  H     0.51063   0.87163   0.03027   0.00000  Uiso   1.00
H1303  H     0.57710   0.85607   0.02481   0.00000  Uiso   1.00
H1304  H     0.57033   0.82898   0.06817   0.00000  Uiso   1.00
H1305  H     0.56356   0.87760   0.06967   0.00000  Uiso   1.00
H1306  H     0.55679   0.76348   0.40238   0.00000  Uiso   1.00
H1307  H     0.94326   0.73709   0.59759   0.00000  Uiso   1.00
H1308  H     0.73722   0.94306   0.40239   0.00000  Uiso   1.00
N1309  N     0.90239   0.72578   0.45865   0.00000  Uiso   1.00
N1310  N     0.84962   0.51406   0.04148   0.00000  Uiso   1.00
N1311  N     0.51788   0.84907   0.95855   0.00000  Uiso   1.00
N1312  N     0.98270   0.65088   0.04145   0.00000  Uiso   1.00
N1313  N     0.84894   0.51819   0.95864   0.00000  Uiso   1.00
N1314  N     0.65192   0.97668   0.04147   0.00000  Uiso   1.00
N1315  N     0.97839   0.65168   0.95862   0.00000  Uiso   1.00
N1316  N     0.52221   0.84825   0.04138   0.00000  Uiso   1.00
N1317  N     0.59651   0.77937   0.54147   0.00000  Uiso   1.00
N1318  N     0.77346   0.59778   0.45847   0.00000  Uiso   1.00
N1319  N     0.72551   0.90235   0.54153   0.00000  Uiso   1.00
N1320  N     0.59729   0.77609   0.45844   0.00000  Uiso   1.00
N1321  N     0.90149   0.72975   0.54149   0.00000  Uiso   1.00
N1322  N     0.72247   0.90309   0.45850   0.00000  Uiso   1.00
N1323  N     0.77648   0.59704   0.54149   0.00000  Uiso   1.00
N1324  N     0.65131   0.98014   0.95845   0.00000  Uiso   1.00
O1325  O     0.75000   0.50000   0.25000   0.00000  Uiso   1.00
O1326  O     0.75000   0.96963   0.66245   0.00000  Uiso   1.00
O1327  O     0.96963   0.75000   0.33755   0.00000  Uiso   1.00
O1328  O     0.53036   0.75000   0.66245   0.00000  Uiso   1.00
O1329  O     0.50000   0.71963   0.83755   0.00000  Uiso   1.00
O1330  O     0.50000   0.78037   0.16245   0.00000  Uiso   1.00
O1331  O     0.78036   0.50000   0.83755   0.00000  Uiso   1.00
O1332  O     0.71963   0.50000   0.16245   0.00000  Uiso   1.00
O1333  O     0.50000   0.78036   0.83755   0.00000  Uiso   1.00
O1334  O     0.50000   0.71964   0.16245   0.00000  Uiso   1.00
O1335  O     0.71963   0.50000   0.83755   0.00000  Uiso   1.00
O1336  O     0.75000   0.50000   0.75000   0.00000  Uiso   1.00
O1337  O     0.78036   0.50000   0.16245   0.00000  Uiso   1.00
O1338  O     0.70724   0.57308   0.27302   0.00000  Uiso   1.00
O1339  O     0.79275   0.92692   0.72698   0.00000  Uiso   1.00
O1340  O     0.92692   0.70725   0.27302   0.00000  Uiso   1.00
O1341  O     0.57307   0.79275   0.72698   0.00000  Uiso   1.00
O1342  O     0.79275   0.92692   0.27302   0.00000  Uiso   1.00
O1343  O     0.70724   0.57308   0.72698   0.00000  Uiso   1.00
O1344  O     0.57307   0.79275   0.27302   0.00000  Uiso   1.00
O1345  O     0.92692   0.70725   0.72698   0.00000  Uiso   1.00
O1346  O     0.70724   0.92692   0.72698   0.00000  Uiso   1.00
O1347  O     0.50000   0.75000   0.25000   0.00000  Uiso   1.00
O1348  O     0.79275   0.57308   0.27302   0.00000  Uiso   1.00
O1349  O     0.92692   0.79276   0.72698   0.00000  Uiso   1.00
O1350  O     0.57307   0.70724   0.27302   0.00000  Uiso   1.00
O1351  O     0.79275   0.57308   0.72698   0.00000  Uiso   1.00
O1352  O     0.70724   0.92692   0.27302   0.00000  Uiso   1.00
O1353  O     0.57307   0.70724   0.72698   0.00000  Uiso   1.00
O1354  O     0.92692   0.79276   0.27302   0.00000  Uiso   1.00
O1355  O     0.95724   0.82308   0.77302   0.00000  Uiso   1.00
O1356  O     0.54275   0.67692   0.22698   0.00000  Uiso   1.00
O1357  O     0.67692   0.95724   0.77302   0.00000  Uiso   1.00
O1358  O     0.50000   0.75000   0.75000   0.00000  Uiso   1.00
O1359  O     0.82307   0.54276   0.22698   0.00000  Uiso   1.00
O1360  O     0.54275   0.67692   0.77302   0.00000  Uiso   1.00
O1361  O     0.95724   0.82308   0.22698   0.00000  Uiso   1.00
O1362  O     0.82307   0.54276   0.77302   0.00000  Uiso   1.00
O1363  O     0.67692   0.95724   0.22698   0.00000  Uiso   1.00
O1364  O     0.95724   0.67693   0.22698   0.00000  Uiso   1.00
O1365  O     0.54275   0.82307   0.77302   0.00000  Uiso   1.00
O1366  O     0.67692   0.54276   0.22698   0.00000  Uiso   1.00
O1367  O     0.82307   0.95724   0.77302   0.00000  Uiso   1.00
O1368  O     0.54275   0.82307   0.22698   0.00000  Uiso   1.00
O1369  O     0.75000   0.96963   0.33755   0.00000  Uiso   1.00
O1370  O     0.95724   0.67693   0.77302   0.00000  Uiso   1.00
O1371  O     0.82307   0.95724   0.22698   0.00000  Uiso   1.00
O1372  O     0.67692   0.54276   0.77302   0.00000  Uiso   1.00
O1373  O     0.75000   0.53037   0.66245   0.00000  Uiso   1.00
O1374  O     0.53036   0.75000   0.33755   0.00000  Uiso   1.00
O1375  O     0.96963   0.75000   0.66245   0.00000  Uiso   1.00
O1376  O     0.75000   0.53037   0.33755   0.00000  Uiso   1.00
Zn1377 Zn    0.70659   0.50000   0.21735   0.00000  Uiso   1.00
Zn1378 Zn    0.54340   0.75000   0.28265   0.00000  Uiso   1.00
Zn1379 Zn    0.75000   0.95659   0.71735   0.00000  Uiso   1.00
Zn1380 Zn    0.75000   0.54341   0.28265   0.00000  Uiso   1.00
Zn1381 Zn    0.54340   0.75000   0.71735   0.00000  Uiso   1.00
Zn1382 Zn    0.95659   0.75000   0.28265   0.00000  Uiso   1.00
Zn1383 Zn    0.75000   0.54341   0.71735   0.00000  Uiso   1.00
Zn1384 Zn    0.75000   0.95659   0.28265   0.00000  Uiso   1.00
Zn1385 Zn    0.79340   0.50000   0.78265   0.00000  Uiso   1.00
Zn1386 Zn    0.50000   0.70659   0.21735   0.00000  Uiso   1.00
Zn1387 Zn    0.50000   0.79340   0.78265   0.00000  Uiso   1.00
Zn1388 Zn    0.79340   0.50000   0.21735   0.00000  Uiso   1.00
Zn1389 Zn    0.70659   0.50000   0.78265   0.00000  Uiso   1.00
Zn1390 Zn    0.50000   0.79340   0.21735   0.00000  Uiso   1.00
Zn1391 Zn    0.50000   0.70660   0.78265   0.00000  Uiso   1.00
Zn1392 Zn    0.95659   0.75000   0.71735   0.00000  Uiso   1.00
loop_
_geom_bond_atom_site_label_1
_geom_bond_atom_site_label_2
_geom_bond_distance
_geom_bond_site_symmetry_2
_ccdc_geom_bond_type
C1     H262    1.082   .     S
C1     C4      1.400   .     A
C1     C410    1.396   1_455 S
C2     C14     1.400   .     A
C2     C68     1.396   .     A
C2     H161    1.083   .     S
C3     C131    1.400   .     A
C3     C74     1.413   .     A
C3     C734    1.417   .     S
C4     C75     1.413   .     A
C4     C382    1.417   1_455 S
C5     C36     1.417   .     A
C5     C77     1.413   .     A
C5     C65     1.399   .     A
C6     C78     1.414   .     A
C6     C76     1.400   .     A
C6     C733    1.417   .     S
C7     C79     1.414   .     A
C7     C87     1.400   .     A
C7     C38     1.417   .     A
C8     C35     1.400   .     A
C8     C39     1.417   .     A
C8     C80     1.413   .     A
C9     C46     1.399   .     A
C9     C81     1.413   .     A
C9     C736    1.417   1_545 S
C10    C82     1.413   .     A
C10    C57     1.400   .     A
C10    C389    1.417   1_455 S
C11    C61     1.400   .     A
C11    C83     1.413   .     A
C11    C390    1.417   .     S
C12    C84     1.413   .     A
C12    C142    1.399   .     A
C12    C735    1.417   1_545 S
C13    C69     1.396   .     A
C13    H162    1.083   .     S
C13    C15     1.400   .     A
C14    C85     1.414   .     A
C14    C40     1.417   .     A
C15    C41     1.417   .     A
C15    C86     1.413   .     A
C16    C88     1.413   .     A
C16    C42     1.417   .     A
C16    C24     1.400   .     A
C17    C104    1.454   .     S
C17    C132    1.402   .     A
C17    C134    1.402   .     A
C18    C133    1.402   .     A
C18    C130    1.402   .     A
C18    C105    1.454   .     S
C19    C129    1.402   .     A
C19    C136    1.402   .     A
C19    C97     1.455   .     S
C20    C99     1.455   .     S
C20    C128    1.402   .     A
C20    C135    1.402   .     A
C21    C138    1.402   .     A
C21    C127    1.402   .     A
C21    C100    1.454   .     S
C22    C137    1.402   .     A
C22    C101    1.454   .     S
C22    C126    1.402   .     A
C23    C140    1.402   .     A
C23    C102    1.455   .     S
C23    C125    1.402   .     A
C24    C70     1.396   .     A
C24    H163    1.083   .     S
C25    C139    1.402   .     A
C25    C103    1.455   .     S
C25    C124    1.402   .     A
C26    C123    1.402   .     A
C26    C143    1.402   .     A
C26    C113    1.455   .     S
C27    C141    1.402   .     A
C27    C122    1.402   .     A
C27    C114    1.455   .     S
C28    C145    1.402   .     A
C28    C106    1.454   .     S
C28    C121    1.402   .     A
C29    C119    1.402   .     A
C29    C144    1.402   .     A
C29    C107    1.454   .     S
C30    C118    1.402   .     A
C30    C147    1.402   .     A
C30    C108    1.455   .     S
C31    C110    1.455   .     S
C31    C117    1.402   .     A
C31    C146    1.402   .     A
C32    C116    1.402   .     A
C32    C111    1.454   .     S
C32    C149    1.402   .     A
C33    C115    1.402   .     A
C33    C148    1.402   .     A
C33    C112    1.454   .     S
C34    C36     1.402   .     A
C34    C150    1.417   .     A
C34    C352    1.417   .     S
C35    C67     1.396   .     A
C35    H164    1.082   .     S
C36    C499    1.417   .     S
C37    C38     1.402   .     A
C37    C152    1.417   .     A
C37    C702    1.417   1_545 S
C38    C699    1.417   1_545 S
C39    C708    1.417   .     S
C39    C40     1.402   1_556 S
C40    C705    1.417   .     S
C40    C39     1.402   1_554 S
C41    C358    1.417   .     S
C41    C390    1.402   1_556 S
C42    C359    1.417   1_455 S
C42    C389    1.402   1_454 S
C43    H194    1.111   .     S
C43    H195    1.110   .     S
C43    H193    1.111   .     S
C43    N265    1.448   .     S
C44    H198    1.110   .     S
C44    H200    1.111   .     S
C44    N273    1.448   .     S
C44    H197    1.109   .     S
C45    N274    1.449   .     S
C45    H203    1.110   .     S
C45    H202    1.111   .     S
C45    H204    1.113   .     S
C46    H166    1.083   .     S
C46    C764    1.396   1_545 S
C47    H208    1.110   .     S
C47    H206    1.111   .     S
C47    N275    1.449   .     S
C47    H207    1.113   .     S
C48    H212    1.113   .     S
C48    H213    1.110   .     S
C48    N276    1.449   .     S
C48    H211    1.111   .     S
C49    H217    1.110   .     S
C49    H215    1.111   .     S
C49    N277    1.447   .     S
C49    H216    1.111   .     S
C50    H222    1.111   .     S
C50    H219    1.109   .     S
C50    N278    1.448   .     S
C50    H220    1.110   .     S
C51    H226    1.110   .     S
C51    H224    1.109   .     S
C51    H225    1.111   .     S
C51    N279    1.448   .     S
C52    H229    1.113   .     S
C52    H228    1.110   .     S
C52    H230    1.110   .     S
C52    N280    1.448   .     S
C53    H233    1.111   .     S
C53    H234    1.111   .     S
C53    H235    1.110   .     S
C53    N962    1.447   .     S
C54    H239    1.110   .     S
C54    H238    1.111   .     S
C54    H237    1.111   .     S
C54    N615    1.447   .     S
C55    H241    1.111   .     S
C55    H244    1.111   .     S
C55    H242    1.110   .     S
C55    N616    1.447   1_455 S
C56    H248    1.110   .     S
C56    N269    1.448   .     S
C56    H247    1.111   .     S
C56    H246    1.111   .     S
C57    H167    1.083   .     S
C57    C417    1.396   1_455 S
C58    N270    1.448   .     S
C58    H251    1.110   .     S
C58    H252    1.111   .     S
C58    H250    1.109   .     S
C59    H255    1.111   .     S
C59    H256    1.110   .     S
C59    H257    1.111   .     S
C59    N271    1.448   .     S
C60    H260    1.111   .     S
C60    H259    1.111   .     S
C60    N272    1.448   .     S
C60    H261    1.110   .     S
C61    H168    1.083   .     S
C61    C418    1.396   .     S
C62    C98     1.396   .     A
C62    C349    1.396   .     S
C62    C439    1.463   .     S
C63    C65     1.396   .     A
C63    C440    1.462   .     S
C63    C457    1.396   .     S
C64    C120    1.396   .     A
C64    C772    1.396   1_545 S
C64    C89     1.462   .     S
C65    H263    1.083   .     S
C66    C131    1.396   .     A
C66    C786    1.462   .     S
C66    C783    1.396   .     S
C67    C95     1.463   .     S
C67    C838    1.396   .     S
C68    C96     1.463   .     S
C68    C742    1.396   .     S
C69    C93     1.462   .     S
C69    C405    1.396   .     S
C70    C94     1.462   .     S
C70    C409    1.396   1_455 S
C71    C150    1.413   .     A
C71    C77     1.411   .     A
C71    N265    1.427   .     S
C72    C151    1.414   .     A
C72    C75     1.412   .     A
C72    N273    1.428   .     S
C73    N274    1.427   .     S
C73    C79     1.411   .     A
C73    C152    1.413   .     A
C74    N275    1.427   .     S
C74    C78     1.411   .     A
C75    N276    1.427   .     S
C76    H264    1.083   .     S
C76    C760    1.396   .     S
C77    N277    1.427   .     S
C78    N278    1.428   .     S
C79    N279    1.428   .     S
C80    N280    1.427   .     S
C80    C85     1.411   1_556 S
C81    N266    1.427   .     S
C81    C84     1.411   1_554 S
C82    N267    1.427   .     S
C82    C88     1.411   1_556 S
C83    N268    1.427   .     S
C83    C86     1.411   1_554 S
C84    N269    1.427   .     S
C84    C81     1.411   1_556 S
C85    N270    1.428   .     S
C85    C80     1.411   1_554 S
C86    N271    1.427   .     S
C86    C83     1.411   1_556 S
C87    H155    1.083   .     S
C87    C762    1.396   1_545 S
C88    N272    1.427   .     S
C88    C82     1.411   1_554 S
C89    O1021   1.281   1_545 A
C89    O332    1.281   .     S
C90    O978    1.281   1_545 A
C90    C762    1.462   1_545 S
C90    O329    1.281   .     S
C91    O330    1.281   .     A
C91    C410    1.463   1_455 S
C91    O631    1.281   1_455 S
C92    O679    1.281   1_455 A
C92    C411    1.462   1_455 S
C92    O284    1.281   .     S
C93    O633    1.281   .     S
C93    O637    1.281   .     S
C94    O286    1.281   .     S
C94    O290    1.281   .     S
C95    O983    1.281   .     S
C95    O987    1.281   .     S
C96    O984    1.281   .     S
C96    O989    1.281   .     S
C97    O294    1.282   .     A
C97    O322    1.282   .     A
C98    H156    1.083   .     S
C98    C150    1.400   .     A
C99    O323    1.282   .     A
C99    O295    1.282   .     A
C100   O296    1.282   .     A
C100   O320    1.282   .     A
C101   O297    1.282   .     A
C101   O321    1.282   .     A
C102   O327    1.282   .     A
C102   O298    1.282   .     A
C103   O299    1.282   .     A
C103   O328    1.282   .     A
C104   O300    1.282   .     A
C104   O324    1.282   .     A
C105   O301    1.282   .     A
C105   O326    1.282   .     A
C106   O313    1.282   .     A
C106   O302    1.282   .     A
C107   O315    1.282   .     A
C107   O304    1.282   .     A
C108   O311    1.282   .     A
C108   O305    1.282   .     A
C109   C151    1.400   .     A
C109   H157    1.083   .     S
C109   C411    1.396   1_455 S
C110   O312    1.282   .     A
C110   O306    1.282   .     A
C111   O307    1.282   .     A
C111   O318    1.282   .     A
C112   O319    1.282   .     A
C112   O308    1.282   .     A
C113   O309    1.282   .     A
C113   O316    1.282   .     A
C114   O317    1.282   .     A
C114   O310    1.282   .     A
C115   C132    1.386   .     A
C115   H153    1.083   .     S
C116   C130    1.386   .     A
C116   H177    1.083   .     S
C117   C129    1.386   .     A
C117   H188    1.083   .     S
C118   C128    1.386   .     A
C118   H199    1.083   .     S
C119   H210    1.083   .     S
C119   C127    1.386   .     A
C120   H158    1.082   .     S
C120   C152    1.400   .     A
C121   H221    1.083   .     S
C121   C126    1.386   .     A
C122   C125    1.386   .     A
C122   H232    1.083   .     S
C123   H243    1.083   .     S
C123   C124    1.386   .     A
C124   H254    1.083   .     S
C125   H154    1.083   .     S
C126   H165    1.083   .     S
C127   H169    1.083   .     S
C128   H170    1.083   .     S
C129   H171    1.083   .     S
C130   H172    1.083   .     S
C131   H159    1.082   .     S
C132   H173    1.083   .     S
C133   H174    1.083   .     S
C133   C149    1.386   .     A
C134   H175    1.083   .     S
C134   C148    1.386   .     A
C135   C147    1.386   .     A
C135   H176    1.083   .     S
C136   C146    1.386   .     A
C136   H178    1.083   .     S
C137   H179    1.083   .     S
C137   C145    1.386   .     A
C138   C144    1.386   .     A
C138   H180    1.083   .     S
C139   H181    1.083   .     S
C139   C143    1.386   .     A
C140   C141    1.386   .     A
C140   H182    1.083   .     S
C141   H183    1.083   .     S
C142   H160    1.083   .     S
C142   C763    1.396   1_545 S
C143   H184    1.083   .     S
C144   H185    1.083   .     S
C145   H186    1.083   .     S
C146   H187    1.083   .     S
C147   H189    1.083   .     S
C148   H190    1.083   .     S
C149   H191    1.083   .     S
C151   C384    1.417   1_455 S
H192   N265    1.030   .     S
H196   N273    1.029   .     S
H201   N274    1.030   .     S
H205   N275    1.030   .     S
H209   N276    1.030   .     S
H214   N277    1.030   .     S
H218   N278    1.029   .     S
H223   N279    1.029   .     S
H227   N280    1.030   .     S
H231   N266    1.030   .     S
H236   N267    1.030   .     S
H240   N268    1.030   .     S
H245   N269    1.030   .     S
H249   N270    1.029   .     S
H253   N271    1.030   .     S
H258   N272    1.030   .     S
N266   C749    1.447   1_545 S
N267   C402    1.447   1_455 S
N268   C403    1.447   .     S
O281   Zn336   1.948   .     S
O281   Zn333   1.948   .     S
O281   Zn344   1.948   .     S
O281   Zn1036  1.948   1_545 S
O282   C786    1.281   .     A
O282   Zn335   1.951   .     S
O283   Zn338   1.951   .     S
O283   C439    1.281   .     S
O284   Zn337   1.951   .     S
O285   C441    1.281   1_455 S
O285   Zn347   1.951   .     S
O286   Zn346   1.951   .     S
O287   Zn341   1.951   .     S
O287   C791    1.281   1_545 S
O288   Zn333   1.951   .     S
O288   C792    1.281   1_545 S
O289   Zn343   1.951   .     S
O289   C441    1.281   1_455 S
O290   Zn342   1.951   .     S
O291   Zn345   1.951   .     S
O291   C791    1.281   1_545 S
O292   Zn339   1.948   .     S
O292   Zn341   1.948   .     S
O292   Zn345   1.948   .     S
O292   Zn1031  1.948   1_545 S
O293   Zn344   1.951   .     S
O293   C792    1.281   1_545 S
O294   Zn336   1.937   .     S
O295   Zn335   1.937   .     S
O296   Zn338   1.935   .     S
O297   Zn337   1.935   .     S
O298   Zn340   1.937   .     S
O299   Zn339   1.937   .     S
O300   Zn334   1.935   .     S
O301   Zn348   1.935   .     S
O302   Zn335   1.935   .     S
O303   Zn342   1.948   .     S
O303   Zn346   1.948   .     S
O303   Zn334   1.948   .     S
O303   Zn686   1.948   1_455 S
O304   Zn336   1.935   .     S
O305   Zn348   1.936   .     S
O306   Zn334   1.936   .     S
O307   Zn339   1.935   .     S
O308   Zn340   1.935   .     S
O309   Zn337   1.937   .     S
O310   Zn338   1.937   .     S
O311   Zn691   1.937   .     S
O312   Zn342   1.937   .     S
O313   Zn1041  1.935   .     S
O314   Zn337   1.948   .     S
O314   Zn343   1.948   .     S
O314   Zn347   1.948   .     S
O314   Zn696   1.948   1_455 S
O315   Zn344   1.935   .     S
O316   Zn347   1.937   .     S
O317   Zn694   1.937   .     S
O318   Zn341   1.935   .     S
O319   Zn1029  1.935   .     S
O320   Zn690   1.935   .     S
O321   Zn343   1.935   .     S
O322   Zn333   1.936   .     S
O323   Zn1037  1.936   .     S
O324   Zn346   1.935   .     S
O325   C785    1.281   .     A
O325   Zn340   1.951   .     S
O326   Zn695   1.935   .     S
O327   Zn1040  1.937   .     S
O328   Zn345   1.937   .     S
O329   Zn339   1.951   .     S
O330   Zn334   1.951   .     S
O331   Zn348   1.951   .     S
O331   C440    1.281   .     A
O332   Zn336   1.951   .     S
Zn333  O1015   1.935   1_545 S
Zn335  O988    1.948   .     S
Zn338  O651    1.948   .     S
Zn340  O977    1.948   .     S
Zn341  O1019   1.936   1_545 S
Zn342  O668    1.935   1_455 S
Zn343  O659    1.937   1_455 S
Zn344  O1023   1.937   1_545 S
Zn345  O1009   1.935   1_545 S
Zn346  O665    1.937   1_455 S
Zn347  O674    1.935   1_455 S
Zn348  O662    1.948   .     S
C349   H610    1.082   .     S
C349   C352    1.400   .     A
C350   C362    1.400   .     A
C350   C416    1.396   .     A
C350   H509    1.083   .     S
C351   C479    1.400   .     A
C351   C422    1.413   .     A
C351   C1082   1.417   .     S
C352   C423    1.413   .     A
C353   C384    1.417   .     A
C353   C425    1.413   .     A
C353   C413    1.399   .     A
C354   C426    1.414   .     A
C354   C424    1.400   .     A
C354   C1081   1.417   .     S
C355   C427    1.414   .     A
C355   C435    1.400   .     A
C355   C386    1.417   .     A
C356   C383    1.400   .     A
C356   C387    1.417   .     A
C356   C428    1.413   .     A
C357   C394    1.399   .     A
C357   C429    1.413   .     A
C357   C1084   1.417   1_545 S
C358   C430    1.413   .     A
C358   C405    1.400   .     A
C359   C409    1.400   .     A
C359   C431    1.413   .     A
C359   C42     1.417   1_655 S
C360   C432    1.413   .     A
C360   C490    1.399   .     A
C360   C1083   1.417   1_545 S
C361   C417    1.396   .     A
C361   H510    1.083   .     S
C361   C363    1.400   .     A
C362   C433    1.414   .     A
C362   C388    1.417   .     A
C363   C389    1.417   .     A
C363   C434    1.413   .     A
C364   C436    1.413   .     A
C364   C390    1.417   .     A
C364   C372    1.400   .     A
C365   C452    1.454   .     S
C365   C480    1.402   .     A
C365   C482    1.402   .     A
C366   C481    1.402   .     A
C366   C478    1.402   .     A
C366   C453    1.454   .     S
C367   C477    1.402   .     A
C367   C484    1.402   .     A
C367   C445    1.455   .     S
C368   C447    1.455   .     S
C368   C476    1.402   .     A
C368   C483    1.402   .     A
C369   C486    1.402   .     A
C369   C475    1.402   .     A
C369   C448    1.454   .     S
C370   C485    1.402   .     A
C370   C449    1.454   .     S
C370   C474    1.402   .     A
C371   C488    1.402   .     A
C371   C450    1.455   .     S
C371   C473    1.402   .     A
C372   C418    1.396   .     A
C372   H511    1.083   .     S
C373   C487    1.402   .     A
C373   C451    1.455   .     S
C373   C472    1.402   .     A
C374   C471    1.402   .     A
C374   C491    1.402   .     A
C374   C461    1.455   .     S
C375   C489    1.402   .     A
C375   C470    1.402   .     A
C375   C462    1.455   .     S
C376   C493    1.402   .     A
C376   C454    1.454   .     S
C376   C469    1.402   .     A
C377   C467    1.402   .     A
C377   C492    1.402   .     A
C377   C455    1.454   .     S
C378   C466    1.402   .     A
C378   C495    1.402   .     A
C378   C456    1.455   .     S
C379   C458    1.455   .     S
C379   C465    1.402   .     A
C379   C494    1.402   .     A
C380   C464    1.402   .     A
C380   C459    1.454   .     S
C380   C497    1.402   .     A
C381   C463    1.402   .     A
C381   C496    1.402   .     A
C381   C460    1.454   .     S
C382   C384    1.402   .     A
C382   C498    1.417   .     A
C382   C4      1.417   1_655 S
C383   C415    1.396   .     A
C383   H512    1.082   .     S
C384   C151    1.417   1_655 S
C385   C386    1.402   .     A
C385   C500    1.417   .     A
C385   C1050   1.417   1_545 S
C386   C1047   1.417   1_545 S
C387   C1056   1.417   .     S
C387   C388    1.402   1_556 S
C388   C1053   1.417   .     S
C388   C387    1.402   1_554 S
C389   C10     1.417   1_655 S
C389   C42     1.402   1_656 S
C390   C41     1.402   1_554 S
C391   H542    1.111   .     S
C391   H543    1.110   .     S
C391   H541    1.111   .     S
C391   N613    1.448   .     S
C392   H546    1.110   .     S
C392   H548    1.111   .     S
C392   N621    1.448   .     S
C392   H545    1.109   .     S
C393   N622    1.449   .     S
C393   H551    1.110   .     S
C393   H550    1.111   .     S
C393   H552    1.113   .     S
C394   H514    1.083   .     S
C394   C1112   1.396   1_545 S
C395   H556    1.110   .     S
C395   H554    1.111   .     S
C395   N623    1.449   .     S
C395   H555    1.113   .     S
C396   H560    1.113   .     S
C396   H561    1.110   .     S
C396   N624    1.449   .     S
C396   H559    1.111   .     S
C397   H565    1.110   .     S
C397   H563    1.111   .     S
C397   N625    1.447   .     S
C397   H564    1.111   .     S
C398   H570    1.111   .     S
C398   H567    1.109   .     S
C398   N626    1.448   .     S
C398   H568    1.110   .     S
C399   H574    1.110   .     S
C399   H572    1.109   .     S
C399   H573    1.111   .     S
C399   N627    1.448   .     S
C400   H577    1.113   .     S
C400   H576    1.110   .     S
C400   H578    1.110   .     S
C400   N628    1.448   .     S
C401   H581    1.111   .     S
C401   H582    1.111   .     S
C401   H583    1.110   .     S
C401   N1310   1.447   .     S
C402   H587    1.110   .     S
C402   H586    1.111   .     S
C402   H585    1.111   .     S
C402   N267    1.447   1_655 S
C403   H589    1.111   .     S
C403   H592    1.111   .     S
C403   H590    1.110   .     S
C404   H596    1.110   .     S
C404   N617    1.448   .     S
C404   H595    1.111   .     S
C404   H594    1.111   .     S
C405   H515    1.083   .     S
C406   N618    1.448   .     S
C406   H599    1.110   .     S
C406   H600    1.111   .     S
C406   H598    1.109   .     S
C407   H603    1.111   .     S
C407   H604    1.110   .     S
C407   H605    1.111   .     S
C407   N619    1.448   .     S
C408   H608    1.111   .     S
C408   H607    1.111   .     S
C408   N620    1.448   .     S
C408   H609    1.110   .     S
C409   H516    1.083   .     S
C409   C70     1.396   1_655 S
C410   C446    1.396   .     A
C410   C1      1.396   1_655 S
C410   C91     1.463   1_655 S
C411   C413    1.396   .     A
C411   C92     1.462   1_655 S
C411   C109    1.396   1_655 S
C412   C468    1.396   .     A
C412   C1120   1.396   1_545 S
C412   C437    1.462   .     S
C413   H611    1.083   .     S
C414   C479    1.396   .     A
C414   C1134   1.462   .     S
C414   C1131   1.396   .     S
C415   C443    1.463   .     S
C415   C1186   1.396   .     S
C416   C444    1.463   .     S
C416   C1090   1.396   .     S
C417   C441    1.462   .     S
C417   C57     1.396   1_655 S
C418   C442    1.462   .     S
C419   C498    1.413   .     A
C419   C425    1.411   .     A
C419   N613    1.427   .     S
C420   C499    1.414   .     A
C420   C423    1.412   .     A
C420   N621    1.428   .     S
C421   N622    1.427   .     S
C421   C427    1.411   .     A
C421   C500    1.413   .     A
C422   N623    1.427   .     S
C422   C426    1.411   .     A
C423   N624    1.427   .     S
C424   H612    1.083   .     S
C424   C1108   1.396   .     S
C425   N625    1.427   .     S
C426   N626    1.428   .     S
C427   N627    1.428   .     S
C428   N628    1.427   .     S
C428   C433    1.411   1_556 S
C429   N614    1.427   .     S
C429   C432    1.411   1_554 S
C430   N615    1.427   .     S
C430   C436    1.411   1_556 S
C431   N616    1.427   .     S
C431   C434    1.411   1_554 S
C432   N617    1.427   .     S
C432   C429    1.411   1_556 S
C433   N618    1.428   .     S
C433   C428    1.411   1_554 S
C434   N619    1.427   .     S
C434   C431    1.411   1_556 S
C435   H503    1.083   .     S
C435   C1110   1.396   1_545 S
C436   N620    1.427   .     S
C436   C430    1.411   1_554 S
C437   O1369   1.281   1_545 A
C437   O680    1.281   .     S
C438   O1326   1.281   1_545 A
C438   C1110   1.462   1_545 S
C438   O677    1.281   .     S
C439   O678    1.281   .     A
C440   O632    1.281   .     S
C441   O285    1.281   1_655 S
C441   O289    1.281   1_655 S
C442   O634    1.281   .     S
C442   O638    1.281   .     S
C443   O1331   1.281   .     S
C443   O1335   1.281   .     S
C444   O1332   1.281   .     S
C444   O1337   1.281   .     S
C445   O642    1.282   .     A
C445   O670    1.282   .     A
C446   H504    1.083   .     S
C446   C498    1.400   .     A
C447   O671    1.282   .     A
C447   O643    1.282   .     A
C448   O644    1.282   .     A
C448   O668    1.282   .     A
C449   O645    1.282   .     A
C449   O669    1.282   .     A
C450   O675    1.282   .     A
C450   O646    1.282   .     A
C451   O647    1.282   .     A
C451   O676    1.282   .     A
C452   O648    1.282   .     A
C452   O672    1.282   .     A
C453   O649    1.282   .     A
C453   O674    1.282   .     A
C454   O661    1.282   .     A
C454   O650    1.282   .     A
C455   O663    1.282   .     A
C455   O652    1.282   .     A
C456   O659    1.282   .     A
C456   O653    1.282   .     A
C457   C499    1.400   .     A
C457   H505    1.083   .     S
C458   O660    1.282   .     A
C458   O654    1.282   .     A
C459   O655    1.282   .     A
C459   O666    1.282   .     A
C460   O667    1.282   .     A
C460   O656    1.282   .     A
C461   O657    1.282   .     A
C461   O664    1.282   .     A
C462   O665    1.282   .     A
C462   O658    1.282   .     A
C463   C480    1.386   .     A
C463   H501    1.083   .     S
C464   C478    1.386   .     A
C464   H525    1.083   .     S
C465   C477    1.386   .     A
C465   H536    1.083   .     S
C466   C476    1.386   .     A
C466   H547    1.083   .     S
C467   H558    1.083   .     S
C467   C475    1.386   .     A
C468   H506    1.082   .     S
C468   C500    1.400   .     A
C469   H569    1.083   .     S
C469   C474    1.386   .     A
C470   C473    1.386   .     A
C470   H580    1.083   .     S
C471   H591    1.083   .     S
C471   C472    1.386   .     A
C472   H602    1.083   .     S
C473   H502    1.083   .     S
C474   H513    1.083   .     S
C475   H517    1.083   .     S
C476   H518    1.083   .     S
C477   H519    1.083   .     S
C478   H520    1.083   .     S
C479   H507    1.082   .     S
C480   H521    1.083   .     S
C481   H522    1.083   .     S
C481   C497    1.386   .     A
C482   H523    1.083   .     S
C482   C496    1.386   .     A
C483   C495    1.386   .     A
C483   H524    1.083   .     S
C484   C494    1.386   .     A
C484   H526    1.083   .     S
C485   H527    1.083   .     S
C485   C493    1.386   .     A
C486   C492    1.386   .     A
C486   H528    1.083   .     S
C487   H529    1.083   .     S
C487   C491    1.386   .     A
C488   C489    1.386   .     A
C488   H530    1.083   .     S
C489   H531    1.083   .     S
C490   H508    1.083   .     S
C490   C1111   1.396   1_545 S
C491   H532    1.083   .     S
C492   H533    1.083   .     S
C493   H534    1.083   .     S
C494   H535    1.083   .     S
C495   H537    1.083   .     S
C496   H538    1.083   .     S
C497   H539    1.083   .     S
H540   N613    1.030   .     S
H544   N621    1.029   .     S
H549   N622    1.030   .     S
H553   N623    1.030   .     S
H557   N624    1.030   .     S
H562   N625    1.030   .     S
H566   N626    1.029   .     S
H571   N627    1.029   .     S
H575   N628    1.030   .     S
H579   N614    1.030   .     S
H584   N615    1.030   .     S
H588   N616    1.030   .     S
H593   N617    1.030   .     S
H597   N618    1.029   .     S
H601   N619    1.030   .     S
H606   N620    1.030   .     S
N614   C1097   1.447   1_545 S
N616   C55     1.447   1_655 S
O629   Zn684   1.948   .     S
O629   Zn681   1.948   .     S
O629   Zn692   1.948   .     S
O629   Zn1384  1.948   1_545 S
O630   C1134   1.281   .     A
O630   Zn683   1.951   .     S
O631   Zn686   1.951   .     S
O631   C91     1.281   1_655 S
O632   Zn685   1.951   .     S
O633   Zn695   1.951   .     S
O634   Zn694   1.951   .     S
O635   Zn689   1.951   .     S
O635   C1139   1.281   1_545 S
O636   Zn681   1.951   .     S
O636   C1140   1.281   1_545 S
O637   Zn691   1.951   .     S
O638   Zn690   1.951   .     S
O639   Zn693   1.951   .     S
O639   C1139   1.281   1_545 S
O640   Zn687   1.948   .     S
O640   Zn689   1.948   .     S
O640   Zn693   1.948   .     S
O640   Zn1379  1.948   1_545 S
O641   Zn692   1.951   .     S
O641   C1140   1.281   1_545 S
O642   Zn684   1.937   .     S
O643   Zn683   1.937   .     S
O644   Zn686   1.935   .     S
O645   Zn685   1.935   .     S
O646   Zn688   1.937   .     S
O647   Zn687   1.937   .     S
O648   Zn682   1.935   .     S
O649   Zn696   1.935   .     S
O650   Zn683   1.935   .     S
O651   Zn690   1.948   .     S
O651   Zn694   1.948   .     S
O651   Zn682   1.948   .     S
O652   Zn684   1.935   .     S
O653   Zn696   1.936   .     S
O654   Zn682   1.936   .     S
O655   Zn687   1.935   .     S
O656   Zn688   1.935   .     S
O657   Zn685   1.937   .     S
O658   Zn686   1.937   .     S
O659   Zn343   1.937   1_655 S
O660   Zn690   1.937   .     S
O661   Zn1389  1.935   .     S
O662   Zn685   1.948   .     S
O662   Zn691   1.948   .     S
O662   Zn695   1.948   .     S
O663   Zn692   1.935   .     S
O664   Zn695   1.937   .     S
O665   Zn346   1.937   1_655 S
O666   Zn689   1.935   .     S
O667   Zn1377  1.935   .     S
O668   Zn342   1.935   1_655 S
O669   Zn691   1.935   .     S
O670   Zn681   1.936   .     S
O671   Zn1385  1.936   .     S
O672   Zn694   1.935   .     S
O673   C1133   1.281   .     A
O673   Zn688   1.951   .     S
O674   Zn347   1.935   1_655 S
O675   Zn1388  1.937   .     S
O676   Zn693   1.937   .     S
O677   Zn687   1.951   .     S
O678   Zn682   1.951   .     S
O679   Zn696   1.951   .     S
O679   C92     1.281   1_655 A
O680   Zn684   1.951   .     S
Zn681  O1363   1.935   1_545 S
Zn683  O1336   1.948   .     S
Zn686  O303    1.948   1_655 S
Zn688  O1325   1.948   .     S
Zn689  O1367   1.936   1_545 S
Zn692  O1371   1.937   1_545 S
Zn693  O1357   1.935   1_545 S
Zn696  O314    1.948   1_655 S
C697   H958    1.082   .     S
C697   C700    1.400   .     A
C697   C1106   1.396   1_455 S
C698   C710    1.400   .     A
C698   C764    1.396   .     A
C698   H857    1.083   .     S
C699   C827    1.400   .     A
C699   C770    1.413   .     A
C699   C38     1.417   1_565 S
C700   C771    1.413   .     A
C700   C1078   1.417   1_455 S
C701   C732    1.417   .     A
C701   C773    1.413   .     A
C701   C761    1.399   .     A
C702   C774    1.414   .     A
C702   C772    1.400   .     A
C702   C37     1.417   1_565 S
C703   C775    1.414   .     A
C703   C783    1.400   .     A
C703   C734    1.417   .     A
C704   C731    1.400   .     A
C704   C735    1.417   .     A
C704   C776    1.413   .     A
C705   C742    1.399   .     A
C705   C777    1.413   .     A
C706   C778    1.413   .     A
C706   C753    1.400   .     A
C706   C1085   1.417   1_455 S
C707   C757    1.400   .     A
C707   C779    1.413   .     A
C707   C1086   1.417   .     S
C708   C780    1.413   .     A
C708   C838    1.399   .     A
C709   C765    1.396   .     A
C709   H858    1.083   .     S
C709   C711    1.400   .     A
C710   C781    1.414   .     A
C710   C736    1.417   .     A
C711   C737    1.417   .     A
C711   C782    1.413   .     A
C712   C784    1.413   .     A
C712   C738    1.417   .     A
C712   C720    1.400   .     A
C713   C800    1.454   .     S
C713   C828    1.402   .     A
C713   C830    1.402   .     A
C714   C829    1.402   .     A
C714   C826    1.402   .     A
C714   C801    1.454   .     S
C715   C825    1.402   .     A
C715   C832    1.402   .     A
C715   C793    1.455   .     S
C716   C795    1.455   .     S
C716   C824    1.402   .     A
C716   C831    1.402   .     A
C717   C834    1.402   .     A
C717   C823    1.402   .     A
C717   C796    1.454   .     S
C718   C833    1.402   .     A
C718   C797    1.454   .     S
C718   C822    1.402   .     A
C719   C836    1.402   .     A
C719   C798    1.455   .     S
C719   C821    1.402   .     A
C720   C766    1.396   .     A
C720   H859    1.083   .     S
C721   C835    1.402   .     A
C721   C799    1.455   .     S
C721   C820    1.402   .     A
C722   C819    1.402   .     A
C722   C839    1.402   .     A
C722   C809    1.455   .     S
C723   C837    1.402   .     A
C723   C818    1.402   .     A
C723   C810    1.455   .     S
C724   C841    1.402   .     A
C724   C802    1.454   .     S
C724   C817    1.402   .     A
C725   C815    1.402   .     A
C725   C840    1.402   .     A
C725   C803    1.454   .     S
C726   C814    1.402   .     A
C726   C843    1.402   .     A
C726   C804    1.455   .     S
C727   C806    1.455   .     S
C727   C813    1.402   .     A
C727   C842    1.402   .     A
C728   C812    1.402   .     A
C728   C807    1.454   .     S
C728   C845    1.402   .     A
C729   C811    1.402   .     A
C729   C844    1.402   .     A
C729   C808    1.454   .     S
C730   C732    1.402   .     A
C730   C846    1.417   .     A
C730   C1048   1.417   .     S
C731   C763    1.396   .     A
C731   H860    1.082   .     S
C732   C1195   1.417   .     S
C733   C734    1.402   .     A
C733   C848    1.417   .     A
C735   C12     1.417   1_565 S
C735   C736    1.402   1_556 S
C736   C9      1.417   1_565 S
C736   C735    1.402   1_554 S
C737   C1054   1.417   .     S
C737   C1086   1.402   1_556 S
C738   C1055   1.417   1_455 S
C738   C1085   1.402   1_454 S
C739   H890    1.111   .     S
C739   H891    1.110   .     S
C739   H889    1.111   .     S
C739   N961    1.448   .     S
C740   H894    1.110   .     S
C740   H896    1.111   .     S
C740   N969    1.448   .     S
C740   H893    1.109   .     S
C741   N970    1.449   .     S
C741   H899    1.110   .     S
C741   H898    1.111   .     S
C741   H900    1.113   .     S
C742   H862    1.083   .     S
C743   H904    1.110   .     S
C743   H902    1.111   .     S
C743   N971    1.449   .     S
C743   H903    1.113   .     S
C744   H908    1.113   .     S
C744   H909    1.110   .     S
C744   N972    1.449   .     S
C744   H907    1.111   .     S
C745   H913    1.110   .     S
C745   H911    1.111   .     S
C745   N973    1.447   .     S
C745   H912    1.111   .     S
C746   H918    1.111   .     S
C746   H915    1.109   .     S
C746   N974    1.448   .     S
C746   H916    1.110   .     S
C747   H922    1.110   .     S
C747   H920    1.109   .     S
C747   H921    1.111   .     S
C747   N975    1.448   .     S
C748   H925    1.113   .     S
C748   H924    1.110   .     S
C748   H926    1.110   .     S
C748   N976    1.448   .     S
C749   H929    1.111   .     S
C749   H930    1.111   .     S
C749   H931    1.110   .     S
C749   N266    1.447   1_565 S
C750   H935    1.110   .     S
C750   H934    1.111   .     S
C750   H933    1.111   .     S
C750   N1311   1.447   .     S
C751   H937    1.111   .     S
C751   H940    1.111   .     S
C751   H938    1.110   .     S
C751   N1312   1.447   1_455 S
C752   H944    1.110   .     S
C752   N965    1.448   .     S
C752   H943    1.111   .     S
C752   H942    1.111   .     S
C753   H863    1.083   .     S
C753   C1113   1.396   1_455 S
C754   N966    1.448   .     S
C754   H947    1.110   .     S
C754   H948    1.111   .     S
C754   H946    1.109   .     S
C755   H951    1.111   .     S
C755   H952    1.110   .     S
C755   H953    1.111   .     S
C755   N967    1.448   .     S
C756   H956    1.111   .     S
C756   H955    1.111   .     S
C756   N968    1.448   .     S
C756   H957    1.110   .     S
C757   H864    1.083   .     S
C757   C1114   1.396   .     S
C758   C794    1.396   .     A
C758   C1045   1.396   .     S
C758   C1135   1.463   .     S
C759   C761    1.396   .     A
C759   C1136   1.462   .     S
C759   C1153   1.396   .     S
C760   C816    1.396   .     A
C760   C785    1.462   .     S
C761   H959    1.083   .     S
C762   C827    1.396   .     A
C762   C90     1.462   1_565 S
C762   C87     1.396   1_565 S
C763   C791    1.463   .     S
C763   C142    1.396   1_565 S
C764   C792    1.463   .     S
C764   C46     1.396   1_565 S
C765   C789    1.462   .     S
C765   C1101   1.396   .     S
C766   C790    1.462   .     S
C766   C1105   1.396   1_455 S
C767   C846    1.413   .     A
C767   C773    1.411   .     A
C767   N961    1.427   .     S
C768   C847    1.414   .     A
C768   C771    1.412   .     A
C768   N969    1.428   .     S
C769   N970    1.427   .     S
C769   C775    1.411   .     A
C769   C848    1.413   .     A
C770   N971    1.427   .     S
C770   C774    1.411   .     A
C771   N972    1.427   .     S
C772   H960    1.083   .     S
C772   C64     1.396   1_565 S
C773   N973    1.427   .     S
C774   N974    1.428   .     S
C775   N975    1.428   .     S
C776   N976    1.427   .     S
C776   C781    1.411   1_556 S
C777   N962    1.427   .     S
C777   C780    1.411   1_554 S
C778   N963    1.427   .     S
C778   C784    1.411   1_556 S
C779   N964    1.427   .     S
C779   C782    1.411   1_554 S
C780   N965    1.427   .     S
C780   C777    1.411   1_556 S
C781   N966    1.428   .     S
C781   C776    1.411   1_554 S
C782   N967    1.427   .     S
C782   C779    1.411   1_556 S
C783   H851    1.083   .     S
C784   N968    1.427   .     S
C784   C778    1.411   1_554 S
C785   O1028   1.281   .     S
C786   O1025   1.281   .     S
C787   O1026   1.281   .     A
C787   C1106   1.463   1_455 S
C787   O1327   1.281   1_455 S
C788   O1375   1.281   1_455 A
C788   C1107   1.462   1_455 S
C788   O980    1.281   .     S
C789   O1329   1.281   .     S
C789   O1333   1.281   .     S
C790   O982    1.281   .     S
C790   O986    1.281   .     S
C791   O287    1.281   1_565 S
C791   O291    1.281   1_565 S
C792   O288    1.281   1_565 S
C792   O293    1.281   1_565 S
C793   O990    1.282   .     A
C793   O1018   1.282   .     A
C794   H852    1.083   .     S
C794   C846    1.400   .     A
C795   O1019   1.282   .     A
C795   O991    1.282   .     A
C796   O992    1.282   .     A
C796   O1016   1.282   .     A
C797   O993    1.282   .     A
C797   O1017   1.282   .     A
C798   O1023   1.282   .     A
C798   O994    1.282   .     A
C799   O995    1.282   .     A
C799   O1024   1.282   .     A
C800   O996    1.282   .     A
C800   O1020   1.282   .     A
C801   O997    1.282   .     A
C801   O1022   1.282   .     A
C802   O1009   1.282   .     A
C802   O998    1.282   .     A
C803   O1011   1.282   .     A
C803   O1000   1.282   .     A
C804   O1007   1.282   .     A
C804   O1001   1.282   .     A
C805   C847    1.400   .     A
C805   H853    1.083   .     S
C805   C1107   1.396   1_455 S
C806   O1008   1.282   .     A
C806   O1002   1.282   .     A
C807   O1003   1.282   .     A
C807   O1014   1.282   .     A
C808   O1015   1.282   .     A
C808   O1004   1.282   .     A
C809   O1005   1.282   .     A
C809   O1012   1.282   .     A
C810   O1013   1.282   .     A
C810   O1006   1.282   .     A
C811   C828    1.386   .     A
C811   H849    1.083   .     S
C812   C826    1.386   .     A
C812   H873    1.083   .     S
C813   C825    1.386   .     A
C813   H884    1.083   .     S
C814   C824    1.386   .     A
C814   H895    1.083   .     S
C815   H906    1.083   .     S
C815   C823    1.386   .     A
C816   H854    1.082   .     S
C816   C848    1.400   .     A
C817   H917    1.083   .     S
C817   C822    1.386   .     A
C818   C821    1.386   .     A
C818   H928    1.083   .     S
C819   H939    1.083   .     S
C819   C820    1.386   .     A
C820   H950    1.083   .     S
C821   H850    1.083   .     S
C822   H861    1.083   .     S
C823   H865    1.083   .     S
C824   H866    1.083   .     S
C825   H867    1.083   .     S
C826   H868    1.083   .     S
C827   H855    1.082   .     S
C828   H869    1.083   .     S
C829   H870    1.083   .     S
C829   C845    1.386   .     A
C830   H871    1.083   .     S
C830   C844    1.386   .     A
C831   C843    1.386   .     A
C831   H872    1.083   .     S
C832   C842    1.386   .     A
C832   H874    1.083   .     S
C833   H875    1.083   .     S
C833   C841    1.386   .     A
C834   C840    1.386   .     A
C834   H876    1.083   .     S
C835   H877    1.083   .     S
C835   C839    1.386   .     A
C836   C837    1.386   .     A
C836   H878    1.083   .     S
C837   H879    1.083   .     S
C838   H856    1.083   .     S
C839   H880    1.083   .     S
C840   H881    1.083   .     S
C841   H882    1.083   .     S
C842   H883    1.083   .     S
C843   H885    1.083   .     S
C844   H886    1.083   .     S
C845   H887    1.083   .     S
C847   C1080   1.417   1_455 S
H888   N961    1.030   .     S
H892   N969    1.029   .     S
H897   N970    1.030   .     S
H901   N971    1.030   .     S
H905   N972    1.030   .     S
H910   N973    1.030   .     S
H914   N974    1.029   .     S
H919   N975    1.029   .     S
H923   N976    1.030   .     S
H927   N962    1.030   .     S
H932   N963    1.030   .     S
H936   N964    1.030   .     S
H941   N965    1.030   .     S
H945   N966    1.029   .     S
H949   N967    1.030   .     S
H954   N968    1.030   .     S
N963   C1098   1.447   1_455 S
N964   C1099   1.447   .     S
O977   Zn1032  1.948   .     S
O977   Zn1029  1.948   .     S
O977   Zn1040  1.948   .     S
O978   C90     1.281   1_565 A
O978   Zn1031  1.951   .     S
O979   Zn1034  1.951   .     S
O979   C1135   1.281   .     S
O980   Zn1033  1.951   .     S
O981   C1137   1.281   1_455 S
O981   Zn1043  1.951   .     S
O982   Zn1042  1.951   .     S
O983   Zn1037  1.951   .     S
O984   Zn1029  1.951   .     S
O985   Zn1039  1.951   .     S
O985   C1137   1.281   1_455 S
O986   Zn1038  1.951   .     S
O987   Zn1041  1.951   .     S
O988   Zn1035  1.948   .     S
O988   Zn1037  1.948   .     S
O988   Zn1041  1.948   .     S
O989   Zn1040  1.951   .     S
O990   Zn1032  1.937   .     S
O991   Zn1031  1.937   .     S
O992   Zn1034  1.935   .     S
O993   Zn1033  1.935   .     S
O994   Zn1036  1.937   .     S
O995   Zn1035  1.937   .     S
O996   Zn1030  1.935   .     S
O997   Zn1044  1.935   .     S
O998   Zn1031  1.935   .     S
O999   Zn1038  1.948   .     S
O999   Zn1042  1.948   .     S
O999   Zn1030  1.948   .     S
O999   Zn1382  1.948   1_455 S
O1000  Zn1032  1.935   .     S
O1001  Zn1044  1.936   .     S
O1002  Zn1030  1.936   .     S
O1003  Zn1035  1.935   .     S
O1004  Zn1036  1.935   .     S
O1005  Zn1033  1.937   .     S
O1006  Zn1034  1.937   .     S
O1007  Zn1387  1.937   .     S
O1008  Zn1038  1.937   .     S
O1009  Zn345   1.935   1_565 S
O1010  Zn1033  1.948   .     S
O1010  Zn1039  1.948   .     S
O1010  Zn1043  1.948   .     S
O1010  Zn1392  1.948   1_455 S
O1011  Zn1040  1.935   .     S
O1012  Zn1043  1.937   .     S
O1013  Zn1390  1.937   .     S
O1014  Zn1037  1.935   .     S
O1015  Zn333   1.935   1_565 S
O1016  Zn1386  1.935   .     S
O1017  Zn1039  1.935   .     S
O1018  Zn1029  1.936   .     S
O1019  Zn341   1.936   1_565 S
O1020  Zn1042  1.935   .     S
O1021  C89     1.281   1_565 A
O1021  Zn1036  1.951   .     S
O1022  Zn1391  1.935   .     S
O1023  Zn344   1.937   1_565 S
O1024  Zn1041  1.937   .     S
O1025  Zn1035  1.951   .     S
O1026  Zn1030  1.951   .     S
O1027  Zn1044  1.951   .     S
O1027  C1136   1.281   .     A
O1028  Zn1032  1.951   .     S
Zn1031 O292    1.948   1_565 S
Zn1034 O1347   1.948   .     S
Zn1036 O281    1.948   1_565 S
Zn1038 O1364   1.935   1_455 S
Zn1039 O1355   1.937   1_455 S
Zn1042 O1361   1.937   1_455 S
Zn1043 O1370   1.935   1_455 S
Zn1044 O1358   1.948   .     S
C1045  H1306   1.082   .     S
C1045  C1048   1.400   .     A
C1046  C1058   1.400   .     A
C1046  C1112   1.396   .     A
C1046  H1205   1.083   .     S
C1047  C1175   1.400   .     A
C1047  C1118   1.413   .     A
C1047  C386    1.417   1_565 S
C1048  C1119   1.413   .     A
C1049  C1080   1.417   .     A
C1049  C1121   1.413   .     A
C1049  C1109   1.399   .     A
C1050  C1122   1.414   .     A
C1050  C1120   1.400   .     A
C1050  C385    1.417   1_565 S
C1051  C1123   1.414   .     A
C1051  C1131   1.400   .     A
C1051  C1082   1.417   .     A
C1052  C1079   1.400   .     A
C1052  C1083   1.417   .     A
C1052  C1124   1.413   .     A
C1053  C1090   1.399   .     A
C1053  C1125   1.413   .     A
C1054  C1126   1.413   .     A
C1054  C1101   1.400   .     A
C1055  C1105   1.400   .     A
C1055  C1127   1.413   .     A
C1055  C738    1.417   1_655 S
C1056  C1128   1.413   .     A
C1056  C1186   1.399   .     A
C1057  C1113   1.396   .     A
C1057  H1206   1.083   .     S
C1057  C1059   1.400   .     A
C1058  C1129   1.414   .     A
C1058  C1084   1.417   .     A
C1059  C1085   1.417   .     A
C1059  C1130   1.413   .     A
C1060  C1132   1.413   .     A
C1060  C1086   1.417   .     A
C1060  C1068   1.400   .     A
C1061  C1148   1.454   .     S
C1061  C1176   1.402   .     A
C1061  C1178   1.402   .     A
C1062  C1177   1.402   .     A
C1062  C1174   1.402   .     A
C1062  C1149   1.454   .     S
C1063  C1173   1.402   .     A
C1063  C1180   1.402   .     A
C1063  C1141   1.455   .     S
C1064  C1143   1.455   .     S
C1064  C1172   1.402   .     A
C1064  C1179   1.402   .     A
C1065  C1182   1.402   .     A
C1065  C1171   1.402   .     A
C1065  C1144   1.454   .     S
C1066  C1181   1.402   .     A
C1066  C1145   1.454   .     S
C1066  C1170   1.402   .     A
C1067  C1184   1.402   .     A
C1067  C1146   1.455   .     S
C1067  C1169   1.402   .     A
C1068  C1114   1.396   .     A
C1068  H1207   1.083   .     S
C1069  C1183   1.402   .     A
C1069  C1147   1.455   .     S
C1069  C1168   1.402   .     A
C1070  C1167   1.402   .     A
C1070  C1187   1.402   .     A
C1070  C1157   1.455   .     S
C1071  C1185   1.402   .     A
C1071  C1166   1.402   .     A
C1071  C1158   1.455   .     S
C1072  C1189   1.402   .     A
C1072  C1150   1.454   .     S
C1072  C1165   1.402   .     A
C1073  C1163   1.402   .     A
C1073  C1188   1.402   .     A
C1073  C1151   1.454   .     S
C1074  C1162   1.402   .     A
C1074  C1191   1.402   .     A
C1074  C1152   1.455   .     S
C1075  C1154   1.455   .     S
C1075  C1161   1.402   .     A
C1075  C1190   1.402   .     A
C1076  C1160   1.402   .     A
C1076  C1155   1.454   .     S
C1076  C1193   1.402   .     A
C1077  C1159   1.402   .     A
C1077  C1192   1.402   .     A
C1077  C1156   1.454   .     S
C1078  C1080   1.402   .     A
C1078  C1194   1.417   .     A
C1078  C700    1.417   1_655 S
C1079  C1111   1.396   .     A
C1079  H1208   1.082   .     S
C1080  C847    1.417   1_655 S
C1081  C1082   1.402   .     A
C1081  C1196   1.417   .     A
C1083  C360    1.417   1_565 S
C1083  C1084   1.402   1_556 S
C1084  C357    1.417   1_565 S
C1084  C1083   1.402   1_554 S
C1085  C706    1.417   1_655 S
C1085  C738    1.402   1_656 S
C1086  C737    1.402   1_554 S
C1087  H1238   1.111   .     S
C1087  H1239   1.110   .     S
C1087  H1237   1.111   .     S
C1087  N1309   1.448   .     S
C1088  H1242   1.110   .     S
C1088  H1244   1.111   .     S
C1088  N1317   1.448   .     S
C1088  H1241   1.109   .     S
C1089  N1318   1.449   .     S
C1089  H1247   1.110   .     S
C1089  H1246   1.111   .     S
C1089  H1248   1.113   .     S
C1090  H1210   1.083   .     S
C1091  H1252   1.110   .     S
C1091  H1250   1.111   .     S
C1091  N1319   1.449   .     S
C1091  H1251   1.113   .     S
C1092  H1256   1.113   .     S
C1092  H1257   1.110   .     S
C1092  N1320   1.449   .     S
C1092  H1255   1.111   .     S
C1093  H1261   1.110   .     S
C1093  H1259   1.111   .     S
C1093  N1321   1.447   .     S
C1093  H1260   1.111   .     S
C1094  H1266   1.111   .     S
C1094  H1263   1.109   .     S
C1094  N1322   1.448   .     S
C1094  H1264   1.110   .     S
C1095  H1270   1.110   .     S
C1095  H1268   1.109   .     S
C1095  H1269   1.111   .     S
C1095  N1323   1.448   .     S
C1096  H1273   1.113   .     S
C1096  H1272   1.110   .     S
C1096  H1274   1.110   .     S
C1096  N1324   1.448   .     S
C1097  H1277   1.111   .     S
C1097  H1278   1.111   .     S
C1097  H1279   1.110   .     S
C1097  N614    1.447   1_565 S
C1098  H1283   1.110   .     S
C1098  H1282   1.111   .     S
C1098  H1281   1.111   .     S
C1098  N963    1.447   1_655 S
C1099  H1285   1.111   .     S
C1099  H1288   1.111   .     S
C1099  H1286   1.110   .     S
C1100  H1292   1.110   .     S
C1100  N1313   1.448   .     S
C1100  H1291   1.111   .     S
C1100  H1290   1.111   .     S
C1101  H1211   1.083   .     S
C1102  N1314   1.448   .     S
C1102  H1295   1.110   .     S
C1102  H1296   1.111   .     S
C1102  H1294   1.109   .     S
C1103  H1299   1.111   .     S
C1103  H1300   1.110   .     S
C1103  H1301   1.111   .     S
C1103  N1315   1.448   .     S
C1104  H1304   1.111   .     S
C1104  H1303   1.111   .     S
C1104  N1316   1.448   .     S
C1104  H1305   1.110   .     S
C1105  H1212   1.083   .     S
C1105  C766    1.396   1_655 S
C1106  C1142   1.396   .     A
C1106  C697    1.396   1_655 S
C1106  C787    1.463   1_655 S
C1107  C1109   1.396   .     A
C1107  C788    1.462   1_655 S
C1107  C805    1.396   1_655 S
C1108  C1164   1.396   .     A
C1108  C1133   1.462   .     S
C1109  H1307   1.083   .     S
C1110  C1175   1.396   .     A
C1110  C438    1.462   1_565 S
C1110  C435    1.396   1_565 S
C1111  C1139   1.463   .     S
C1111  C490    1.396   1_565 S
C1112  C1140   1.463   .     S
C1112  C394    1.396   1_565 S
C1113  C1137   1.462   .     S
C1113  C753    1.396   1_655 S
C1114  C1138   1.462   .     S
C1115  C1194   1.413   .     A
C1115  C1121   1.411   .     A
C1115  N1309   1.427   .     S
C1116  C1195   1.414   .     A
C1116  C1119   1.412   .     A
C1116  N1317   1.428   .     S
C1117  N1318   1.427   .     S
C1117  C1123   1.411   .     A
C1117  C1196   1.413   .     A
C1118  N1319   1.427   .     S
C1118  C1122   1.411   .     A
C1119  N1320   1.427   .     S
C1120  H1308   1.083   .     S
C1120  C412    1.396   1_565 S
C1121  N1321   1.427   .     S
C1122  N1322   1.428   .     S
C1123  N1323   1.428   .     S
C1124  N1324   1.427   .     S
C1124  C1129   1.411   1_556 S
C1125  N1310   1.427   .     S
C1125  C1128   1.411   1_554 S
C1126  N1311   1.427   .     S
C1126  C1132   1.411   1_556 S
C1127  N1312   1.427   .     S
C1127  C1130   1.411   1_554 S
C1128  N1313   1.427   .     S
C1128  C1125   1.411   1_556 S
C1129  N1314   1.428   .     S
C1129  C1124   1.411   1_554 S
C1130  N1315   1.427   .     S
C1130  C1127   1.411   1_556 S
C1131  H1199   1.083   .     S
C1132  N1316   1.427   .     S
C1132  C1126   1.411   1_554 S
C1133  O1376   1.281   .     S
C1134  O1373   1.281   .     S
C1135  O1374   1.281   .     A
C1136  O1328   1.281   .     S
C1137  O981    1.281   1_655 S
C1137  O985    1.281   1_655 S
C1138  O1330   1.281   .     S
C1138  O1334   1.281   .     S
C1139  O635    1.281   1_565 S
C1139  O639    1.281   1_565 S
C1140  O636    1.281   1_565 S
C1140  O641    1.281   1_565 S
C1141  O1338   1.282   .     A
C1141  O1366   1.282   .     A
C1142  H1200   1.083   .     S
C1142  C1194   1.400   .     A
C1143  O1367   1.282   .     A
C1143  O1339   1.282   .     A
C1144  O1340   1.282   .     A
C1144  O1364   1.282   .     A
C1145  O1341   1.282   .     A
C1145  O1365   1.282   .     A
C1146  O1371   1.282   .     A
C1146  O1342   1.282   .     A
C1147  O1343   1.282   .     A
C1147  O1372   1.282   .     A
C1148  O1344   1.282   .     A
C1148  O1368   1.282   .     A
C1149  O1345   1.282   .     A
C1149  O1370   1.282   .     A
C1150  O1357   1.282   .     A
C1150  O1346   1.282   .     A
C1151  O1359   1.282   .     A
C1151  O1348   1.282   .     A
C1152  O1355   1.282   .     A
C1152  O1349   1.282   .     A
C1153  C1195   1.400   .     A
C1153  H1201   1.083   .     S
C1154  O1356   1.282   .     A
C1154  O1350   1.282   .     A
C1155  O1351   1.282   .     A
C1155  O1362   1.282   .     A
C1156  O1363   1.282   .     A
C1156  O1352   1.282   .     A
C1157  O1353   1.282   .     A
C1157  O1360   1.282   .     A
C1158  O1361   1.282   .     A
C1158  O1354   1.282   .     A
C1159  C1176   1.386   .     A
C1159  H1197   1.083   .     S
C1160  C1174   1.386   .     A
C1160  H1221   1.083   .     S
C1161  C1173   1.386   .     A
C1161  H1232   1.083   .     S
C1162  C1172   1.386   .     A
C1162  H1243   1.083   .     S
C1163  H1254   1.083   .     S
C1163  C1171   1.386   .     A
C1164  H1202   1.082   .     S
C1164  C1196   1.400   .     A
C1165  H1265   1.083   .     S
C1165  C1170   1.386   .     A
C1166  C1169   1.386   .     A
C1166  H1276   1.083   .     S
C1167  H1287   1.083   .     S
C1167  C1168   1.386   .     A
C1168  H1298   1.083   .     S
C1169  H1198   1.083   .     S
C1170  H1209   1.083   .     S
C1171  H1213   1.083   .     S
C1172  H1214   1.083   .     S
C1173  H1215   1.083   .     S
C1174  H1216   1.083   .     S
C1175  H1203   1.082   .     S
C1176  H1217   1.083   .     S
C1177  H1218   1.083   .     S
C1177  C1193   1.386   .     A
C1178  H1219   1.083   .     S
C1178  C1192   1.386   .     A
C1179  C1191   1.386   .     A
C1179  H1220   1.083   .     S
C1180  C1190   1.386   .     A
C1180  H1222   1.083   .     S
C1181  H1223   1.083   .     S
C1181  C1189   1.386   .     A
C1182  C1188   1.386   .     A
C1182  H1224   1.083   .     S
C1183  H1225   1.083   .     S
C1183  C1187   1.386   .     A
C1184  C1185   1.386   .     A
C1184  H1226   1.083   .     S
C1185  H1227   1.083   .     S
C1186  H1204   1.083   .     S
C1187  H1228   1.083   .     S
C1188  H1229   1.083   .     S
C1189  H1230   1.083   .     S
C1190  H1231   1.083   .     S
C1191  H1233   1.083   .     S
C1192  H1234   1.083   .     S
C1193  H1235   1.083   .     S
H1236  N1309   1.030   .     S
H1240  N1317   1.029   .     S
H1245  N1318   1.030   .     S
H1249  N1319   1.030   .     S
H1253  N1320   1.030   .     S
H1258  N1321   1.030   .     S
H1262  N1322   1.029   .     S
H1267  N1323   1.029   .     S
H1271  N1324   1.030   .     S
H1275  N1310   1.030   .     S
H1280  N1311   1.030   .     S
H1284  N1312   1.030   .     S
H1289  N1313   1.030   .     S
H1293  N1314   1.029   .     S
H1297  N1315   1.030   .     S
H1302  N1316   1.030   .     S
N1312  C751    1.447   1_655 S
O1325  Zn1380  1.948   .     S
O1325  Zn1377  1.948   .     S
O1325  Zn1388  1.948   .     S
O1326  C438    1.281   1_565 A
O1326  Zn1379  1.951   .     S
O1327  Zn1382  1.951   .     S
O1327  C787    1.281   1_655 S
O1328  Zn1381  1.951   .     S
O1329  Zn1391  1.951   .     S
O1330  Zn1390  1.951   .     S
O1331  Zn1385  1.951   .     S
O1332  Zn1377  1.951   .     S
O1333  Zn1387  1.951   .     S
O1334  Zn1386  1.951   .     S
O1335  Zn1389  1.951   .     S
O1336  Zn1383  1.948   .     S
O1336  Zn1385  1.948   .     S
O1336  Zn1389  1.948   .     S
O1337  Zn1388  1.951   .     S
O1338  Zn1380  1.937   .     S
O1339  Zn1379  1.937   .     S
O1340  Zn1382  1.935   .     S
O1341  Zn1381  1.935   .     S
O1342  Zn1384  1.937   .     S
O1343  Zn1383  1.937   .     S
O1344  Zn1378  1.935   .     S
O1345  Zn1392  1.935   .     S
O1346  Zn1379  1.935   .     S
O1347  Zn1386  1.948   .     S
O1347  Zn1390  1.948   .     S
O1347  Zn1378  1.948   .     S
O1348  Zn1380  1.935   .     S
O1349  Zn1392  1.936   .     S
O1350  Zn1378  1.936   .     S
O1351  Zn1383  1.935   .     S
O1352  Zn1384  1.935   .     S
O1353  Zn1381  1.937   .     S
O1354  Zn1382  1.937   .     S
O1355  Zn1039  1.937   1_655 S
O1356  Zn1386  1.937   .     S
O1357  Zn693   1.935   1_565 S
O1358  Zn1381  1.948   .     S
O1358  Zn1387  1.948   .     S
O1358  Zn1391  1.948   .     S
O1359  Zn1388  1.935   .     S
O1360  Zn1391  1.937   .     S
O1361  Zn1042  1.937   1_655 S
O1362  Zn1385  1.935   .     S
O1363  Zn681   1.935   1_565 S
O1364  Zn1038  1.935   1_655 S
O1365  Zn1387  1.935   .     S
O1366  Zn1377  1.936   .     S
O1367  Zn689   1.936   1_565 S
O1368  Zn1390  1.935   .     S
O1369  C437    1.281   1_565 A
O1369  Zn1384  1.951   .     S
O1370  Zn1043  1.935   1_655 S
O1371  Zn692   1.937   1_565 S
O1372  Zn1389  1.937   .     S
O1373  Zn1383  1.951   .     S
O1374  Zn1378  1.951   .     S
O1375  Zn1392  1.951   .     S
O1375  C788    1.281   1_655 A
O1376  Zn1380  1.951   .     S
Zn1379 O640    1.948   1_565 S
Zn1382 O999    1.948   1_655 S
Zn1384 O629    1.948   1_565 S
Zn1392 O1010   1.948   1_655 S
