data_str_m1_o10_o16_pcu_sym.99
_audit_creation_date              2020-01-03
_audit_creation_method            'Materials Studio'
_symmetry_space_group_name_H-M    'P1'
_symmetry_Int_Tables_number       1
_symmetry_cell_setting            triclinic
loop_
_symmetry_equiv_pos_as_xyz
  x,y,z
_cell_length_a                    32.5213
_cell_length_b                    32.5233
_cell_length_c                    31.0322
_cell_angle_alpha                 96.4315
_cell_angle_beta                  74.9407
_cell_angle_gamma                 98.3890
loop_
_atom_site_label
_atom_site_type_symbol
_atom_site_fract_x
_atom_site_fract_y
_atom_site_fract_z
_atom_site_U_iso_or_equiv
_atom_site_adp_type
_atom_site_occupancy
Br1    Br    0.23227   0.04058   0.49232   0.00000  Uiso   1.00
Br2    Br    0.12162   0.27844   0.40774   0.00000  Uiso   1.00
C3     C     0.05274   0.15958   0.26008   0.00000  Uiso   1.00
C4     C     0.17950   0.16653   0.05703   0.00000  Uiso   1.00
C5     C     0.20706   0.10259   0.06092   0.00000  Uiso   1.00
C6     C     0.28076   0.17378   0.24005   0.00000  Uiso   1.00
C7     C     0.14693   0.19717   0.41912   0.00000  Uiso   1.00
C8     C     0.32659   0.17645   0.23605   0.00000  Uiso   1.00
C9     C     0.00746   0.15709   0.26402   0.00000  Uiso   1.00
C10    C     0.18034   0.32244   0.23646   0.00000  Uiso   1.00
C11    C     0.15198   0.01177   0.26401   0.00000  Uiso   1.00
C12    C     0.15616   0.05585   0.26023   0.00000  Uiso   1.00
C13    C     0.17656   0.27789   0.24019   0.00000  Uiso   1.00
C14    C     0.15519   0.25422   0.47484   0.00000  Uiso   1.00
C15    C     0.18507   0.14817   0.12944   0.00000  Uiso   1.00
C16    C     0.14875   0.18489   0.37112   0.00000  Uiso   1.00
C17    C     0.20595   0.09020   0.01675   0.00000  Uiso   1.00
C18    C     0.19213   0.13966   0.08140   0.00000  Uiso   1.00
C19    C     0.14180   0.23875   0.43652   0.00000  Uiso   1.00
C20    C     0.17224   0.22912   0.49753   0.00000  Uiso   1.00
C21    C     0.17030   0.18537   0.48575   0.00000  Uiso   1.00
C22    C     0.15835   0.16978   0.44559   0.00000  Uiso   1.00
C23    C     0.18088   0.15671   0.01152   0.00000  Uiso   1.00
C24    C     0.18860   0.11545   0.49287   0.00000  Uiso   1.00
C25    C     0.17518   0.10061   0.45354   0.00000  Uiso   1.00
C26    C     0.15798   0.12694   0.43250   0.00000  Uiso   1.00
Cl27   Cl    0.17148   0.04808   0.43215   0.00000  Uiso   1.00
Cl28   Cl    0.20254   0.25644   0.03384   0.00000  Uiso   1.00
H29    H     0.21835   0.08255   0.07991   0.00000  Uiso   1.00
H30    H     0.31918   0.13930   0.29023   0.00000  Uiso   1.00
H31    H     0.20648   0.00359   0.21107   0.00000  Uiso   1.00
H32    H     0.12557   0.33143   0.28963   0.00000  Uiso   1.00
H33    H     0.16481   0.19315   0.07518   0.00000  Uiso   1.00
H34    H     0.15517   0.28714   0.48533   0.00000  Uiso   1.00
H35    H     0.14377   0.11306   0.40560   0.00000  Uiso   1.00
H36    H     0.01557   0.19423   0.21021   0.00000  Uiso   1.00
O37    O     0.16667   0.16667   0.25000   0.00000  Uiso   1.00
O38    O     0.15451   0.12637   0.15459   0.00000  Uiso   1.00
O39    O     0.12940   0.20391   0.34968   0.00000  Uiso   1.00
O40    O     0.20824   0.17759   0.14606   0.00000  Uiso   1.00
O41    O     0.17451   0.15880   0.34968   0.00000  Uiso   1.00
O42    O     0.17930   0.08019   0.28214   0.00000  Uiso   1.00
O43    O     0.14632   0.26085   0.27013   0.00000  Uiso   1.00
O44    O     0.07412   0.13291   0.23413   0.00000  Uiso   1.00
O45    O     0.26693   0.19272   0.21361   0.00000  Uiso   1.00
O46    O     0.07071   0.18878   0.28213   0.00000  Uiso   1.00
O47    O     0.25491   0.15226   0.27014   0.00000  Uiso   1.00
O48    O     0.13760   0.06944   0.23413   0.00000  Uiso   1.00
O49    O     0.20345   0.25620   0.21360   0.00000  Uiso   1.00
Zn50   Zn    0.19338   0.13994   0.28734   0.00000  Uiso   1.00
Zn51   Zn    0.13379   0.12458   0.21876   0.00000  Uiso   1.00
Zn52   Zn    0.21056   0.19775   0.20657   0.00000  Uiso   1.00
Zn53   Zn    0.12893   0.20439   0.28733   0.00000  Uiso   1.00
Br54   Br    0.56560   0.04058   0.49232   0.00000  Uiso   1.00
Br55   Br    0.45495   0.27844   0.40774   0.00000  Uiso   1.00
C56    C     0.38607   0.15958   0.26008   0.00000  Uiso   1.00
C57    C     0.51283   0.16653   0.05703   0.00000  Uiso   1.00
C58    C     0.54040   0.10259   0.06092   0.00000  Uiso   1.00
C59    C     0.61409   0.17378   0.24005   0.00000  Uiso   1.00
C60    C     0.48027   0.19717   0.41912   0.00000  Uiso   1.00
C61    C     0.65993   0.17645   0.23605   0.00000  Uiso   1.00
C62    C     0.34080   0.15709   0.26402   0.00000  Uiso   1.00
C63    C     0.51368   0.32244   0.23646   0.00000  Uiso   1.00
C64    C     0.48531   0.01177   0.26401   0.00000  Uiso   1.00
C65    C     0.48949   0.05585   0.26023   0.00000  Uiso   1.00
C66    C     0.50990   0.27789   0.24019   0.00000  Uiso   1.00
C67    C     0.48853   0.25422   0.47484   0.00000  Uiso   1.00
C68    C     0.51840   0.14817   0.12944   0.00000  Uiso   1.00
C69    C     0.48208   0.18489   0.37112   0.00000  Uiso   1.00
C70    C     0.53928   0.09020   0.01675   0.00000  Uiso   1.00
C71    C     0.52546   0.13966   0.08140   0.00000  Uiso   1.00
C72    C     0.47513   0.23875   0.43652   0.00000  Uiso   1.00
C73    C     0.50557   0.22912   0.49753   0.00000  Uiso   1.00
C74    C     0.50364   0.18537   0.48575   0.00000  Uiso   1.00
C75    C     0.49168   0.16978   0.44559   0.00000  Uiso   1.00
C76    C     0.51422   0.15671   0.01152   0.00000  Uiso   1.00
C77    C     0.52193   0.11545   0.49287   0.00000  Uiso   1.00
C78    C     0.50852   0.10061   0.45354   0.00000  Uiso   1.00
C79    C     0.49131   0.12694   0.43250   0.00000  Uiso   1.00
Cl80   Cl    0.50482   0.04808   0.43215   0.00000  Uiso   1.00
Cl81   Cl    0.53587   0.25644   0.03384   0.00000  Uiso   1.00
H82    H     0.55169   0.08255   0.07991   0.00000  Uiso   1.00
H83    H     0.65252   0.13930   0.29023   0.00000  Uiso   1.00
H84    H     0.53981   0.00359   0.21107   0.00000  Uiso   1.00
H85    H     0.45890   0.33143   0.28963   0.00000  Uiso   1.00
H86    H     0.49815   0.19315   0.07518   0.00000  Uiso   1.00
H87    H     0.48850   0.28714   0.48533   0.00000  Uiso   1.00
H88    H     0.47710   0.11306   0.40560   0.00000  Uiso   1.00
H89    H     0.34890   0.19423   0.21021   0.00000  Uiso   1.00
O90    O     0.50000   0.16667   0.25000   0.00000  Uiso   1.00
O91    O     0.48784   0.12637   0.15459   0.00000  Uiso   1.00
O92    O     0.46274   0.20391   0.34968   0.00000  Uiso   1.00
O93    O     0.54157   0.17759   0.14606   0.00000  Uiso   1.00
O94    O     0.50785   0.15880   0.34968   0.00000  Uiso   1.00
O95    O     0.51264   0.08019   0.28214   0.00000  Uiso   1.00
O96    O     0.47965   0.26085   0.27013   0.00000  Uiso   1.00
O97    O     0.40745   0.13291   0.23413   0.00000  Uiso   1.00
O98    O     0.60026   0.19272   0.21361   0.00000  Uiso   1.00
O99    O     0.40405   0.18878   0.28213   0.00000  Uiso   1.00
O100   O     0.58824   0.15226   0.27014   0.00000  Uiso   1.00
O101   O     0.47093   0.06944   0.23413   0.00000  Uiso   1.00
O102   O     0.53678   0.25620   0.21360   0.00000  Uiso   1.00
Zn103  Zn    0.52672   0.13994   0.28734   0.00000  Uiso   1.00
Zn104  Zn    0.46713   0.12458   0.21876   0.00000  Uiso   1.00
Zn105  Zn    0.54389   0.19775   0.20657   0.00000  Uiso   1.00
Zn106  Zn    0.46226   0.20439   0.28733   0.00000  Uiso   1.00
Br107  Br    0.89894   0.04058   0.49232   0.00000  Uiso   1.00
Br108  Br    0.78829   0.27844   0.40774   0.00000  Uiso   1.00
C109   C     0.71940   0.15958   0.26008   0.00000  Uiso   1.00
C110   C     0.84616   0.16653   0.05703   0.00000  Uiso   1.00
C111   C     0.87373   0.10259   0.06092   0.00000  Uiso   1.00
C112   C     0.94743   0.17378   0.24005   0.00000  Uiso   1.00
C113   C     0.81360   0.19717   0.41912   0.00000  Uiso   1.00
C114   C     0.99326   0.17645   0.23605   0.00000  Uiso   1.00
C115   C     0.67413   0.15709   0.26402   0.00000  Uiso   1.00
C116   C     0.84701   0.32244   0.23646   0.00000  Uiso   1.00
C117   C     0.81864   0.01177   0.26401   0.00000  Uiso   1.00
C118   C     0.82283   0.05585   0.26023   0.00000  Uiso   1.00
C119   C     0.84323   0.27789   0.24019   0.00000  Uiso   1.00
C120   C     0.82186   0.25422   0.47484   0.00000  Uiso   1.00
C121   C     0.85174   0.14817   0.12944   0.00000  Uiso   1.00
C122   C     0.81541   0.18489   0.37112   0.00000  Uiso   1.00
C123   C     0.87261   0.09020   0.01675   0.00000  Uiso   1.00
C124   C     0.85879   0.13966   0.08140   0.00000  Uiso   1.00
C125   C     0.80846   0.23875   0.43652   0.00000  Uiso   1.00
C126   C     0.83891   0.22912   0.49753   0.00000  Uiso   1.00
C127   C     0.83697   0.18537   0.48575   0.00000  Uiso   1.00
C128   C     0.82502   0.16978   0.44559   0.00000  Uiso   1.00
C129   C     0.84755   0.15671   0.01152   0.00000  Uiso   1.00
C130   C     0.85527   0.11545   0.49287   0.00000  Uiso   1.00
C131   C     0.84185   0.10061   0.45354   0.00000  Uiso   1.00
C132   C     0.82464   0.12694   0.43250   0.00000  Uiso   1.00
Cl133  Cl    0.83815   0.04808   0.43215   0.00000  Uiso   1.00
Cl134  Cl    0.86920   0.25644   0.03384   0.00000  Uiso   1.00
H135   H     0.88502   0.08255   0.07991   0.00000  Uiso   1.00
H136   H     0.98585   0.13930   0.29023   0.00000  Uiso   1.00
H137   H     0.87314   0.00359   0.21107   0.00000  Uiso   1.00
H138   H     0.79224   0.33143   0.28963   0.00000  Uiso   1.00
H139   H     0.83148   0.19315   0.07518   0.00000  Uiso   1.00
H140   H     0.82184   0.28714   0.48533   0.00000  Uiso   1.00
H141   H     0.81043   0.11306   0.40560   0.00000  Uiso   1.00
H142   H     0.68223   0.19423   0.21021   0.00000  Uiso   1.00
O143   O     0.83333   0.16667   0.25000   0.00000  Uiso   1.00
O144   O     0.82118   0.12637   0.15459   0.00000  Uiso   1.00
O145   O     0.79607   0.20391   0.34968   0.00000  Uiso   1.00
O146   O     0.87491   0.17759   0.14606   0.00000  Uiso   1.00
O147   O     0.84118   0.15880   0.34968   0.00000  Uiso   1.00
O148   O     0.84597   0.08019   0.28214   0.00000  Uiso   1.00
O149   O     0.81298   0.26085   0.27013   0.00000  Uiso   1.00
O150   O     0.74078   0.13291   0.23413   0.00000  Uiso   1.00
O151   O     0.93360   0.19272   0.21361   0.00000  Uiso   1.00
O152   O     0.73738   0.18878   0.28213   0.00000  Uiso   1.00
O153   O     0.92158   0.15226   0.27014   0.00000  Uiso   1.00
O154   O     0.80426   0.06944   0.23413   0.00000  Uiso   1.00
O155   O     0.87012   0.25620   0.21360   0.00000  Uiso   1.00
Zn156  Zn    0.86005   0.13994   0.28734   0.00000  Uiso   1.00
Zn157  Zn    0.80046   0.12458   0.21876   0.00000  Uiso   1.00
Zn158  Zn    0.87723   0.19775   0.20657   0.00000  Uiso   1.00
Zn159  Zn    0.79560   0.20439   0.28733   0.00000  Uiso   1.00
Br160  Br    0.23227   0.37391   0.49232   0.00000  Uiso   1.00
Br161  Br    0.12162   0.61177   0.40774   0.00000  Uiso   1.00
C162   C     0.05274   0.49291   0.26008   0.00000  Uiso   1.00
C163   C     0.17950   0.49986   0.05703   0.00000  Uiso   1.00
C164   C     0.20706   0.43592   0.06092   0.00000  Uiso   1.00
C165   C     0.28076   0.50711   0.24005   0.00000  Uiso   1.00
C166   C     0.14693   0.53050   0.41912   0.00000  Uiso   1.00
C167   C     0.32659   0.50979   0.23605   0.00000  Uiso   1.00
C168   C     0.00746   0.49043   0.26402   0.00000  Uiso   1.00
C169   C     0.18034   0.65577   0.23646   0.00000  Uiso   1.00
C170   C     0.15198   0.34510   0.26401   0.00000  Uiso   1.00
C171   C     0.15616   0.38919   0.26023   0.00000  Uiso   1.00
C172   C     0.17656   0.61122   0.24019   0.00000  Uiso   1.00
C173   C     0.15519   0.58755   0.47484   0.00000  Uiso   1.00
C174   C     0.18507   0.48150   0.12944   0.00000  Uiso   1.00
C175   C     0.14875   0.51822   0.37112   0.00000  Uiso   1.00
C176   C     0.20595   0.42354   0.01675   0.00000  Uiso   1.00
C177   C     0.19213   0.47299   0.08140   0.00000  Uiso   1.00
C178   C     0.14180   0.57208   0.43652   0.00000  Uiso   1.00
C179   C     0.17224   0.56245   0.49753   0.00000  Uiso   1.00
C180   C     0.17030   0.51870   0.48575   0.00000  Uiso   1.00
C181   C     0.15835   0.50311   0.44559   0.00000  Uiso   1.00
C182   C     0.18088   0.49005   0.01152   0.00000  Uiso   1.00
C183   C     0.18860   0.44879   0.49287   0.00000  Uiso   1.00
C184   C     0.17518   0.43395   0.45354   0.00000  Uiso   1.00
C185   C     0.15798   0.46027   0.43250   0.00000  Uiso   1.00
Cl186  Cl    0.17148   0.38141   0.43215   0.00000  Uiso   1.00
Cl187  Cl    0.20254   0.58978   0.03384   0.00000  Uiso   1.00
H188   H     0.21835   0.41589   0.07991   0.00000  Uiso   1.00
H189   H     0.31918   0.47263   0.29023   0.00000  Uiso   1.00
H190   H     0.20648   0.33692   0.21107   0.00000  Uiso   1.00
H191   H     0.12557   0.66476   0.28963   0.00000  Uiso   1.00
H192   H     0.16481   0.52648   0.07518   0.00000  Uiso   1.00
H193   H     0.15517   0.62047   0.48533   0.00000  Uiso   1.00
H194   H     0.14377   0.44639   0.40560   0.00000  Uiso   1.00
H195   H     0.01557   0.52756   0.21021   0.00000  Uiso   1.00
O196   O     0.16667   0.50000   0.25000   0.00000  Uiso   1.00
O197   O     0.15451   0.45970   0.15459   0.00000  Uiso   1.00
O198   O     0.12940   0.53724   0.34968   0.00000  Uiso   1.00
O199   O     0.20824   0.51092   0.14606   0.00000  Uiso   1.00
O200   O     0.17451   0.49213   0.34968   0.00000  Uiso   1.00
O201   O     0.17930   0.41352   0.28214   0.00000  Uiso   1.00
O202   O     0.14632   0.59418   0.27013   0.00000  Uiso   1.00
O203   O     0.07412   0.46625   0.23413   0.00000  Uiso   1.00
O204   O     0.26693   0.52605   0.21361   0.00000  Uiso   1.00
O205   O     0.07071   0.52211   0.28213   0.00000  Uiso   1.00
O206   O     0.25491   0.48559   0.27014   0.00000  Uiso   1.00
O207   O     0.13760   0.40277   0.23413   0.00000  Uiso   1.00
O208   O     0.20345   0.58953   0.21360   0.00000  Uiso   1.00
Zn209  Zn    0.19338   0.47327   0.28734   0.00000  Uiso   1.00
Zn210  Zn    0.13379   0.45791   0.21876   0.00000  Uiso   1.00
Zn211  Zn    0.21056   0.53109   0.20657   0.00000  Uiso   1.00
Zn212  Zn    0.12893   0.53773   0.28733   0.00000  Uiso   1.00
Br213  Br    0.56560   0.37391   0.49232   0.00000  Uiso   1.00
Br214  Br    0.45495   0.61177   0.40774   0.00000  Uiso   1.00
C215   C     0.38607   0.49291   0.26008   0.00000  Uiso   1.00
C216   C     0.51283   0.49986   0.05703   0.00000  Uiso   1.00
C217   C     0.54040   0.43592   0.06092   0.00000  Uiso   1.00
C218   C     0.61409   0.50711   0.24005   0.00000  Uiso   1.00
C219   C     0.48027   0.53050   0.41912   0.00000  Uiso   1.00
C220   C     0.65993   0.50979   0.23605   0.00000  Uiso   1.00
C221   C     0.34080   0.49043   0.26402   0.00000  Uiso   1.00
C222   C     0.51368   0.65577   0.23646   0.00000  Uiso   1.00
C223   C     0.48531   0.34510   0.26401   0.00000  Uiso   1.00
C224   C     0.48949   0.38919   0.26023   0.00000  Uiso   1.00
C225   C     0.50990   0.61122   0.24019   0.00000  Uiso   1.00
C226   C     0.48853   0.58755   0.47484   0.00000  Uiso   1.00
C227   C     0.51840   0.48150   0.12944   0.00000  Uiso   1.00
C228   C     0.48208   0.51822   0.37112   0.00000  Uiso   1.00
C229   C     0.53928   0.42354   0.01675   0.00000  Uiso   1.00
C230   C     0.52546   0.47299   0.08140   0.00000  Uiso   1.00
C231   C     0.47513   0.57208   0.43652   0.00000  Uiso   1.00
C232   C     0.50557   0.56245   0.49753   0.00000  Uiso   1.00
C233   C     0.50364   0.51870   0.48575   0.00000  Uiso   1.00
C234   C     0.49168   0.50311   0.44559   0.00000  Uiso   1.00
C235   C     0.51422   0.49005   0.01152   0.00000  Uiso   1.00
C236   C     0.52193   0.44879   0.49287   0.00000  Uiso   1.00
C237   C     0.50852   0.43395   0.45354   0.00000  Uiso   1.00
C238   C     0.49131   0.46027   0.43250   0.00000  Uiso   1.00
Cl239  Cl    0.50482   0.38141   0.43215   0.00000  Uiso   1.00
Cl240  Cl    0.53587   0.58978   0.03384   0.00000  Uiso   1.00
H241   H     0.55169   0.41589   0.07991   0.00000  Uiso   1.00
H242   H     0.65252   0.47263   0.29023   0.00000  Uiso   1.00
H243   H     0.53981   0.33692   0.21107   0.00000  Uiso   1.00
H244   H     0.45890   0.66476   0.28963   0.00000  Uiso   1.00
H245   H     0.49815   0.52648   0.07518   0.00000  Uiso   1.00
H246   H     0.48850   0.62047   0.48533   0.00000  Uiso   1.00
H247   H     0.47710   0.44639   0.40560   0.00000  Uiso   1.00
H248   H     0.34890   0.52756   0.21021   0.00000  Uiso   1.00
O249   O     0.50000   0.50000   0.25000   0.00000  Uiso   1.00
O250   O     0.48784   0.45970   0.15459   0.00000  Uiso   1.00
O251   O     0.46274   0.53724   0.34968   0.00000  Uiso   1.00
O252   O     0.54157   0.51092   0.14606   0.00000  Uiso   1.00
O253   O     0.50785   0.49213   0.34968   0.00000  Uiso   1.00
O254   O     0.51264   0.41352   0.28214   0.00000  Uiso   1.00
O255   O     0.47965   0.59418   0.27013   0.00000  Uiso   1.00
O256   O     0.40745   0.46625   0.23413   0.00000  Uiso   1.00
O257   O     0.60026   0.52605   0.21361   0.00000  Uiso   1.00
O258   O     0.40405   0.52211   0.28213   0.00000  Uiso   1.00
O259   O     0.58824   0.48559   0.27014   0.00000  Uiso   1.00
O260   O     0.47093   0.40277   0.23413   0.00000  Uiso   1.00
O261   O     0.53678   0.58953   0.21360   0.00000  Uiso   1.00
Zn262  Zn    0.52672   0.47327   0.28734   0.00000  Uiso   1.00
Zn263  Zn    0.46713   0.45791   0.21876   0.00000  Uiso   1.00
Zn264  Zn    0.54389   0.53109   0.20657   0.00000  Uiso   1.00
Zn265  Zn    0.46226   0.53773   0.28733   0.00000  Uiso   1.00
Br266  Br    0.89894   0.37391   0.49232   0.00000  Uiso   1.00
Br267  Br    0.78829   0.61177   0.40774   0.00000  Uiso   1.00
C268   C     0.71940   0.49291   0.26008   0.00000  Uiso   1.00
C269   C     0.84616   0.49986   0.05703   0.00000  Uiso   1.00
C270   C     0.87373   0.43592   0.06092   0.00000  Uiso   1.00
C271   C     0.94743   0.50711   0.24005   0.00000  Uiso   1.00
C272   C     0.81360   0.53050   0.41912   0.00000  Uiso   1.00
C273   C     0.99326   0.50979   0.23605   0.00000  Uiso   1.00
C274   C     0.67413   0.49043   0.26402   0.00000  Uiso   1.00
C275   C     0.84701   0.65577   0.23646   0.00000  Uiso   1.00
C276   C     0.81864   0.34510   0.26401   0.00000  Uiso   1.00
C277   C     0.82283   0.38919   0.26023   0.00000  Uiso   1.00
C278   C     0.84323   0.61122   0.24019   0.00000  Uiso   1.00
C279   C     0.82186   0.58755   0.47484   0.00000  Uiso   1.00
C280   C     0.85174   0.48150   0.12944   0.00000  Uiso   1.00
C281   C     0.81541   0.51822   0.37112   0.00000  Uiso   1.00
C282   C     0.87261   0.42354   0.01675   0.00000  Uiso   1.00
C283   C     0.85879   0.47299   0.08140   0.00000  Uiso   1.00
C284   C     0.80846   0.57208   0.43652   0.00000  Uiso   1.00
C285   C     0.83891   0.56245   0.49753   0.00000  Uiso   1.00
C286   C     0.83697   0.51870   0.48575   0.00000  Uiso   1.00
C287   C     0.82502   0.50311   0.44559   0.00000  Uiso   1.00
C288   C     0.84755   0.49005   0.01152   0.00000  Uiso   1.00
C289   C     0.85527   0.44879   0.49287   0.00000  Uiso   1.00
C290   C     0.84185   0.43395   0.45354   0.00000  Uiso   1.00
C291   C     0.82464   0.46027   0.43250   0.00000  Uiso   1.00
Cl292  Cl    0.83815   0.38141   0.43215   0.00000  Uiso   1.00
Cl293  Cl    0.86920   0.58978   0.03384   0.00000  Uiso   1.00
H294   H     0.88502   0.41589   0.07991   0.00000  Uiso   1.00
H295   H     0.98585   0.47263   0.29023   0.00000  Uiso   1.00
H296   H     0.87314   0.33692   0.21107   0.00000  Uiso   1.00
H297   H     0.79224   0.66476   0.28963   0.00000  Uiso   1.00
H298   H     0.83148   0.52648   0.07518   0.00000  Uiso   1.00
H299   H     0.82184   0.62047   0.48533   0.00000  Uiso   1.00
H300   H     0.81043   0.44639   0.40560   0.00000  Uiso   1.00
H301   H     0.68223   0.52756   0.21021   0.00000  Uiso   1.00
O302   O     0.83333   0.50000   0.25000   0.00000  Uiso   1.00
O303   O     0.82118   0.45970   0.15459   0.00000  Uiso   1.00
O304   O     0.79607   0.53724   0.34968   0.00000  Uiso   1.00
O305   O     0.87491   0.51092   0.14606   0.00000  Uiso   1.00
O306   O     0.84118   0.49213   0.34968   0.00000  Uiso   1.00
O307   O     0.84597   0.41352   0.28214   0.00000  Uiso   1.00
O308   O     0.81298   0.59418   0.27013   0.00000  Uiso   1.00
O309   O     0.74078   0.46625   0.23413   0.00000  Uiso   1.00
O310   O     0.93360   0.52605   0.21361   0.00000  Uiso   1.00
O311   O     0.73738   0.52211   0.28213   0.00000  Uiso   1.00
O312   O     0.92158   0.48559   0.27014   0.00000  Uiso   1.00
O313   O     0.80426   0.40277   0.23413   0.00000  Uiso   1.00
O314   O     0.87012   0.58953   0.21360   0.00000  Uiso   1.00
Zn315  Zn    0.86005   0.47327   0.28734   0.00000  Uiso   1.00
Zn316  Zn    0.80046   0.45791   0.21876   0.00000  Uiso   1.00
Zn317  Zn    0.87723   0.53109   0.20657   0.00000  Uiso   1.00
Zn318  Zn    0.79560   0.53773   0.28733   0.00000  Uiso   1.00
Br319  Br    0.23227   0.70725   0.49232   0.00000  Uiso   1.00
Br320  Br    0.12162   0.94511   0.40774   0.00000  Uiso   1.00
C321   C     0.05274   0.82625   0.26008   0.00000  Uiso   1.00
C322   C     0.17950   0.83320   0.05703   0.00000  Uiso   1.00
C323   C     0.20706   0.76926   0.06092   0.00000  Uiso   1.00
C324   C     0.28076   0.84045   0.24005   0.00000  Uiso   1.00
C325   C     0.14693   0.86383   0.41912   0.00000  Uiso   1.00
C326   C     0.32659   0.84312   0.23605   0.00000  Uiso   1.00
C327   C     0.00746   0.82376   0.26402   0.00000  Uiso   1.00
C328   C     0.18034   0.98910   0.23646   0.00000  Uiso   1.00
C329   C     0.15198   0.67843   0.26401   0.00000  Uiso   1.00
C330   C     0.15616   0.72252   0.26023   0.00000  Uiso   1.00
C331   C     0.17656   0.94456   0.24019   0.00000  Uiso   1.00
C332   C     0.15519   0.92089   0.47484   0.00000  Uiso   1.00
C333   C     0.18507   0.81483   0.12944   0.00000  Uiso   1.00
C334   C     0.14875   0.85155   0.37112   0.00000  Uiso   1.00
C335   C     0.20595   0.75687   0.01675   0.00000  Uiso   1.00
C336   C     0.19213   0.80633   0.08140   0.00000  Uiso   1.00
C337   C     0.14180   0.90541   0.43652   0.00000  Uiso   1.00
C338   C     0.17224   0.89578   0.49753   0.00000  Uiso   1.00
C339   C     0.17030   0.85204   0.48575   0.00000  Uiso   1.00
C340   C     0.15835   0.83644   0.44559   0.00000  Uiso   1.00
C341   C     0.18088   0.82338   0.01152   0.00000  Uiso   1.00
C342   C     0.18860   0.78212   0.49287   0.00000  Uiso   1.00
C343   C     0.17518   0.76728   0.45354   0.00000  Uiso   1.00
C344   C     0.15798   0.79361   0.43250   0.00000  Uiso   1.00
Cl345  Cl    0.17148   0.71474   0.43215   0.00000  Uiso   1.00
Cl346  Cl    0.20254   0.92311   0.03384   0.00000  Uiso   1.00
H347   H     0.21835   0.74922   0.07991   0.00000  Uiso   1.00
H348   H     0.31918   0.80597   0.29023   0.00000  Uiso   1.00
H349   H     0.20648   0.67026   0.21107   0.00000  Uiso   1.00
H350   H     0.12557   0.99809   0.28963   0.00000  Uiso   1.00
H351   H     0.16481   0.85981   0.07518   0.00000  Uiso   1.00
H352   H     0.15517   0.95381   0.48533   0.00000  Uiso   1.00
H353   H     0.14377   0.77972   0.40560   0.00000  Uiso   1.00
H354   H     0.01557   0.86090   0.21021   0.00000  Uiso   1.00
O355   O     0.16667   0.83333   0.25000   0.00000  Uiso   1.00
O356   O     0.15451   0.79304   0.15459   0.00000  Uiso   1.00
O357   O     0.12940   0.87058   0.34968   0.00000  Uiso   1.00
O358   O     0.20824   0.84425   0.14606   0.00000  Uiso   1.00
O359   O     0.17451   0.82546   0.34968   0.00000  Uiso   1.00
O360   O     0.17930   0.74686   0.28214   0.00000  Uiso   1.00
O361   O     0.14632   0.92751   0.27013   0.00000  Uiso   1.00
O362   O     0.07412   0.79958   0.23413   0.00000  Uiso   1.00
O363   O     0.26693   0.85939   0.21361   0.00000  Uiso   1.00
O364   O     0.07071   0.85544   0.28213   0.00000  Uiso   1.00
O365   O     0.25491   0.81892   0.27014   0.00000  Uiso   1.00
O366   O     0.13760   0.73610   0.23413   0.00000  Uiso   1.00
O367   O     0.20345   0.92286   0.21360   0.00000  Uiso   1.00
Zn368  Zn    0.19338   0.80661   0.28734   0.00000  Uiso   1.00
Zn369  Zn    0.13379   0.79124   0.21876   0.00000  Uiso   1.00
Zn370  Zn    0.21056   0.86442   0.20657   0.00000  Uiso   1.00
Zn371  Zn    0.12893   0.87106   0.28733   0.00000  Uiso   1.00
Br372  Br    0.56560   0.70725   0.49232   0.00000  Uiso   1.00
Br373  Br    0.45495   0.94511   0.40774   0.00000  Uiso   1.00
C374   C     0.38607   0.82625   0.26008   0.00000  Uiso   1.00
C375   C     0.51283   0.83320   0.05703   0.00000  Uiso   1.00
C376   C     0.54040   0.76926   0.06092   0.00000  Uiso   1.00
C377   C     0.61409   0.84045   0.24005   0.00000  Uiso   1.00
C378   C     0.48027   0.86383   0.41912   0.00000  Uiso   1.00
C379   C     0.65993   0.84312   0.23605   0.00000  Uiso   1.00
C380   C     0.34080   0.82376   0.26402   0.00000  Uiso   1.00
C381   C     0.51368   0.98910   0.23646   0.00000  Uiso   1.00
C382   C     0.48531   0.67843   0.26401   0.00000  Uiso   1.00
C383   C     0.48949   0.72252   0.26023   0.00000  Uiso   1.00
C384   C     0.50990   0.94456   0.24019   0.00000  Uiso   1.00
C385   C     0.48853   0.92089   0.47484   0.00000  Uiso   1.00
C386   C     0.51840   0.81483   0.12944   0.00000  Uiso   1.00
C387   C     0.48208   0.85155   0.37112   0.00000  Uiso   1.00
C388   C     0.53928   0.75687   0.01675   0.00000  Uiso   1.00
C389   C     0.52546   0.80633   0.08140   0.00000  Uiso   1.00
C390   C     0.47513   0.90541   0.43652   0.00000  Uiso   1.00
C391   C     0.50557   0.89578   0.49753   0.00000  Uiso   1.00
C392   C     0.50364   0.85204   0.48575   0.00000  Uiso   1.00
C393   C     0.49168   0.83644   0.44559   0.00000  Uiso   1.00
C394   C     0.51422   0.82338   0.01152   0.00000  Uiso   1.00
C395   C     0.52193   0.78212   0.49287   0.00000  Uiso   1.00
C396   C     0.50852   0.76728   0.45354   0.00000  Uiso   1.00
C397   C     0.49131   0.79361   0.43250   0.00000  Uiso   1.00
Cl398  Cl    0.50482   0.71474   0.43215   0.00000  Uiso   1.00
Cl399  Cl    0.53587   0.92311   0.03384   0.00000  Uiso   1.00
H400   H     0.55169   0.74922   0.07991   0.00000  Uiso   1.00
H401   H     0.65252   0.80597   0.29023   0.00000  Uiso   1.00
H402   H     0.53981   0.67026   0.21107   0.00000  Uiso   1.00
H403   H     0.45890   0.99809   0.28963   0.00000  Uiso   1.00
H404   H     0.49815   0.85981   0.07518   0.00000  Uiso   1.00
H405   H     0.48850   0.95381   0.48533   0.00000  Uiso   1.00
H406   H     0.47710   0.77972   0.40560   0.00000  Uiso   1.00
H407   H     0.34890   0.86090   0.21021   0.00000  Uiso   1.00
O408   O     0.50000   0.83333   0.25000   0.00000  Uiso   1.00
O409   O     0.48784   0.79304   0.15459   0.00000  Uiso   1.00
O410   O     0.46274   0.87058   0.34968   0.00000  Uiso   1.00
O411   O     0.54157   0.84425   0.14606   0.00000  Uiso   1.00
O412   O     0.50785   0.82546   0.34968   0.00000  Uiso   1.00
O413   O     0.51264   0.74686   0.28214   0.00000  Uiso   1.00
O414   O     0.47965   0.92751   0.27013   0.00000  Uiso   1.00
O415   O     0.40745   0.79958   0.23413   0.00000  Uiso   1.00
O416   O     0.60026   0.85939   0.21361   0.00000  Uiso   1.00
O417   O     0.40405   0.85544   0.28213   0.00000  Uiso   1.00
O418   O     0.58824   0.81892   0.27014   0.00000  Uiso   1.00
O419   O     0.47093   0.73610   0.23413   0.00000  Uiso   1.00
O420   O     0.53678   0.92286   0.21360   0.00000  Uiso   1.00
Zn421  Zn    0.52672   0.80661   0.28734   0.00000  Uiso   1.00
Zn422  Zn    0.46713   0.79124   0.21876   0.00000  Uiso   1.00
Zn423  Zn    0.54389   0.86442   0.20657   0.00000  Uiso   1.00
Zn424  Zn    0.46226   0.87106   0.28733   0.00000  Uiso   1.00
Br425  Br    0.89894   0.70725   0.49232   0.00000  Uiso   1.00
Br426  Br    0.78829   0.94511   0.40774   0.00000  Uiso   1.00
C427   C     0.71940   0.82625   0.26008   0.00000  Uiso   1.00
C428   C     0.84616   0.83320   0.05703   0.00000  Uiso   1.00
C429   C     0.87373   0.76926   0.06092   0.00000  Uiso   1.00
C430   C     0.94743   0.84045   0.24005   0.00000  Uiso   1.00
C431   C     0.81360   0.86383   0.41912   0.00000  Uiso   1.00
C432   C     0.99326   0.84312   0.23605   0.00000  Uiso   1.00
C433   C     0.67413   0.82376   0.26402   0.00000  Uiso   1.00
C434   C     0.84701   0.98910   0.23646   0.00000  Uiso   1.00
C435   C     0.81864   0.67843   0.26401   0.00000  Uiso   1.00
C436   C     0.82283   0.72252   0.26023   0.00000  Uiso   1.00
C437   C     0.84323   0.94456   0.24019   0.00000  Uiso   1.00
C438   C     0.82186   0.92089   0.47484   0.00000  Uiso   1.00
C439   C     0.85174   0.81483   0.12944   0.00000  Uiso   1.00
C440   C     0.81541   0.85155   0.37112   0.00000  Uiso   1.00
C441   C     0.87261   0.75687   0.01675   0.00000  Uiso   1.00
C442   C     0.85879   0.80633   0.08140   0.00000  Uiso   1.00
C443   C     0.80846   0.90541   0.43652   0.00000  Uiso   1.00
C444   C     0.83891   0.89578   0.49753   0.00000  Uiso   1.00
C445   C     0.83697   0.85204   0.48575   0.00000  Uiso   1.00
C446   C     0.82502   0.83644   0.44559   0.00000  Uiso   1.00
C447   C     0.84755   0.82338   0.01152   0.00000  Uiso   1.00
C448   C     0.85527   0.78212   0.49287   0.00000  Uiso   1.00
C449   C     0.84185   0.76728   0.45354   0.00000  Uiso   1.00
C450   C     0.82464   0.79361   0.43250   0.00000  Uiso   1.00
Cl451  Cl    0.83815   0.71474   0.43215   0.00000  Uiso   1.00
Cl452  Cl    0.86920   0.92311   0.03384   0.00000  Uiso   1.00
H453   H     0.88502   0.74922   0.07991   0.00000  Uiso   1.00
H454   H     0.98585   0.80597   0.29023   0.00000  Uiso   1.00
H455   H     0.87314   0.67026   0.21107   0.00000  Uiso   1.00
H456   H     0.79224   0.99809   0.28963   0.00000  Uiso   1.00
H457   H     0.83148   0.85981   0.07518   0.00000  Uiso   1.00
H458   H     0.82184   0.95381   0.48533   0.00000  Uiso   1.00
H459   H     0.81043   0.77972   0.40560   0.00000  Uiso   1.00
H460   H     0.68223   0.86090   0.21021   0.00000  Uiso   1.00
O461   O     0.83333   0.83333   0.25000   0.00000  Uiso   1.00
O462   O     0.82118   0.79304   0.15459   0.00000  Uiso   1.00
O463   O     0.79607   0.87058   0.34968   0.00000  Uiso   1.00
O464   O     0.87491   0.84425   0.14606   0.00000  Uiso   1.00
O465   O     0.84118   0.82546   0.34968   0.00000  Uiso   1.00
O466   O     0.84597   0.74686   0.28214   0.00000  Uiso   1.00
O467   O     0.81298   0.92751   0.27013   0.00000  Uiso   1.00
O468   O     0.74078   0.79958   0.23413   0.00000  Uiso   1.00
O469   O     0.93360   0.85939   0.21361   0.00000  Uiso   1.00
O470   O     0.73738   0.85544   0.28213   0.00000  Uiso   1.00
O471   O     0.92158   0.81892   0.27014   0.00000  Uiso   1.00
O472   O     0.80426   0.73610   0.23413   0.00000  Uiso   1.00
O473   O     0.87012   0.92286   0.21360   0.00000  Uiso   1.00
Zn474  Zn    0.86005   0.80661   0.28734   0.00000  Uiso   1.00
Zn475  Zn    0.80046   0.79124   0.21876   0.00000  Uiso   1.00
Zn476  Zn    0.87723   0.86442   0.20657   0.00000  Uiso   1.00
Zn477  Zn    0.79560   0.87106   0.28733   0.00000  Uiso   1.00
Br478  Br    0.23227   0.04058   0.99232   0.00000  Uiso   1.00
Br479  Br    0.12162   0.27844   0.90774   0.00000  Uiso   1.00
C480   C     0.05274   0.15958   0.76008   0.00000  Uiso   1.00
C481   C     0.17950   0.16653   0.55703   0.00000  Uiso   1.00
C482   C     0.20706   0.10259   0.56092   0.00000  Uiso   1.00
C483   C     0.28076   0.17378   0.74005   0.00000  Uiso   1.00
C484   C     0.14693   0.19717   0.91912   0.00000  Uiso   1.00
C485   C     0.32659   0.17645   0.73605   0.00000  Uiso   1.00
C486   C     0.00746   0.15709   0.76402   0.00000  Uiso   1.00
C487   C     0.18034   0.32244   0.73646   0.00000  Uiso   1.00
C488   C     0.15198   0.01177   0.76401   0.00000  Uiso   1.00
C489   C     0.15616   0.05585   0.76023   0.00000  Uiso   1.00
C490   C     0.17656   0.27789   0.74019   0.00000  Uiso   1.00
C491   C     0.15519   0.25422   0.97484   0.00000  Uiso   1.00
C492   C     0.18507   0.14817   0.62944   0.00000  Uiso   1.00
C493   C     0.14875   0.18489   0.87112   0.00000  Uiso   1.00
C494   C     0.20595   0.09020   0.51675   0.00000  Uiso   1.00
C495   C     0.19213   0.13966   0.58140   0.00000  Uiso   1.00
C496   C     0.14180   0.23875   0.93652   0.00000  Uiso   1.00
C497   C     0.17224   0.22912   0.99753   0.00000  Uiso   1.00
C498   C     0.17030   0.18537   0.98575   0.00000  Uiso   1.00
C499   C     0.15835   0.16978   0.94559   0.00000  Uiso   1.00
C500   C     0.18088   0.15671   0.51152   0.00000  Uiso   1.00
C501   C     0.18860   0.11545   0.99287   0.00000  Uiso   1.00
C502   C     0.17518   0.10061   0.95354   0.00000  Uiso   1.00
C503   C     0.15798   0.12694   0.93250   0.00000  Uiso   1.00
Cl504  Cl    0.17148   0.04808   0.93215   0.00000  Uiso   1.00
Cl505  Cl    0.20254   0.25644   0.53384   0.00000  Uiso   1.00
H506   H     0.21835   0.08255   0.57991   0.00000  Uiso   1.00
H507   H     0.31918   0.13930   0.79023   0.00000  Uiso   1.00
H508   H     0.20648   0.00359   0.71107   0.00000  Uiso   1.00
H509   H     0.12557   0.33143   0.78963   0.00000  Uiso   1.00
H510   H     0.16481   0.19315   0.57518   0.00000  Uiso   1.00
H511   H     0.15517   0.28714   0.98533   0.00000  Uiso   1.00
H512   H     0.14377   0.11306   0.90560   0.00000  Uiso   1.00
H513   H     0.01557   0.19423   0.71021   0.00000  Uiso   1.00
O514   O     0.16667   0.16667   0.75000   0.00000  Uiso   1.00
O515   O     0.15451   0.12637   0.65459   0.00000  Uiso   1.00
O516   O     0.12940   0.20391   0.84968   0.00000  Uiso   1.00
O517   O     0.20824   0.17759   0.64606   0.00000  Uiso   1.00
O518   O     0.17451   0.15880   0.84968   0.00000  Uiso   1.00
O519   O     0.17930   0.08019   0.78214   0.00000  Uiso   1.00
O520   O     0.14632   0.26085   0.77013   0.00000  Uiso   1.00
O521   O     0.07412   0.13291   0.73413   0.00000  Uiso   1.00
O522   O     0.26693   0.19272   0.71361   0.00000  Uiso   1.00
O523   O     0.07071   0.18878   0.78213   0.00000  Uiso   1.00
O524   O     0.25491   0.15226   0.77014   0.00000  Uiso   1.00
O525   O     0.13760   0.06944   0.73413   0.00000  Uiso   1.00
O526   O     0.20345   0.25620   0.71360   0.00000  Uiso   1.00
Zn527  Zn    0.19338   0.13994   0.78734   0.00000  Uiso   1.00
Zn528  Zn    0.13379   0.12458   0.71876   0.00000  Uiso   1.00
Zn529  Zn    0.21056   0.19775   0.70657   0.00000  Uiso   1.00
Zn530  Zn    0.12893   0.20439   0.78733   0.00000  Uiso   1.00
Br531  Br    0.56560   0.04058   0.99232   0.00000  Uiso   1.00
Br532  Br    0.45495   0.27844   0.90774   0.00000  Uiso   1.00
C533   C     0.38607   0.15958   0.76008   0.00000  Uiso   1.00
C534   C     0.51283   0.16653   0.55703   0.00000  Uiso   1.00
C535   C     0.54040   0.10259   0.56092   0.00000  Uiso   1.00
C536   C     0.61409   0.17378   0.74005   0.00000  Uiso   1.00
C537   C     0.48027   0.19717   0.91912   0.00000  Uiso   1.00
C538   C     0.65993   0.17645   0.73605   0.00000  Uiso   1.00
C539   C     0.34080   0.15709   0.76402   0.00000  Uiso   1.00
C540   C     0.51368   0.32244   0.73646   0.00000  Uiso   1.00
C541   C     0.48531   0.01177   0.76401   0.00000  Uiso   1.00
C542   C     0.48949   0.05585   0.76023   0.00000  Uiso   1.00
C543   C     0.50990   0.27789   0.74019   0.00000  Uiso   1.00
C544   C     0.48853   0.25422   0.97484   0.00000  Uiso   1.00
C545   C     0.51840   0.14817   0.62944   0.00000  Uiso   1.00
C546   C     0.48208   0.18489   0.87112   0.00000  Uiso   1.00
C547   C     0.53928   0.09020   0.51675   0.00000  Uiso   1.00
C548   C     0.52546   0.13966   0.58140   0.00000  Uiso   1.00
C549   C     0.47513   0.23875   0.93652   0.00000  Uiso   1.00
C550   C     0.50557   0.22912   0.99753   0.00000  Uiso   1.00
C551   C     0.50364   0.18537   0.98575   0.00000  Uiso   1.00
C552   C     0.49168   0.16978   0.94559   0.00000  Uiso   1.00
C553   C     0.51422   0.15671   0.51152   0.00000  Uiso   1.00
C554   C     0.52193   0.11545   0.99287   0.00000  Uiso   1.00
C555   C     0.50852   0.10061   0.95354   0.00000  Uiso   1.00
C556   C     0.49131   0.12694   0.93250   0.00000  Uiso   1.00
Cl557  Cl    0.50482   0.04808   0.93215   0.00000  Uiso   1.00
Cl558  Cl    0.53587   0.25644   0.53384   0.00000  Uiso   1.00
H559   H     0.55169   0.08255   0.57991   0.00000  Uiso   1.00
H560   H     0.65252   0.13930   0.79023   0.00000  Uiso   1.00
H561   H     0.53981   0.00359   0.71107   0.00000  Uiso   1.00
H562   H     0.45890   0.33143   0.78963   0.00000  Uiso   1.00
H563   H     0.49815   0.19315   0.57518   0.00000  Uiso   1.00
H564   H     0.48850   0.28714   0.98533   0.00000  Uiso   1.00
H565   H     0.47710   0.11306   0.90560   0.00000  Uiso   1.00
H566   H     0.34890   0.19423   0.71021   0.00000  Uiso   1.00
O567   O     0.50000   0.16667   0.75000   0.00000  Uiso   1.00
O568   O     0.48784   0.12637   0.65459   0.00000  Uiso   1.00
O569   O     0.46274   0.20391   0.84968   0.00000  Uiso   1.00
O570   O     0.54157   0.17759   0.64606   0.00000  Uiso   1.00
O571   O     0.50785   0.15880   0.84968   0.00000  Uiso   1.00
O572   O     0.51264   0.08019   0.78214   0.00000  Uiso   1.00
O573   O     0.47965   0.26085   0.77013   0.00000  Uiso   1.00
O574   O     0.40745   0.13291   0.73413   0.00000  Uiso   1.00
O575   O     0.60026   0.19272   0.71361   0.00000  Uiso   1.00
O576   O     0.40405   0.18878   0.78213   0.00000  Uiso   1.00
O577   O     0.58824   0.15226   0.77014   0.00000  Uiso   1.00
O578   O     0.47093   0.06944   0.73413   0.00000  Uiso   1.00
O579   O     0.53678   0.25620   0.71360   0.00000  Uiso   1.00
Zn580  Zn    0.52672   0.13994   0.78734   0.00000  Uiso   1.00
Zn581  Zn    0.46713   0.12458   0.71876   0.00000  Uiso   1.00
Zn582  Zn    0.54389   0.19775   0.70657   0.00000  Uiso   1.00
Zn583  Zn    0.46226   0.20439   0.78733   0.00000  Uiso   1.00
Br584  Br    0.89894   0.04058   0.99232   0.00000  Uiso   1.00
Br585  Br    0.78829   0.27844   0.90774   0.00000  Uiso   1.00
C586   C     0.71940   0.15958   0.76008   0.00000  Uiso   1.00
C587   C     0.84616   0.16653   0.55703   0.00000  Uiso   1.00
C588   C     0.87373   0.10259   0.56092   0.00000  Uiso   1.00
C589   C     0.94743   0.17378   0.74005   0.00000  Uiso   1.00
C590   C     0.81360   0.19717   0.91912   0.00000  Uiso   1.00
C591   C     0.99326   0.17645   0.73605   0.00000  Uiso   1.00
C592   C     0.67413   0.15709   0.76402   0.00000  Uiso   1.00
C593   C     0.84701   0.32244   0.73646   0.00000  Uiso   1.00
C594   C     0.81864   0.01177   0.76401   0.00000  Uiso   1.00
C595   C     0.82283   0.05585   0.76023   0.00000  Uiso   1.00
C596   C     0.84323   0.27789   0.74019   0.00000  Uiso   1.00
C597   C     0.82186   0.25422   0.97484   0.00000  Uiso   1.00
C598   C     0.85174   0.14817   0.62944   0.00000  Uiso   1.00
C599   C     0.81541   0.18489   0.87112   0.00000  Uiso   1.00
C600   C     0.87261   0.09020   0.51675   0.00000  Uiso   1.00
C601   C     0.85879   0.13966   0.58140   0.00000  Uiso   1.00
C602   C     0.80846   0.23875   0.93652   0.00000  Uiso   1.00
C603   C     0.83891   0.22912   0.99753   0.00000  Uiso   1.00
C604   C     0.83697   0.18537   0.98575   0.00000  Uiso   1.00
C605   C     0.82502   0.16978   0.94559   0.00000  Uiso   1.00
C606   C     0.84755   0.15671   0.51152   0.00000  Uiso   1.00
C607   C     0.85527   0.11545   0.99287   0.00000  Uiso   1.00
C608   C     0.84185   0.10061   0.95354   0.00000  Uiso   1.00
C609   C     0.82464   0.12694   0.93250   0.00000  Uiso   1.00
Cl610  Cl    0.83815   0.04808   0.93215   0.00000  Uiso   1.00
Cl611  Cl    0.86920   0.25644   0.53384   0.00000  Uiso   1.00
H612   H     0.88502   0.08255   0.57991   0.00000  Uiso   1.00
H613   H     0.98585   0.13930   0.79023   0.00000  Uiso   1.00
H614   H     0.87314   0.00359   0.71107   0.00000  Uiso   1.00
H615   H     0.79224   0.33143   0.78963   0.00000  Uiso   1.00
H616   H     0.83148   0.19315   0.57518   0.00000  Uiso   1.00
H617   H     0.82184   0.28714   0.98533   0.00000  Uiso   1.00
H618   H     0.81043   0.11306   0.90560   0.00000  Uiso   1.00
H619   H     0.68223   0.19423   0.71021   0.00000  Uiso   1.00
O620   O     0.83333   0.16667   0.75000   0.00000  Uiso   1.00
O621   O     0.82118   0.12637   0.65459   0.00000  Uiso   1.00
O622   O     0.79607   0.20391   0.84968   0.00000  Uiso   1.00
O623   O     0.87491   0.17759   0.64606   0.00000  Uiso   1.00
O624   O     0.84118   0.15880   0.84968   0.00000  Uiso   1.00
O625   O     0.84597   0.08019   0.78214   0.00000  Uiso   1.00
O626   O     0.81298   0.26085   0.77013   0.00000  Uiso   1.00
O627   O     0.74078   0.13291   0.73413   0.00000  Uiso   1.00
O628   O     0.93360   0.19272   0.71361   0.00000  Uiso   1.00
O629   O     0.73738   0.18878   0.78213   0.00000  Uiso   1.00
O630   O     0.92158   0.15226   0.77014   0.00000  Uiso   1.00
O631   O     0.80426   0.06944   0.73413   0.00000  Uiso   1.00
O632   O     0.87012   0.25620   0.71360   0.00000  Uiso   1.00
Zn633  Zn    0.86005   0.13994   0.78734   0.00000  Uiso   1.00
Zn634  Zn    0.80046   0.12458   0.71876   0.00000  Uiso   1.00
Zn635  Zn    0.87723   0.19775   0.70657   0.00000  Uiso   1.00
Zn636  Zn    0.79560   0.20439   0.78733   0.00000  Uiso   1.00
Br637  Br    0.23227   0.37391   0.99232   0.00000  Uiso   1.00
Br638  Br    0.12162   0.61177   0.90774   0.00000  Uiso   1.00
C639   C     0.05274   0.49291   0.76008   0.00000  Uiso   1.00
C640   C     0.17950   0.49986   0.55703   0.00000  Uiso   1.00
C641   C     0.20706   0.43592   0.56092   0.00000  Uiso   1.00
C642   C     0.28076   0.50711   0.74005   0.00000  Uiso   1.00
C643   C     0.14693   0.53050   0.91912   0.00000  Uiso   1.00
C644   C     0.32659   0.50979   0.73605   0.00000  Uiso   1.00
C645   C     0.00746   0.49043   0.76402   0.00000  Uiso   1.00
C646   C     0.18034   0.65577   0.73646   0.00000  Uiso   1.00
C647   C     0.15198   0.34510   0.76401   0.00000  Uiso   1.00
C648   C     0.15616   0.38919   0.76023   0.00000  Uiso   1.00
C649   C     0.17656   0.61122   0.74019   0.00000  Uiso   1.00
C650   C     0.15519   0.58755   0.97484   0.00000  Uiso   1.00
C651   C     0.18507   0.48150   0.62944   0.00000  Uiso   1.00
C652   C     0.14875   0.51822   0.87112   0.00000  Uiso   1.00
C653   C     0.20595   0.42354   0.51675   0.00000  Uiso   1.00
C654   C     0.19213   0.47299   0.58140   0.00000  Uiso   1.00
C655   C     0.14180   0.57208   0.93652   0.00000  Uiso   1.00
C656   C     0.17224   0.56245   0.99753   0.00000  Uiso   1.00
C657   C     0.17030   0.51870   0.98575   0.00000  Uiso   1.00
C658   C     0.15835   0.50311   0.94559   0.00000  Uiso   1.00
C659   C     0.18088   0.49005   0.51152   0.00000  Uiso   1.00
C660   C     0.18860   0.44879   0.99287   0.00000  Uiso   1.00
C661   C     0.17518   0.43395   0.95354   0.00000  Uiso   1.00
C662   C     0.15798   0.46027   0.93250   0.00000  Uiso   1.00
Cl663  Cl    0.17148   0.38141   0.93215   0.00000  Uiso   1.00
Cl664  Cl    0.20254   0.58978   0.53384   0.00000  Uiso   1.00
H665   H     0.21835   0.41589   0.57991   0.00000  Uiso   1.00
H666   H     0.31918   0.47263   0.79023   0.00000  Uiso   1.00
H667   H     0.20648   0.33692   0.71107   0.00000  Uiso   1.00
H668   H     0.12557   0.66476   0.78963   0.00000  Uiso   1.00
H669   H     0.16481   0.52648   0.57518   0.00000  Uiso   1.00
H670   H     0.15517   0.62047   0.98533   0.00000  Uiso   1.00
H671   H     0.14377   0.44639   0.90560   0.00000  Uiso   1.00
H672   H     0.01557   0.52756   0.71021   0.00000  Uiso   1.00
O673   O     0.16667   0.50000   0.75000   0.00000  Uiso   1.00
O674   O     0.15451   0.45970   0.65459   0.00000  Uiso   1.00
O675   O     0.12940   0.53724   0.84968   0.00000  Uiso   1.00
O676   O     0.20824   0.51092   0.64606   0.00000  Uiso   1.00
O677   O     0.17451   0.49213   0.84968   0.00000  Uiso   1.00
O678   O     0.17930   0.41352   0.78214   0.00000  Uiso   1.00
O679   O     0.14632   0.59418   0.77013   0.00000  Uiso   1.00
O680   O     0.07412   0.46625   0.73413   0.00000  Uiso   1.00
O681   O     0.26693   0.52605   0.71361   0.00000  Uiso   1.00
O682   O     0.07071   0.52211   0.78213   0.00000  Uiso   1.00
O683   O     0.25491   0.48559   0.77014   0.00000  Uiso   1.00
O684   O     0.13760   0.40277   0.73413   0.00000  Uiso   1.00
O685   O     0.20345   0.58953   0.71360   0.00000  Uiso   1.00
Zn686  Zn    0.19338   0.47327   0.78734   0.00000  Uiso   1.00
Zn687  Zn    0.13379   0.45791   0.71876   0.00000  Uiso   1.00
Zn688  Zn    0.21056   0.53109   0.70657   0.00000  Uiso   1.00
Zn689  Zn    0.12893   0.53773   0.78733   0.00000  Uiso   1.00
Br690  Br    0.56560   0.37391   0.99232   0.00000  Uiso   1.00
Br691  Br    0.45495   0.61177   0.90774   0.00000  Uiso   1.00
C692   C     0.38607   0.49291   0.76008   0.00000  Uiso   1.00
C693   C     0.51283   0.49986   0.55703   0.00000  Uiso   1.00
C694   C     0.54040   0.43592   0.56092   0.00000  Uiso   1.00
C695   C     0.61409   0.50711   0.74005   0.00000  Uiso   1.00
C696   C     0.48027   0.53050   0.91912   0.00000  Uiso   1.00
C697   C     0.65993   0.50979   0.73605   0.00000  Uiso   1.00
C698   C     0.34080   0.49043   0.76402   0.00000  Uiso   1.00
C699   C     0.51368   0.65577   0.73646   0.00000  Uiso   1.00
C700   C     0.48531   0.34510   0.76401   0.00000  Uiso   1.00
C701   C     0.48949   0.38919   0.76023   0.00000  Uiso   1.00
C702   C     0.50990   0.61122   0.74019   0.00000  Uiso   1.00
C703   C     0.48853   0.58755   0.97484   0.00000  Uiso   1.00
C704   C     0.51840   0.48150   0.62944   0.00000  Uiso   1.00
C705   C     0.48208   0.51822   0.87112   0.00000  Uiso   1.00
C706   C     0.53928   0.42354   0.51675   0.00000  Uiso   1.00
C707   C     0.52546   0.47299   0.58140   0.00000  Uiso   1.00
C708   C     0.47513   0.57208   0.93652   0.00000  Uiso   1.00
C709   C     0.50557   0.56245   0.99753   0.00000  Uiso   1.00
C710   C     0.50364   0.51870   0.98575   0.00000  Uiso   1.00
C711   C     0.49168   0.50311   0.94559   0.00000  Uiso   1.00
C712   C     0.51422   0.49005   0.51152   0.00000  Uiso   1.00
C713   C     0.52193   0.44879   0.99287   0.00000  Uiso   1.00
C714   C     0.50852   0.43395   0.95354   0.00000  Uiso   1.00
C715   C     0.49131   0.46027   0.93250   0.00000  Uiso   1.00
Cl716  Cl    0.50482   0.38141   0.93215   0.00000  Uiso   1.00
Cl717  Cl    0.53587   0.58978   0.53384   0.00000  Uiso   1.00
H718   H     0.55169   0.41589   0.57991   0.00000  Uiso   1.00
H719   H     0.65252   0.47263   0.79023   0.00000  Uiso   1.00
H720   H     0.53981   0.33692   0.71107   0.00000  Uiso   1.00
H721   H     0.45890   0.66476   0.78963   0.00000  Uiso   1.00
H722   H     0.49815   0.52648   0.57518   0.00000  Uiso   1.00
H723   H     0.48850   0.62047   0.98533   0.00000  Uiso   1.00
H724   H     0.47710   0.44639   0.90560   0.00000  Uiso   1.00
H725   H     0.34890   0.52756   0.71021   0.00000  Uiso   1.00
O726   O     0.50000   0.50000   0.75000   0.00000  Uiso   1.00
O727   O     0.48784   0.45970   0.65459   0.00000  Uiso   1.00
O728   O     0.46274   0.53724   0.84968   0.00000  Uiso   1.00
O729   O     0.54157   0.51092   0.64606   0.00000  Uiso   1.00
O730   O     0.50785   0.49213   0.84968   0.00000  Uiso   1.00
O731   O     0.51264   0.41352   0.78214   0.00000  Uiso   1.00
O732   O     0.47965   0.59418   0.77013   0.00000  Uiso   1.00
O733   O     0.40745   0.46625   0.73413   0.00000  Uiso   1.00
O734   O     0.60026   0.52605   0.71361   0.00000  Uiso   1.00
O735   O     0.40405   0.52211   0.78213   0.00000  Uiso   1.00
O736   O     0.58824   0.48559   0.77014   0.00000  Uiso   1.00
O737   O     0.47093   0.40277   0.73413   0.00000  Uiso   1.00
O738   O     0.53678   0.58953   0.71360   0.00000  Uiso   1.00
Zn739  Zn    0.52672   0.47327   0.78734   0.00000  Uiso   1.00
Zn740  Zn    0.46713   0.45791   0.71876   0.00000  Uiso   1.00
Zn741  Zn    0.54389   0.53109   0.70657   0.00000  Uiso   1.00
Zn742  Zn    0.46226   0.53773   0.78733   0.00000  Uiso   1.00
Br743  Br    0.89894   0.37391   0.99232   0.00000  Uiso   1.00
Br744  Br    0.78829   0.61177   0.90774   0.00000  Uiso   1.00
C745   C     0.71940   0.49291   0.76008   0.00000  Uiso   1.00
C746   C     0.84616   0.49986   0.55703   0.00000  Uiso   1.00
C747   C     0.87373   0.43592   0.56092   0.00000  Uiso   1.00
C748   C     0.94743   0.50711   0.74005   0.00000  Uiso   1.00
C749   C     0.81360   0.53050   0.91912   0.00000  Uiso   1.00
C750   C     0.99326   0.50979   0.73605   0.00000  Uiso   1.00
C751   C     0.67413   0.49043   0.76402   0.00000  Uiso   1.00
C752   C     0.84701   0.65577   0.73646   0.00000  Uiso   1.00
C753   C     0.81864   0.34510   0.76401   0.00000  Uiso   1.00
C754   C     0.82283   0.38919   0.76023   0.00000  Uiso   1.00
C755   C     0.84323   0.61122   0.74019   0.00000  Uiso   1.00
C756   C     0.82186   0.58755   0.97484   0.00000  Uiso   1.00
C757   C     0.85174   0.48150   0.62944   0.00000  Uiso   1.00
C758   C     0.81541   0.51822   0.87112   0.00000  Uiso   1.00
C759   C     0.87261   0.42354   0.51675   0.00000  Uiso   1.00
C760   C     0.85879   0.47299   0.58140   0.00000  Uiso   1.00
C761   C     0.80846   0.57208   0.93652   0.00000  Uiso   1.00
C762   C     0.83891   0.56245   0.99753   0.00000  Uiso   1.00
C763   C     0.83697   0.51870   0.98575   0.00000  Uiso   1.00
C764   C     0.82502   0.50311   0.94559   0.00000  Uiso   1.00
C765   C     0.84755   0.49005   0.51152   0.00000  Uiso   1.00
C766   C     0.85527   0.44879   0.99287   0.00000  Uiso   1.00
C767   C     0.84185   0.43395   0.95354   0.00000  Uiso   1.00
C768   C     0.82464   0.46027   0.93250   0.00000  Uiso   1.00
Cl769  Cl    0.83815   0.38141   0.93215   0.00000  Uiso   1.00
Cl770  Cl    0.86920   0.58978   0.53384   0.00000  Uiso   1.00
H771   H     0.88502   0.41589   0.57991   0.00000  Uiso   1.00
H772   H     0.98585   0.47263   0.79023   0.00000  Uiso   1.00
H773   H     0.87314   0.33692   0.71107   0.00000  Uiso   1.00
H774   H     0.79224   0.66476   0.78963   0.00000  Uiso   1.00
H775   H     0.83148   0.52648   0.57518   0.00000  Uiso   1.00
H776   H     0.82184   0.62047   0.98533   0.00000  Uiso   1.00
H777   H     0.81043   0.44639   0.90560   0.00000  Uiso   1.00
H778   H     0.68223   0.52756   0.71021   0.00000  Uiso   1.00
O779   O     0.83333   0.50000   0.75000   0.00000  Uiso   1.00
O780   O     0.82118   0.45970   0.65459   0.00000  Uiso   1.00
O781   O     0.79607   0.53724   0.84968   0.00000  Uiso   1.00
O782   O     0.87491   0.51092   0.64606   0.00000  Uiso   1.00
O783   O     0.84118   0.49213   0.84968   0.00000  Uiso   1.00
O784   O     0.84597   0.41352   0.78214   0.00000  Uiso   1.00
O785   O     0.81298   0.59418   0.77013   0.00000  Uiso   1.00
O786   O     0.74078   0.46625   0.73413   0.00000  Uiso   1.00
O787   O     0.93360   0.52605   0.71361   0.00000  Uiso   1.00
O788   O     0.73738   0.52211   0.78213   0.00000  Uiso   1.00
O789   O     0.92158   0.48559   0.77014   0.00000  Uiso   1.00
O790   O     0.80426   0.40277   0.73413   0.00000  Uiso   1.00
O791   O     0.87012   0.58953   0.71360   0.00000  Uiso   1.00
Zn792  Zn    0.86005   0.47327   0.78734   0.00000  Uiso   1.00
Zn793  Zn    0.80046   0.45791   0.71876   0.00000  Uiso   1.00
Zn794  Zn    0.87723   0.53109   0.70657   0.00000  Uiso   1.00
Zn795  Zn    0.79560   0.53773   0.78733   0.00000  Uiso   1.00
Br796  Br    0.23227   0.70725   0.99232   0.00000  Uiso   1.00
Br797  Br    0.12162   0.94511   0.90774   0.00000  Uiso   1.00
C798   C     0.05274   0.82625   0.76008   0.00000  Uiso   1.00
C799   C     0.17950   0.83320   0.55703   0.00000  Uiso   1.00
C800   C     0.20706   0.76926   0.56092   0.00000  Uiso   1.00
C801   C     0.28076   0.84045   0.74005   0.00000  Uiso   1.00
C802   C     0.14693   0.86383   0.91912   0.00000  Uiso   1.00
C803   C     0.32659   0.84312   0.73605   0.00000  Uiso   1.00
C804   C     0.00746   0.82376   0.76402   0.00000  Uiso   1.00
C805   C     0.18034   0.98910   0.73646   0.00000  Uiso   1.00
C806   C     0.15198   0.67843   0.76401   0.00000  Uiso   1.00
C807   C     0.15616   0.72252   0.76023   0.00000  Uiso   1.00
C808   C     0.17656   0.94456   0.74019   0.00000  Uiso   1.00
C809   C     0.15519   0.92089   0.97484   0.00000  Uiso   1.00
C810   C     0.18507   0.81483   0.62944   0.00000  Uiso   1.00
C811   C     0.14875   0.85155   0.87112   0.00000  Uiso   1.00
C812   C     0.20595   0.75687   0.51675   0.00000  Uiso   1.00
C813   C     0.19213   0.80633   0.58140   0.00000  Uiso   1.00
C814   C     0.14180   0.90541   0.93652   0.00000  Uiso   1.00
C815   C     0.17224   0.89578   0.99753   0.00000  Uiso   1.00
C816   C     0.17030   0.85204   0.98575   0.00000  Uiso   1.00
C817   C     0.15835   0.83644   0.94559   0.00000  Uiso   1.00
C818   C     0.18088   0.82338   0.51152   0.00000  Uiso   1.00
C819   C     0.18860   0.78212   0.99287   0.00000  Uiso   1.00
C820   C     0.17518   0.76728   0.95354   0.00000  Uiso   1.00
C821   C     0.15798   0.79361   0.93250   0.00000  Uiso   1.00
Cl822  Cl    0.17148   0.71474   0.93215   0.00000  Uiso   1.00
Cl823  Cl    0.20254   0.92311   0.53384   0.00000  Uiso   1.00
H824   H     0.21835   0.74922   0.57991   0.00000  Uiso   1.00
H825   H     0.31918   0.80597   0.79023   0.00000  Uiso   1.00
H826   H     0.20648   0.67026   0.71107   0.00000  Uiso   1.00
H827   H     0.12557   0.99809   0.78963   0.00000  Uiso   1.00
H828   H     0.16481   0.85981   0.57518   0.00000  Uiso   1.00
H829   H     0.15517   0.95381   0.98533   0.00000  Uiso   1.00
H830   H     0.14377   0.77972   0.90560   0.00000  Uiso   1.00
H831   H     0.01557   0.86090   0.71021   0.00000  Uiso   1.00
O832   O     0.16667   0.83333   0.75000   0.00000  Uiso   1.00
O833   O     0.15451   0.79304   0.65459   0.00000  Uiso   1.00
O834   O     0.12940   0.87058   0.84968   0.00000  Uiso   1.00
O835   O     0.20824   0.84425   0.64606   0.00000  Uiso   1.00
O836   O     0.17451   0.82546   0.84968   0.00000  Uiso   1.00
O837   O     0.17930   0.74686   0.78214   0.00000  Uiso   1.00
O838   O     0.14632   0.92751   0.77013   0.00000  Uiso   1.00
O839   O     0.07412   0.79958   0.73413   0.00000  Uiso   1.00
O840   O     0.26693   0.85939   0.71361   0.00000  Uiso   1.00
O841   O     0.07071   0.85544   0.78213   0.00000  Uiso   1.00
O842   O     0.25491   0.81892   0.77014   0.00000  Uiso   1.00
O843   O     0.13760   0.73610   0.73413   0.00000  Uiso   1.00
O844   O     0.20345   0.92286   0.71360   0.00000  Uiso   1.00
Zn845  Zn    0.19338   0.80661   0.78734   0.00000  Uiso   1.00
Zn846  Zn    0.13379   0.79124   0.71876   0.00000  Uiso   1.00
Zn847  Zn    0.21056   0.86442   0.70657   0.00000  Uiso   1.00
Zn848  Zn    0.12893   0.87106   0.78733   0.00000  Uiso   1.00
Br849  Br    0.56560   0.70725   0.99232   0.00000  Uiso   1.00
Br850  Br    0.45495   0.94511   0.90774   0.00000  Uiso   1.00
C851   C     0.38607   0.82625   0.76008   0.00000  Uiso   1.00
C852   C     0.51283   0.83320   0.55703   0.00000  Uiso   1.00
C853   C     0.54040   0.76926   0.56092   0.00000  Uiso   1.00
C854   C     0.61409   0.84045   0.74005   0.00000  Uiso   1.00
C855   C     0.48027   0.86383   0.91912   0.00000  Uiso   1.00
C856   C     0.65993   0.84312   0.73605   0.00000  Uiso   1.00
C857   C     0.34080   0.82376   0.76402   0.00000  Uiso   1.00
C858   C     0.51368   0.98910   0.73646   0.00000  Uiso   1.00
C859   C     0.48531   0.67843   0.76401   0.00000  Uiso   1.00
C860   C     0.48949   0.72252   0.76023   0.00000  Uiso   1.00
C861   C     0.50990   0.94456   0.74019   0.00000  Uiso   1.00
C862   C     0.48853   0.92089   0.97484   0.00000  Uiso   1.00
C863   C     0.51840   0.81483   0.62944   0.00000  Uiso   1.00
C864   C     0.48208   0.85155   0.87112   0.00000  Uiso   1.00
C865   C     0.53928   0.75687   0.51675   0.00000  Uiso   1.00
C866   C     0.52546   0.80633   0.58140   0.00000  Uiso   1.00
C867   C     0.47513   0.90541   0.93652   0.00000  Uiso   1.00
C868   C     0.50557   0.89578   0.99753   0.00000  Uiso   1.00
C869   C     0.50364   0.85204   0.98575   0.00000  Uiso   1.00
C870   C     0.49168   0.83644   0.94559   0.00000  Uiso   1.00
C871   C     0.51422   0.82338   0.51152   0.00000  Uiso   1.00
C872   C     0.52193   0.78212   0.99287   0.00000  Uiso   1.00
C873   C     0.50852   0.76728   0.95354   0.00000  Uiso   1.00
C874   C     0.49131   0.79361   0.93250   0.00000  Uiso   1.00
Cl875  Cl    0.50482   0.71474   0.93215   0.00000  Uiso   1.00
Cl876  Cl    0.53587   0.92311   0.53384   0.00000  Uiso   1.00
H877   H     0.55169   0.74922   0.57991   0.00000  Uiso   1.00
H878   H     0.65252   0.80597   0.79023   0.00000  Uiso   1.00
H879   H     0.53981   0.67026   0.71107   0.00000  Uiso   1.00
H880   H     0.45890   0.99809   0.78963   0.00000  Uiso   1.00
H881   H     0.49815   0.85981   0.57518   0.00000  Uiso   1.00
H882   H     0.48850   0.95381   0.98533   0.00000  Uiso   1.00
H883   H     0.47710   0.77972   0.90560   0.00000  Uiso   1.00
H884   H     0.34890   0.86090   0.71021   0.00000  Uiso   1.00
O885   O     0.50000   0.83333   0.75000   0.00000  Uiso   1.00
O886   O     0.48784   0.79304   0.65459   0.00000  Uiso   1.00
O887   O     0.46274   0.87058   0.84968   0.00000  Uiso   1.00
O888   O     0.54157   0.84425   0.64606   0.00000  Uiso   1.00
O889   O     0.50785   0.82546   0.84968   0.00000  Uiso   1.00
O890   O     0.51264   0.74686   0.78214   0.00000  Uiso   1.00
O891   O     0.47965   0.92751   0.77013   0.00000  Uiso   1.00
O892   O     0.40745   0.79958   0.73413   0.00000  Uiso   1.00
O893   O     0.60026   0.85939   0.71361   0.00000  Uiso   1.00
O894   O     0.40405   0.85544   0.78213   0.00000  Uiso   1.00
O895   O     0.58824   0.81892   0.77014   0.00000  Uiso   1.00
O896   O     0.47093   0.73610   0.73413   0.00000  Uiso   1.00
O897   O     0.53678   0.92286   0.71360   0.00000  Uiso   1.00
Zn898  Zn    0.52672   0.80661   0.78734   0.00000  Uiso   1.00
Zn899  Zn    0.46713   0.79124   0.71876   0.00000  Uiso   1.00
Zn900  Zn    0.54389   0.86442   0.70657   0.00000  Uiso   1.00
Zn901  Zn    0.46226   0.87106   0.78733   0.00000  Uiso   1.00
Br902  Br    0.89894   0.70725   0.99232   0.00000  Uiso   1.00
Br903  Br    0.78829   0.94511   0.90774   0.00000  Uiso   1.00
C904   C     0.71940   0.82625   0.76008   0.00000  Uiso   1.00
C905   C     0.84616   0.83320   0.55703   0.00000  Uiso   1.00
C906   C     0.87373   0.76926   0.56092   0.00000  Uiso   1.00
C907   C     0.94743   0.84045   0.74005   0.00000  Uiso   1.00
C908   C     0.81360   0.86383   0.91912   0.00000  Uiso   1.00
C909   C     0.99326   0.84312   0.73605   0.00000  Uiso   1.00
C910   C     0.67413   0.82376   0.76402   0.00000  Uiso   1.00
C911   C     0.84701   0.98910   0.73646   0.00000  Uiso   1.00
C912   C     0.81864   0.67843   0.76401   0.00000  Uiso   1.00
C913   C     0.82283   0.72252   0.76023   0.00000  Uiso   1.00
C914   C     0.84323   0.94456   0.74019   0.00000  Uiso   1.00
C915   C     0.82186   0.92089   0.97484   0.00000  Uiso   1.00
C916   C     0.85174   0.81483   0.62944   0.00000  Uiso   1.00
C917   C     0.81541   0.85155   0.87112   0.00000  Uiso   1.00
C918   C     0.87261   0.75687   0.51675   0.00000  Uiso   1.00
C919   C     0.85879   0.80633   0.58140   0.00000  Uiso   1.00
C920   C     0.80846   0.90541   0.93652   0.00000  Uiso   1.00
C921   C     0.83891   0.89578   0.99753   0.00000  Uiso   1.00
C922   C     0.83697   0.85204   0.98575   0.00000  Uiso   1.00
C923   C     0.82502   0.83644   0.94559   0.00000  Uiso   1.00
C924   C     0.84755   0.82338   0.51152   0.00000  Uiso   1.00
C925   C     0.85527   0.78212   0.99287   0.00000  Uiso   1.00
C926   C     0.84185   0.76728   0.95354   0.00000  Uiso   1.00
C927   C     0.82464   0.79361   0.93250   0.00000  Uiso   1.00
Cl928  Cl    0.83815   0.71474   0.93215   0.00000  Uiso   1.00
Cl929  Cl    0.86920   0.92311   0.53384   0.00000  Uiso   1.00
H930   H     0.88502   0.74922   0.57991   0.00000  Uiso   1.00
H931   H     0.98585   0.80597   0.79023   0.00000  Uiso   1.00
H932   H     0.87314   0.67026   0.71107   0.00000  Uiso   1.00
H933   H     0.79224   0.99809   0.78963   0.00000  Uiso   1.00
H934   H     0.83148   0.85981   0.57518   0.00000  Uiso   1.00
H935   H     0.82184   0.95381   0.98533   0.00000  Uiso   1.00
H936   H     0.81043   0.77972   0.90560   0.00000  Uiso   1.00
H937   H     0.68223   0.86090   0.71021   0.00000  Uiso   1.00
O938   O     0.83333   0.83333   0.75000   0.00000  Uiso   1.00
O939   O     0.82118   0.79304   0.65459   0.00000  Uiso   1.00
O940   O     0.79607   0.87058   0.84968   0.00000  Uiso   1.00
O941   O     0.87491   0.84425   0.64606   0.00000  Uiso   1.00
O942   O     0.84118   0.82546   0.84968   0.00000  Uiso   1.00
O943   O     0.84597   0.74686   0.78214   0.00000  Uiso   1.00
O944   O     0.81298   0.92751   0.77013   0.00000  Uiso   1.00
O945   O     0.74078   0.79958   0.73413   0.00000  Uiso   1.00
O946   O     0.93360   0.85939   0.71361   0.00000  Uiso   1.00
O947   O     0.73738   0.85544   0.78213   0.00000  Uiso   1.00
O948   O     0.92158   0.81892   0.77014   0.00000  Uiso   1.00
O949   O     0.80426   0.73610   0.73413   0.00000  Uiso   1.00
O950   O     0.87012   0.92286   0.71360   0.00000  Uiso   1.00
Zn951  Zn    0.86005   0.80661   0.78734   0.00000  Uiso   1.00
Zn952  Zn    0.80046   0.79124   0.71876   0.00000  Uiso   1.00
Zn953  Zn    0.87723   0.86442   0.70657   0.00000  Uiso   1.00
Zn954  Zn    0.79560   0.87106   0.78733   0.00000  Uiso   1.00
loop_
_geom_bond_atom_site_label_1
_geom_bond_atom_site_label_2
_geom_bond_distance
_geom_bond_site_symmetry_2
_ccdc_geom_bond_type
Br1    C494    1.925   .     S
Br2    C19     1.925   .     S
C3     C9      1.436   .     S
C3     O46     1.270   .     A
C3     O44     1.270   .     A
C4     C18     1.385   .     A
C4     C23     1.403   .     A
C4     H33     1.080   .     S
C5     C18     1.390   .     A
C5     H29     1.084   .     S
C5     C17     1.393   .     A
C6     C8      1.454   .     S
C6     O45     1.281   .     A
C6     O47     1.279   .     A
C7     C22     1.423   .     A
C7     C16     1.487   .     S
C7     C19     1.415   .     A
C8     C62     1.334   .     S
C8     H89     1.088   .     S
C9     C114    1.334   1_455 S
C9     H136    1.086   1_455 S
C10    C13     1.451   .     S
C10    C170    1.331   .     S
C10    H190    1.088   .     S
C11    C12     1.436   .     S
C11    C328    1.331   1_545 S
C11    H350    1.086   1_545 S
C12    O48     1.276   .     A
C12    O42     1.275   .     A
C13    O49     1.272   .     A
C13    O43     1.273   .     A
C14    H34     1.084   .     S
C14    C20     1.390   .     A
C14    C19     1.389   .     A
C15    C18     1.449   .     S
C15    O38     1.271   .     A
C15    O40     1.277   .     A
C16    O39     1.282   .     A
C16    O41     1.287   .     A
C17    Br478   1.925   1_554 S
C17    C501    1.425   1_554 S
C20    C21     1.425   .     A
C20    Cl505   1.768   .     S
C21    C22     1.419   .     A
C21    C500    1.425   .     S
C22    C26     1.406   .     A
C23    C498    1.425   1_554 S
C23    C501    1.431   1_554 S
C24    C25     1.413   .     A
C24    C500    1.431   .     S
C24    C494    1.425   .     S
C25    Cl27    1.761   .     S
C25    C26     1.388   .     A
C26    H35     1.081   .     S
Cl28   C497    1.768   1_554 S
H30    C62     1.086   .     S
H31    C328    1.088   1_545 S
H32    C170    1.086   .     S
H36    C114    1.088   1_455 S
O37    Zn53    1.933   .     S
O37    Zn50    1.955   .     S
O37    Zn51    1.942   .     S
O37    Zn52    1.939   .     S
O38    Zn51    1.934   .     S
O39    Zn53    1.941   .     S
O40    Zn52    1.935   .     S
O41    Zn50    1.929   .     S
O42    Zn50    1.929   .     S
O43    Zn53    1.933   .     S
O44    Zn51    1.926   .     S
O45    Zn52    1.934   .     S
O46    Zn53    1.931   .     S
O47    Zn50    1.926   .     S
O48    Zn51    1.935   .     S
O49    Zn52    1.930   .     S
Br54   C547    1.925   .     S
Br55   C72     1.925   .     S
C56    C62     1.436   .     S
C56    O99     1.270   .     A
C56    O97     1.270   .     A
C57    C71     1.385   .     A
C57    C76     1.403   .     A
C57    H86     1.080   .     S
C58    C71     1.390   .     A
C58    H82     1.084   .     S
C58    C70     1.393   .     A
C59    C61     1.454   .     S
C59    O98     1.281   .     A
C59    O100    1.279   .     A
C60    C75     1.423   .     A
C60    C69     1.487   .     S
C60    C72     1.415   .     A
C61    C115    1.334   .     S
C61    H142    1.088   .     S
C63    C66     1.451   .     S
C63    C223    1.331   .     S
C63    H243    1.088   .     S
C64    C65     1.436   .     S
C64    C381    1.331   1_545 S
C64    H403    1.086   1_545 S
C65    O101    1.276   .     A
C65    O95     1.275   .     A
C66    O102    1.272   .     A
C66    O96     1.273   .     A
C67    H87     1.084   .     S
C67    C73     1.390   .     A
C67    C72     1.389   .     A
C68    C71     1.449   .     S
C68    O91     1.271   .     A
C68    O93     1.277   .     A
C69    O92     1.282   .     A
C69    O94     1.287   .     A
C70    Br531   1.925   1_554 S
C70    C554    1.425   1_554 S
C73    C74     1.425   .     A
C73    Cl558   1.768   .     S
C74    C75     1.419   .     A
C74    C553    1.425   .     S
C75    C79     1.406   .     A
C76    C551    1.425   1_554 S
C76    C554    1.431   1_554 S
C77    C78     1.413   .     A
C77    C553    1.431   .     S
C77    C547    1.425   .     S
C78    Cl80    1.761   .     S
C78    C79     1.388   .     A
C79    H88     1.081   .     S
Cl81   C550    1.768   1_554 S
H83    C115    1.086   .     S
H84    C381    1.088   1_545 S
H85    C223    1.086   .     S
O90    Zn106   1.933   .     S
O90    Zn103   1.955   .     S
O90    Zn104   1.942   .     S
O90    Zn105   1.939   .     S
O91    Zn104   1.934   .     S
O92    Zn106   1.941   .     S
O93    Zn105   1.935   .     S
O94    Zn103   1.929   .     S
O95    Zn103   1.929   .     S
O96    Zn106   1.933   .     S
O97    Zn104   1.926   .     S
O98    Zn105   1.934   .     S
O99    Zn106   1.931   .     S
O100   Zn103   1.926   .     S
O101   Zn104   1.935   .     S
O102   Zn105   1.930   .     S
Br107  C600    1.925   .     S
Br108  C125    1.925   .     S
C109   C115    1.436   .     S
C109   O152    1.270   .     A
C109   O150    1.270   .     A
C110   C124    1.385   .     A
C110   C129    1.403   .     A
C110   H139    1.080   .     S
C111   C124    1.390   .     A
C111   H135    1.084   .     S
C111   C123    1.393   .     A
C112   C114    1.454   .     S
C112   O151    1.281   .     A
C112   O153    1.279   .     A
C113   C128    1.423   .     A
C113   C122    1.487   .     S
C113   C125    1.415   .     A
C114   C9      1.334   1_655 S
C114   H36     1.088   1_655 S
C116   C119    1.451   .     S
C116   C276    1.331   .     S
C116   H296    1.088   .     S
C117   C118    1.436   .     S
C117   C434    1.331   1_545 S
C117   H456    1.086   1_545 S
C118   O154    1.276   .     A
C118   O148    1.275   .     A
C119   O155    1.272   .     A
C119   O149    1.273   .     A
C120   H140    1.084   .     S
C120   C126    1.390   .     A
C120   C125    1.389   .     A
C121   C124    1.449   .     S
C121   O144    1.271   .     A
C121   O146    1.277   .     A
C122   O145    1.282   .     A
C122   O147    1.287   .     A
C123   Br584   1.925   1_554 S
C123   C607    1.425   1_554 S
C126   C127    1.425   .     A
C126   Cl611   1.768   .     S
C127   C128    1.419   .     A
C127   C606    1.425   .     S
C128   C132    1.406   .     A
C129   C604    1.425   1_554 S
C129   C607    1.431   1_554 S
C130   C131    1.413   .     A
C130   C606    1.431   .     S
C130   C600    1.425   .     S
C131   Cl133   1.761   .     S
C131   C132    1.388   .     A
C132   H141    1.081   .     S
Cl134  C603    1.768   1_554 S
H136   C9      1.086   1_655 S
H137   C434    1.088   1_545 S
H138   C276    1.086   .     S
O143   Zn159   1.933   .     S
O143   Zn156   1.955   .     S
O143   Zn157   1.942   .     S
O143   Zn158   1.939   .     S
O144   Zn157   1.934   .     S
O145   Zn159   1.941   .     S
O146   Zn158   1.935   .     S
O147   Zn156   1.929   .     S
O148   Zn156   1.929   .     S
O149   Zn159   1.933   .     S
O150   Zn157   1.926   .     S
O151   Zn158   1.934   .     S
O152   Zn159   1.931   .     S
O153   Zn156   1.926   .     S
O154   Zn157   1.935   .     S
O155   Zn158   1.930   .     S
Br160  C653    1.925   .     S
Br161  C178    1.925   .     S
C162   C168    1.436   .     S
C162   O205    1.270   .     A
C162   O203    1.270   .     A
C163   C177    1.385   .     A
C163   C182    1.403   .     A
C163   H192    1.080   .     S
C164   C177    1.390   .     A
C164   H188    1.084   .     S
C164   C176    1.393   .     A
C165   C167    1.454   .     S
C165   O204    1.281   .     A
C165   O206    1.279   .     A
C166   C181    1.423   .     A
C166   C175    1.487   .     S
C166   C178    1.415   .     A
C167   C221    1.334   .     S
C167   H248    1.088   .     S
C168   C273    1.334   1_455 S
C168   H295    1.086   1_455 S
C169   C172    1.451   .     S
C169   C329    1.331   .     S
C169   H349    1.088   .     S
C170   C171    1.436   .     S
C171   O207    1.276   .     A
C171   O201    1.275   .     A
C172   O208    1.272   .     A
C172   O202    1.273   .     A
C173   H193    1.084   .     S
C173   C179    1.390   .     A
C173   C178    1.389   .     A
C174   C177    1.449   .     S
C174   O197    1.271   .     A
C174   O199    1.277   .     A
C175   O198    1.282   .     A
C175   O200    1.287   .     A
C176   Br637   1.925   1_554 S
C176   C660    1.425   1_554 S
C179   C180    1.425   .     A
C179   Cl664   1.768   .     S
C180   C181    1.419   .     A
C180   C659    1.425   .     S
C181   C185    1.406   .     A
C182   C657    1.425   1_554 S
C182   C660    1.431   1_554 S
C183   C184    1.413   .     A
C183   C659    1.431   .     S
C183   C653    1.425   .     S
C184   Cl186   1.761   .     S
C184   C185    1.388   .     A
C185   H194    1.081   .     S
Cl187  C656    1.768   1_554 S
H189   C221    1.086   .     S
H191   C329    1.086   .     S
H195   C273    1.088   1_455 S
O196   Zn212   1.933   .     S
O196   Zn209   1.955   .     S
O196   Zn210   1.942   .     S
O196   Zn211   1.939   .     S
O197   Zn210   1.934   .     S
O198   Zn212   1.941   .     S
O199   Zn211   1.935   .     S
O200   Zn209   1.929   .     S
O201   Zn209   1.929   .     S
O202   Zn212   1.933   .     S
O203   Zn210   1.926   .     S
O204   Zn211   1.934   .     S
O205   Zn212   1.931   .     S
O206   Zn209   1.926   .     S
O207   Zn210   1.935   .     S
O208   Zn211   1.930   .     S
Br213  C706    1.925   .     S
Br214  C231    1.925   .     S
C215   C221    1.436   .     S
C215   O258    1.270   .     A
C215   O256    1.270   .     A
C216   C230    1.385   .     A
C216   C235    1.403   .     A
C216   H245    1.080   .     S
C217   C230    1.390   .     A
C217   H241    1.084   .     S
C217   C229    1.393   .     A
C218   C220    1.454   .     S
C218   O257    1.281   .     A
C218   O259    1.279   .     A
C219   C234    1.423   .     A
C219   C228    1.487   .     S
C219   C231    1.415   .     A
C220   C274    1.334   .     S
C220   H301    1.088   .     S
C222   C225    1.451   .     S
C222   C382    1.331   .     S
C222   H402    1.088   .     S
C223   C224    1.436   .     S
C224   O260    1.276   .     A
C224   O254    1.275   .     A
C225   O261    1.272   .     A
C225   O255    1.273   .     A
C226   H246    1.084   .     S
C226   C232    1.390   .     A
C226   C231    1.389   .     A
C227   C230    1.449   .     S
C227   O250    1.271   .     A
C227   O252    1.277   .     A
C228   O251    1.282   .     A
C228   O253    1.287   .     A
C229   Br690   1.925   1_554 S
C229   C713    1.425   1_554 S
C232   C233    1.425   .     A
C232   Cl717   1.768   .     S
C233   C234    1.419   .     A
C233   C712    1.425   .     S
C234   C238    1.406   .     A
C235   C710    1.425   1_554 S
C235   C713    1.431   1_554 S
C236   C237    1.413   .     A
C236   C712    1.431   .     S
C236   C706    1.425   .     S
C237   Cl239   1.761   .     S
C237   C238    1.388   .     A
C238   H247    1.081   .     S
Cl240  C709    1.768   1_554 S
H242   C274    1.086   .     S
H244   C382    1.086   .     S
O249   Zn265   1.933   .     S
O249   Zn262   1.955   .     S
O249   Zn263   1.942   .     S
O249   Zn264   1.939   .     S
O250   Zn263   1.934   .     S
O251   Zn265   1.941   .     S
O252   Zn264   1.935   .     S
O253   Zn262   1.929   .     S
O254   Zn262   1.929   .     S
O255   Zn265   1.933   .     S
O256   Zn263   1.926   .     S
O257   Zn264   1.934   .     S
O258   Zn265   1.931   .     S
O259   Zn262   1.926   .     S
O260   Zn263   1.935   .     S
O261   Zn264   1.930   .     S
Br266  C759    1.925   .     S
Br267  C284    1.925   .     S
C268   C274    1.436   .     S
C268   O311    1.270   .     A
C268   O309    1.270   .     A
C269   C283    1.385   .     A
C269   C288    1.403   .     A
C269   H298    1.080   .     S
C270   C283    1.390   .     A
C270   H294    1.084   .     S
C270   C282    1.393   .     A
C271   C273    1.454   .     S
C271   O310    1.281   .     A
C271   O312    1.279   .     A
C272   C287    1.423   .     A
C272   C281    1.487   .     S
C272   C284    1.415   .     A
C273   C168    1.334   1_655 S
C273   H195    1.088   1_655 S
C275   C278    1.451   .     S
C275   C435    1.331   .     S
C275   H455    1.088   .     S
C276   C277    1.436   .     S
C277   O313    1.276   .     A
C277   O307    1.275   .     A
C278   O314    1.272   .     A
C278   O308    1.273   .     A
C279   H299    1.084   .     S
C279   C285    1.390   .     A
C279   C284    1.389   .     A
C280   C283    1.449   .     S
C280   O303    1.271   .     A
C280   O305    1.277   .     A
C281   O304    1.282   .     A
C281   O306    1.287   .     A
C282   Br743   1.925   1_554 S
C282   C766    1.425   1_554 S
C285   C286    1.425   .     A
C285   Cl770   1.768   .     S
C286   C287    1.419   .     A
C286   C765    1.425   .     S
C287   C291    1.406   .     A
C288   C763    1.425   1_554 S
C288   C766    1.431   1_554 S
C289   C290    1.413   .     A
C289   C765    1.431   .     S
C289   C759    1.425   .     S
C290   Cl292   1.761   .     S
C290   C291    1.388   .     A
C291   H300    1.081   .     S
Cl293  C762    1.768   1_554 S
H295   C168    1.086   1_655 S
H297   C435    1.086   .     S
O302   Zn318   1.933   .     S
O302   Zn315   1.955   .     S
O302   Zn316   1.942   .     S
O302   Zn317   1.939   .     S
O303   Zn316   1.934   .     S
O304   Zn318   1.941   .     S
O305   Zn317   1.935   .     S
O306   Zn315   1.929   .     S
O307   Zn315   1.929   .     S
O308   Zn318   1.933   .     S
O309   Zn316   1.926   .     S
O310   Zn317   1.934   .     S
O311   Zn318   1.931   .     S
O312   Zn315   1.926   .     S
O313   Zn316   1.935   .     S
O314   Zn317   1.930   .     S
Br319  C812    1.925   .     S
Br320  C337    1.925   .     S
C321   C327    1.436   .     S
C321   O364    1.270   .     A
C321   O362    1.270   .     A
C322   C336    1.385   .     A
C322   C341    1.403   .     A
C322   H351    1.080   .     S
C323   C336    1.390   .     A
C323   H347    1.084   .     S
C323   C335    1.393   .     A
C324   C326    1.454   .     S
C324   O363    1.281   .     A
C324   O365    1.279   .     A
C325   C340    1.423   .     A
C325   C334    1.487   .     S
C325   C337    1.415   .     A
C326   C380    1.334   .     S
C326   H407    1.088   .     S
C327   C432    1.334   1_455 S
C327   H454    1.086   1_455 S
C328   C331    1.451   .     S
C328   C11     1.331   1_565 S
C328   H31     1.088   1_565 S
C329   C330    1.436   .     S
C330   O366    1.276   .     A
C330   O360    1.275   .     A
C331   O367    1.272   .     A
C331   O361    1.273   .     A
C332   H352    1.084   .     S
C332   C338    1.390   .     A
C332   C337    1.389   .     A
C333   C336    1.449   .     S
C333   O356    1.271   .     A
C333   O358    1.277   .     A
C334   O357    1.282   .     A
C334   O359    1.287   .     A
C335   Br796   1.925   1_554 S
C335   C819    1.425   1_554 S
C338   C339    1.425   .     A
C338   Cl823   1.768   .     S
C339   C340    1.419   .     A
C339   C818    1.425   .     S
C340   C344    1.406   .     A
C341   C816    1.425   1_554 S
C341   C819    1.431   1_554 S
C342   C343    1.413   .     A
C342   C818    1.431   .     S
C342   C812    1.425   .     S
C343   Cl345   1.761   .     S
C343   C344    1.388   .     A
C344   H353    1.081   .     S
Cl346  C815    1.768   1_554 S
H348   C380    1.086   .     S
H350   C11     1.086   1_565 S
H354   C432    1.088   1_455 S
O355   Zn371   1.933   .     S
O355   Zn368   1.955   .     S
O355   Zn369   1.942   .     S
O355   Zn370   1.939   .     S
O356   Zn369   1.934   .     S
O357   Zn371   1.941   .     S
O358   Zn370   1.935   .     S
O359   Zn368   1.929   .     S
O360   Zn368   1.929   .     S
O361   Zn371   1.933   .     S
O362   Zn369   1.926   .     S
O363   Zn370   1.934   .     S
O364   Zn371   1.931   .     S
O365   Zn368   1.926   .     S
O366   Zn369   1.935   .     S
O367   Zn370   1.930   .     S
Br372  C865    1.925   .     S
Br373  C390    1.925   .     S
C374   C380    1.436   .     S
C374   O417    1.270   .     A
C374   O415    1.270   .     A
C375   C389    1.385   .     A
C375   C394    1.403   .     A
C375   H404    1.080   .     S
C376   C389    1.390   .     A
C376   H400    1.084   .     S
C376   C388    1.393   .     A
C377   C379    1.454   .     S
C377   O416    1.281   .     A
C377   O418    1.279   .     A
C378   C393    1.423   .     A
C378   C387    1.487   .     S
C378   C390    1.415   .     A
C379   C433    1.334   .     S
C379   H460    1.088   .     S
C381   C384    1.451   .     S
C381   C64     1.331   1_565 S
C381   H84     1.088   1_565 S
C382   C383    1.436   .     S
C383   O419    1.276   .     A
C383   O413    1.275   .     A
C384   O420    1.272   .     A
C384   O414    1.273   .     A
C385   H405    1.084   .     S
C385   C391    1.390   .     A
C385   C390    1.389   .     A
C386   C389    1.449   .     S
C386   O409    1.271   .     A
C386   O411    1.277   .     A
C387   O410    1.282   .     A
C387   O412    1.287   .     A
C388   Br849   1.925   1_554 S
C388   C872    1.425   1_554 S
C391   C392    1.425   .     A
C391   Cl876   1.768   .     S
C392   C393    1.419   .     A
C392   C871    1.425   .     S
C393   C397    1.406   .     A
C394   C869    1.425   1_554 S
C394   C872    1.431   1_554 S
C395   C396    1.413   .     A
C395   C871    1.431   .     S
C395   C865    1.425   .     S
C396   Cl398   1.761   .     S
C396   C397    1.388   .     A
C397   H406    1.081   .     S
Cl399  C868    1.768   1_554 S
H401   C433    1.086   .     S
H403   C64     1.086   1_565 S
O408   Zn424   1.933   .     S
O408   Zn421   1.955   .     S
O408   Zn422   1.942   .     S
O408   Zn423   1.939   .     S
O409   Zn422   1.934   .     S
O410   Zn424   1.941   .     S
O411   Zn423   1.935   .     S
O412   Zn421   1.929   .     S
O413   Zn421   1.929   .     S
O414   Zn424   1.933   .     S
O415   Zn422   1.926   .     S
O416   Zn423   1.934   .     S
O417   Zn424   1.931   .     S
O418   Zn421   1.926   .     S
O419   Zn422   1.935   .     S
O420   Zn423   1.930   .     S
Br425  C918    1.925   .     S
Br426  C443    1.925   .     S
C427   C433    1.436   .     S
C427   O470    1.270   .     A
C427   O468    1.270   .     A
C428   C442    1.385   .     A
C428   C447    1.403   .     A
C428   H457    1.080   .     S
C429   C442    1.390   .     A
C429   H453    1.084   .     S
C429   C441    1.393   .     A
C430   C432    1.454   .     S
C430   O469    1.281   .     A
C430   O471    1.279   .     A
C431   C446    1.423   .     A
C431   C440    1.487   .     S
C431   C443    1.415   .     A
C432   C327    1.334   1_655 S
C432   H354    1.088   1_655 S
C434   C437    1.451   .     S
C434   C117    1.331   1_565 S
C434   H137    1.088   1_565 S
C435   C436    1.436   .     S
C436   O472    1.276   .     A
C436   O466    1.275   .     A
C437   O473    1.272   .     A
C437   O467    1.273   .     A
C438   H458    1.084   .     S
C438   C444    1.390   .     A
C438   C443    1.389   .     A
C439   C442    1.449   .     S
C439   O462    1.271   .     A
C439   O464    1.277   .     A
C440   O463    1.282   .     A
C440   O465    1.287   .     A
C441   Br902   1.925   1_554 S
C441   C925    1.425   1_554 S
C444   C445    1.425   .     A
C444   Cl929   1.768   .     S
C445   C446    1.419   .     A
C445   C924    1.425   .     S
C446   C450    1.406   .     A
C447   C922    1.425   1_554 S
C447   C925    1.431   1_554 S
C448   C449    1.413   .     A
C448   C924    1.431   .     S
C448   C918    1.425   .     S
C449   Cl451   1.761   .     S
C449   C450    1.388   .     A
C450   H459    1.081   .     S
Cl452  C921    1.768   1_554 S
H454   C327    1.086   1_655 S
H456   C117    1.086   1_565 S
O461   Zn477   1.933   .     S
O461   Zn474   1.955   .     S
O461   Zn475   1.942   .     S
O461   Zn476   1.939   .     S
O462   Zn475   1.934   .     S
O463   Zn477   1.941   .     S
O464   Zn476   1.935   .     S
O465   Zn474   1.929   .     S
O466   Zn474   1.929   .     S
O467   Zn477   1.933   .     S
O468   Zn475   1.926   .     S
O469   Zn476   1.934   .     S
O470   Zn477   1.931   .     S
O471   Zn474   1.926   .     S
O472   Zn475   1.935   .     S
O473   Zn476   1.930   .     S
Br478  C17     1.925   1_556 S
Br479  C496    1.925   .     S
C480   C486    1.436   .     S
C480   O523    1.270   .     A
C480   O521    1.270   .     A
C481   C495    1.385   .     A
C481   C500    1.403   .     A
C481   H510    1.080   .     S
C482   C495    1.390   .     A
C482   H506    1.084   .     S
C482   C494    1.393   .     A
C483   C485    1.454   .     S
C483   O522    1.281   .     A
C483   O524    1.279   .     A
C484   C499    1.423   .     A
C484   C493    1.487   .     S
C484   C496    1.415   .     A
C485   C539    1.334   .     S
C485   H566    1.088   .     S
C486   C591    1.334   1_455 S
C486   H613    1.086   1_455 S
C487   C490    1.451   .     S
C487   C647    1.331   .     S
C487   H667    1.088   .     S
C488   C489    1.436   .     S
C488   C805    1.331   1_545 S
C488   H827    1.086   1_545 S
C489   O525    1.276   .     A
C489   O519    1.275   .     A
C490   O526    1.272   .     A
C490   O520    1.273   .     A
C491   H511    1.084   .     S
C491   C497    1.390   .     A
C491   C496    1.389   .     A
C492   C495    1.449   .     S
C492   O515    1.271   .     A
C492   O517    1.277   .     A
C493   O516    1.282   .     A
C493   O518    1.287   .     A
C497   C498    1.425   .     A
C497   Cl28    1.768   1_556 S
C498   C499    1.419   .     A
C498   C23     1.425   1_556 S
C499   C503    1.406   .     A
C501   C502    1.413   .     A
C501   C23     1.431   1_556 S
C501   C17     1.425   1_556 S
C502   Cl504   1.761   .     S
C502   C503    1.388   .     A
C503   H512    1.081   .     S
H507   C539    1.086   .     S
H508   C805    1.088   1_545 S
H509   C647    1.086   .     S
H513   C591    1.088   1_455 S
O514   Zn530   1.933   .     S
O514   Zn527   1.955   .     S
O514   Zn528   1.942   .     S
O514   Zn529   1.939   .     S
O515   Zn528   1.934   .     S
O516   Zn530   1.941   .     S
O517   Zn529   1.935   .     S
O518   Zn527   1.929   .     S
O519   Zn527   1.929   .     S
O520   Zn530   1.933   .     S
O521   Zn528   1.926   .     S
O522   Zn529   1.934   .     S
O523   Zn530   1.931   .     S
O524   Zn527   1.926   .     S
O525   Zn528   1.935   .     S
O526   Zn529   1.930   .     S
Br531  C70     1.925   1_556 S
Br532  C549    1.925   .     S
C533   C539    1.436   .     S
C533   O576    1.270   .     A
C533   O574    1.270   .     A
C534   C548    1.385   .     A
C534   C553    1.403   .     A
C534   H563    1.080   .     S
C535   C548    1.390   .     A
C535   H559    1.084   .     S
C535   C547    1.393   .     A
C536   C538    1.454   .     S
C536   O575    1.281   .     A
C536   O577    1.279   .     A
C537   C552    1.423   .     A
C537   C546    1.487   .     S
C537   C549    1.415   .     A
C538   C592    1.334   .     S
C538   H619    1.088   .     S
C540   C543    1.451   .     S
C540   C700    1.331   .     S
C540   H720    1.088   .     S
C541   C542    1.436   .     S
C541   C858    1.331   1_545 S
C541   H880    1.086   1_545 S
C542   O578    1.276   .     A
C542   O572    1.275   .     A
C543   O579    1.272   .     A
C543   O573    1.273   .     A
C544   H564    1.084   .     S
C544   C550    1.390   .     A
C544   C549    1.389   .     A
C545   C548    1.449   .     S
C545   O568    1.271   .     A
C545   O570    1.277   .     A
C546   O569    1.282   .     A
C546   O571    1.287   .     A
C550   C551    1.425   .     A
C550   Cl81    1.768   1_556 S
C551   C552    1.419   .     A
C551   C76     1.425   1_556 S
C552   C556    1.406   .     A
C554   C555    1.413   .     A
C554   C76     1.431   1_556 S
C554   C70     1.425   1_556 S
C555   Cl557   1.761   .     S
C555   C556    1.388   .     A
C556   H565    1.081   .     S
H560   C592    1.086   .     S
H561   C858    1.088   1_545 S
H562   C700    1.086   .     S
O567   Zn583   1.933   .     S
O567   Zn580   1.955   .     S
O567   Zn581   1.942   .     S
O567   Zn582   1.939   .     S
O568   Zn581   1.934   .     S
O569   Zn583   1.941   .     S
O570   Zn582   1.935   .     S
O571   Zn580   1.929   .     S
O572   Zn580   1.929   .     S
O573   Zn583   1.933   .     S
O574   Zn581   1.926   .     S
O575   Zn582   1.934   .     S
O576   Zn583   1.931   .     S
O577   Zn580   1.926   .     S
O578   Zn581   1.935   .     S
O579   Zn582   1.930   .     S
Br584  C123    1.925   1_556 S
Br585  C602    1.925   .     S
C586   C592    1.436   .     S
C586   O629    1.270   .     A
C586   O627    1.270   .     A
C587   C601    1.385   .     A
C587   C606    1.403   .     A
C587   H616    1.080   .     S
C588   C601    1.390   .     A
C588   H612    1.084   .     S
C588   C600    1.393   .     A
C589   C591    1.454   .     S
C589   O628    1.281   .     A
C589   O630    1.279   .     A
C590   C605    1.423   .     A
C590   C599    1.487   .     S
C590   C602    1.415   .     A
C591   C486    1.334   1_655 S
C591   H513    1.088   1_655 S
C593   C596    1.451   .     S
C593   C753    1.331   .     S
C593   H773    1.088   .     S
C594   C595    1.436   .     S
C594   C911    1.331   1_545 S
C594   H933    1.086   1_545 S
C595   O631    1.276   .     A
C595   O625    1.275   .     A
C596   O632    1.272   .     A
C596   O626    1.273   .     A
C597   H617    1.084   .     S
C597   C603    1.390   .     A
C597   C602    1.389   .     A
C598   C601    1.449   .     S
C598   O621    1.271   .     A
C598   O623    1.277   .     A
C599   O622    1.282   .     A
C599   O624    1.287   .     A
C603   C604    1.425   .     A
C603   Cl134   1.768   1_556 S
C604   C605    1.419   .     A
C604   C129    1.425   1_556 S
C605   C609    1.406   .     A
C607   C608    1.413   .     A
C607   C129    1.431   1_556 S
C607   C123    1.425   1_556 S
C608   Cl610   1.761   .     S
C608   C609    1.388   .     A
C609   H618    1.081   .     S
H613   C486    1.086   1_655 S
H614   C911    1.088   1_545 S
H615   C753    1.086   .     S
O620   Zn636   1.933   .     S
O620   Zn633   1.955   .     S
O620   Zn634   1.942   .     S
O620   Zn635   1.939   .     S
O621   Zn634   1.934   .     S
O622   Zn636   1.941   .     S
O623   Zn635   1.935   .     S
O624   Zn633   1.929   .     S
O625   Zn633   1.929   .     S
O626   Zn636   1.933   .     S
O627   Zn634   1.926   .     S
O628   Zn635   1.934   .     S
O629   Zn636   1.931   .     S
O630   Zn633   1.926   .     S
O631   Zn634   1.935   .     S
O632   Zn635   1.930   .     S
Br637  C176    1.925   1_556 S
Br638  C655    1.925   .     S
C639   C645    1.436   .     S
C639   O682    1.270   .     A
C639   O680    1.270   .     A
C640   C654    1.385   .     A
C640   C659    1.403   .     A
C640   H669    1.080   .     S
C641   C654    1.390   .     A
C641   H665    1.084   .     S
C641   C653    1.393   .     A
C642   C644    1.454   .     S
C642   O681    1.281   .     A
C642   O683    1.279   .     A
C643   C658    1.423   .     A
C643   C652    1.487   .     S
C643   C655    1.415   .     A
C644   C698    1.334   .     S
C644   H725    1.088   .     S
C645   C750    1.334   1_455 S
C645   H772    1.086   1_455 S
C646   C649    1.451   .     S
C646   C806    1.331   .     S
C646   H826    1.088   .     S
C647   C648    1.436   .     S
C648   O684    1.276   .     A
C648   O678    1.275   .     A
C649   O685    1.272   .     A
C649   O679    1.273   .     A
C650   H670    1.084   .     S
C650   C656    1.390   .     A
C650   C655    1.389   .     A
C651   C654    1.449   .     S
C651   O674    1.271   .     A
C651   O676    1.277   .     A
C652   O675    1.282   .     A
C652   O677    1.287   .     A
C656   C657    1.425   .     A
C656   Cl187   1.768   1_556 S
C657   C658    1.419   .     A
C657   C182    1.425   1_556 S
C658   C662    1.406   .     A
C660   C661    1.413   .     A
C660   C182    1.431   1_556 S
C660   C176    1.425   1_556 S
C661   Cl663   1.761   .     S
C661   C662    1.388   .     A
C662   H671    1.081   .     S
H666   C698    1.086   .     S
H668   C806    1.086   .     S
H672   C750    1.088   1_455 S
O673   Zn689   1.933   .     S
O673   Zn686   1.955   .     S
O673   Zn687   1.942   .     S
O673   Zn688   1.939   .     S
O674   Zn687   1.934   .     S
O675   Zn689   1.941   .     S
O676   Zn688   1.935   .     S
O677   Zn686   1.929   .     S
O678   Zn686   1.929   .     S
O679   Zn689   1.933   .     S
O680   Zn687   1.926   .     S
O681   Zn688   1.934   .     S
O682   Zn689   1.931   .     S
O683   Zn686   1.926   .     S
O684   Zn687   1.935   .     S
O685   Zn688   1.930   .     S
Br690  C229    1.925   1_556 S
Br691  C708    1.925   .     S
C692   C698    1.436   .     S
C692   O735    1.270   .     A
C692   O733    1.270   .     A
C693   C707    1.385   .     A
C693   C712    1.403   .     A
C693   H722    1.080   .     S
C694   C707    1.390   .     A
C694   H718    1.084   .     S
C694   C706    1.393   .     A
C695   C697    1.454   .     S
C695   O734    1.281   .     A
C695   O736    1.279   .     A
C696   C711    1.423   .     A
C696   C705    1.487   .     S
C696   C708    1.415   .     A
C697   C751    1.334   .     S
C697   H778    1.088   .     S
C699   C702    1.451   .     S
C699   C859    1.331   .     S
C699   H879    1.088   .     S
C700   C701    1.436   .     S
C701   O737    1.276   .     A
C701   O731    1.275   .     A
C702   O738    1.272   .     A
C702   O732    1.273   .     A
C703   H723    1.084   .     S
C703   C709    1.390   .     A
C703   C708    1.389   .     A
C704   C707    1.449   .     S
C704   O727    1.271   .     A
C704   O729    1.277   .     A
C705   O728    1.282   .     A
C705   O730    1.287   .     A
C709   C710    1.425   .     A
C709   Cl240   1.768   1_556 S
C710   C711    1.419   .     A
C710   C235    1.425   1_556 S
C711   C715    1.406   .     A
C713   C714    1.413   .     A
C713   C235    1.431   1_556 S
C713   C229    1.425   1_556 S
C714   Cl716   1.761   .     S
C714   C715    1.388   .     A
C715   H724    1.081   .     S
H719   C751    1.086   .     S
H721   C859    1.086   .     S
O726   Zn742   1.933   .     S
O726   Zn739   1.955   .     S
O726   Zn740   1.942   .     S
O726   Zn741   1.939   .     S
O727   Zn740   1.934   .     S
O728   Zn742   1.941   .     S
O729   Zn741   1.935   .     S
O730   Zn739   1.929   .     S
O731   Zn739   1.929   .     S
O732   Zn742   1.933   .     S
O733   Zn740   1.926   .     S
O734   Zn741   1.934   .     S
O735   Zn742   1.931   .     S
O736   Zn739   1.926   .     S
O737   Zn740   1.935   .     S
O738   Zn741   1.930   .     S
Br743  C282    1.925   1_556 S
Br744  C761    1.925   .     S
C745   C751    1.436   .     S
C745   O788    1.270   .     A
C745   O786    1.270   .     A
C746   C760    1.385   .     A
C746   C765    1.403   .     A
C746   H775    1.080   .     S
C747   C760    1.390   .     A
C747   H771    1.084   .     S
C747   C759    1.393   .     A
C748   C750    1.454   .     S
C748   O787    1.281   .     A
C748   O789    1.279   .     A
C749   C764    1.423   .     A
C749   C758    1.487   .     S
C749   C761    1.415   .     A
C750   C645    1.334   1_655 S
C750   H672    1.088   1_655 S
C752   C755    1.451   .     S
C752   C912    1.331   .     S
C752   H932    1.088   .     S
C753   C754    1.436   .     S
C754   O790    1.276   .     A
C754   O784    1.275   .     A
C755   O791    1.272   .     A
C755   O785    1.273   .     A
C756   H776    1.084   .     S
C756   C762    1.390   .     A
C756   C761    1.389   .     A
C757   C760    1.449   .     S
C757   O780    1.271   .     A
C757   O782    1.277   .     A
C758   O781    1.282   .     A
C758   O783    1.287   .     A
C762   C763    1.425   .     A
C762   Cl293   1.768   1_556 S
C763   C764    1.419   .     A
C763   C288    1.425   1_556 S
C764   C768    1.406   .     A
C766   C767    1.413   .     A
C766   C288    1.431   1_556 S
C766   C282    1.425   1_556 S
C767   Cl769   1.761   .     S
C767   C768    1.388   .     A
C768   H777    1.081   .     S
H772   C645    1.086   1_655 S
H774   C912    1.086   .     S
O779   Zn795   1.933   .     S
O779   Zn792   1.955   .     S
O779   Zn793   1.942   .     S
O779   Zn794   1.939   .     S
O780   Zn793   1.934   .     S
O781   Zn795   1.941   .     S
O782   Zn794   1.935   .     S
O783   Zn792   1.929   .     S
O784   Zn792   1.929   .     S
O785   Zn795   1.933   .     S
O786   Zn793   1.926   .     S
O787   Zn794   1.934   .     S
O788   Zn795   1.931   .     S
O789   Zn792   1.926   .     S
O790   Zn793   1.935   .     S
O791   Zn794   1.930   .     S
Br796  C335    1.925   1_556 S
Br797  C814    1.925   .     S
C798   C804    1.436   .     S
C798   O841    1.270   .     A
C798   O839    1.270   .     A
C799   C813    1.385   .     A
C799   C818    1.403   .     A
C799   H828    1.080   .     S
C800   C813    1.390   .     A
C800   H824    1.084   .     S
C800   C812    1.393   .     A
C801   C803    1.454   .     S
C801   O840    1.281   .     A
C801   O842    1.279   .     A
C802   C817    1.423   .     A
C802   C811    1.487   .     S
C802   C814    1.415   .     A
C803   C857    1.334   .     S
C803   H884    1.088   .     S
C804   C909    1.334   1_455 S
C804   H931    1.086   1_455 S
C805   C808    1.451   .     S
C805   C488    1.331   1_565 S
C805   H508    1.088   1_565 S
C806   C807    1.436   .     S
C807   O843    1.276   .     A
C807   O837    1.275   .     A
C808   O844    1.272   .     A
C808   O838    1.273   .     A
C809   H829    1.084   .     S
C809   C815    1.390   .     A
C809   C814    1.389   .     A
C810   C813    1.449   .     S
C810   O833    1.271   .     A
C810   O835    1.277   .     A
C811   O834    1.282   .     A
C811   O836    1.287   .     A
C815   C816    1.425   .     A
C815   Cl346   1.768   1_556 S
C816   C817    1.419   .     A
C816   C341    1.425   1_556 S
C817   C821    1.406   .     A
C819   C820    1.413   .     A
C819   C341    1.431   1_556 S
C819   C335    1.425   1_556 S
C820   Cl822   1.761   .     S
C820   C821    1.388   .     A
C821   H830    1.081   .     S
H825   C857    1.086   .     S
H827   C488    1.086   1_565 S
H831   C909    1.088   1_455 S
O832   Zn848   1.933   .     S
O832   Zn845   1.955   .     S
O832   Zn846   1.942   .     S
O832   Zn847   1.939   .     S
O833   Zn846   1.934   .     S
O834   Zn848   1.941   .     S
O835   Zn847   1.935   .     S
O836   Zn845   1.929   .     S
O837   Zn845   1.929   .     S
O838   Zn848   1.933   .     S
O839   Zn846   1.926   .     S
O840   Zn847   1.934   .     S
O841   Zn848   1.931   .     S
O842   Zn845   1.926   .     S
O843   Zn846   1.935   .     S
O844   Zn847   1.930   .     S
Br849  C388    1.925   1_556 S
Br850  C867    1.925   .     S
C851   C857    1.436   .     S
C851   O894    1.270   .     A
C851   O892    1.270   .     A
C852   C866    1.385   .     A
C852   C871    1.403   .     A
C852   H881    1.080   .     S
C853   C866    1.390   .     A
C853   H877    1.084   .     S
C853   C865    1.393   .     A
C854   C856    1.454   .     S
C854   O893    1.281   .     A
C854   O895    1.279   .     A
C855   C870    1.423   .     A
C855   C864    1.487   .     S
C855   C867    1.415   .     A
C856   C910    1.334   .     S
C856   H937    1.088   .     S
C858   C861    1.451   .     S
C858   C541    1.331   1_565 S
C858   H561    1.088   1_565 S
C859   C860    1.436   .     S
C860   O896    1.276   .     A
C860   O890    1.275   .     A
C861   O897    1.272   .     A
C861   O891    1.273   .     A
C862   H882    1.084   .     S
C862   C868    1.390   .     A
C862   C867    1.389   .     A
C863   C866    1.449   .     S
C863   O886    1.271   .     A
C863   O888    1.277   .     A
C864   O887    1.282   .     A
C864   O889    1.287   .     A
C868   C869    1.425   .     A
C868   Cl399   1.768   1_556 S
C869   C870    1.419   .     A
C869   C394    1.425   1_556 S
C870   C874    1.406   .     A
C872   C873    1.413   .     A
C872   C394    1.431   1_556 S
C872   C388    1.425   1_556 S
C873   Cl875   1.761   .     S
C873   C874    1.388   .     A
C874   H883    1.081   .     S
H878   C910    1.086   .     S
H880   C541    1.086   1_565 S
O885   Zn901   1.933   .     S
O885   Zn898   1.955   .     S
O885   Zn899   1.942   .     S
O885   Zn900   1.939   .     S
O886   Zn899   1.934   .     S
O887   Zn901   1.941   .     S
O888   Zn900   1.935   .     S
O889   Zn898   1.929   .     S
O890   Zn898   1.929   .     S
O891   Zn901   1.933   .     S
O892   Zn899   1.926   .     S
O893   Zn900   1.934   .     S
O894   Zn901   1.931   .     S
O895   Zn898   1.926   .     S
O896   Zn899   1.935   .     S
O897   Zn900   1.930   .     S
Br902  C441    1.925   1_556 S
Br903  C920    1.925   .     S
C904   C910    1.436   .     S
C904   O947    1.270   .     A
C904   O945    1.270   .     A
C905   C919    1.385   .     A
C905   C924    1.403   .     A
C905   H934    1.080   .     S
C906   C919    1.390   .     A
C906   H930    1.084   .     S
C906   C918    1.393   .     A
C907   C909    1.454   .     S
C907   O946    1.281   .     A
C907   O948    1.279   .     A
C908   C923    1.423   .     A
C908   C917    1.487   .     S
C908   C920    1.415   .     A
C909   C804    1.334   1_655 S
C909   H831    1.088   1_655 S
C911   C914    1.451   .     S
C911   C594    1.331   1_565 S
C911   H614    1.088   1_565 S
C912   C913    1.436   .     S
C913   O949    1.276   .     A
C913   O943    1.275   .     A
C914   O950    1.272   .     A
C914   O944    1.273   .     A
C915   H935    1.084   .     S
C915   C921    1.390   .     A
C915   C920    1.389   .     A
C916   C919    1.449   .     S
C916   O939    1.271   .     A
C916   O941    1.277   .     A
C917   O940    1.282   .     A
C917   O942    1.287   .     A
C921   C922    1.425   .     A
C921   Cl452   1.768   1_556 S
C922   C923    1.419   .     A
C922   C447    1.425   1_556 S
C923   C927    1.406   .     A
C925   C926    1.413   .     A
C925   C447    1.431   1_556 S
C925   C441    1.425   1_556 S
C926   Cl928   1.761   .     S
C926   C927    1.388   .     A
C927   H936    1.081   .     S
H931   C804    1.086   1_655 S
H933   C594    1.086   1_565 S
O938   Zn954   1.933   .     S
O938   Zn951   1.955   .     S
O938   Zn952   1.942   .     S
O938   Zn953   1.939   .     S
O939   Zn952   1.934   .     S
O940   Zn954   1.941   .     S
O941   Zn953   1.935   .     S
O942   Zn951   1.929   .     S
O943   Zn951   1.929   .     S
O944   Zn954   1.933   .     S
O945   Zn952   1.926   .     S
O946   Zn953   1.934   .     S
O947   Zn954   1.931   .     S
O948   Zn951   1.926   .     S
O949   Zn952   1.935   .     S
O950   Zn953   1.930   .     S
