data_str_m1_o10_o18_pcu_sym.180
_audit_creation_date              2020-01-03
_audit_creation_method            'Materials Studio'
_symmetry_space_group_name_H-M    'P1'
_symmetry_Int_Tables_number       1
_symmetry_cell_setting            triclinic
loop_
_symmetry_equiv_pos_as_xyz
  x,y,z
_cell_length_a                    32.8336
_cell_length_b                    32.4763
_cell_length_c                    35.6538
_cell_angle_alpha                 98.1064
_cell_angle_beta                  72.3935
_cell_angle_gamma                 98.5236
loop_
_atom_site_label
_atom_site_type_symbol
_atom_site_fract_x
_atom_site_fract_y
_atom_site_fract_z
_atom_site_U_iso_or_equiv
_atom_site_adp_type
_atom_site_occupancy
C1     C     0.05280   0.16012   0.25897   0.00000  Uiso   1.00
C2     C     0.20302   0.13980   0.45872   0.00000  Uiso   1.00
C3     C     0.22634   0.12250   0.47792   0.00000  Uiso   1.00
C4     C     0.28132   0.17284   0.24065   0.00000  Uiso   1.00
C5     C     0.21569   0.12719   0.01911   0.00000  Uiso   1.00
C6     C     0.17963   0.14814   0.04177   0.00000  Uiso   1.00
C7     C     0.24067   0.11081   0.03784   0.00000  Uiso   1.00
C8     C     0.23090   0.11559   0.07884   0.00000  Uiso   1.00
C9     C     0.17280   0.15626   0.08327   0.00000  Uiso   1.00
C10    C     0.32773   0.17231   0.23543   0.00000  Uiso   1.00
C11    C     0.00735   0.15821   0.26413   0.00000  Uiso   1.00
C12    C     0.08711   0.19575   0.41995   0.00000  Uiso   1.00
C13    C     0.18098   0.32225   0.23801   0.00000  Uiso   1.00
C14    C     0.15158   0.01214   0.26217   0.00000  Uiso   1.00
C15    C     0.15594   0.05620   0.25892   0.00000  Uiso   1.00
C16    C     0.17688   0.27773   0.24129   0.00000  Uiso   1.00
C17    C     0.18864   0.14518   0.14403   0.00000  Uiso   1.00
C18    C     0.14495   0.18751   0.35619   0.00000  Uiso   1.00
C19    C     0.13087   0.19221   0.39972   0.00000  Uiso   1.00
C20    C     0.19713   0.13813   0.10137   0.00000  Uiso   1.00
C21    C     0.07262   0.19379   0.46087   0.00000  Uiso   1.00
C22    C     0.02882   0.18673   0.19796   0.00000  Uiso   1.00
C23    C     0.16020   0.19013   0.42118   0.00000  Uiso   1.00
C24    C     0.01360   0.19673   0.16406   0.00000  Uiso   1.00
C25    C     0.31078   0.14330   0.30326   0.00000  Uiso   1.00
C26    C     0.33313   0.13171   0.33176   0.00000  Uiso   1.00
C27    C     0.16525   0.22496   0.10410   0.00000  Uiso   1.00
C28    C     0.13718   0.25453   0.13454   0.00000  Uiso   1.00
C29    C     0.03636   0.23262   0.41048   0.00000  Uiso   1.00
C30    C     0.32126   0.22033   0.42403   0.00000  Uiso   1.00
C31    C     0.20777   0.20561   0.40408   0.00000  Uiso   1.00
C32    C     0.21438   0.25035   0.39275   0.00000  Uiso   1.00
C33    C     0.14350   0.17932   0.46066   0.00000  Uiso   1.00
C34    C     0.10014   0.18507   0.48113   0.00000  Uiso   1.00
C35    C     0.16760   0.16155   0.48016   0.00000  Uiso   1.00
C36    C     0.15274   0.16089   0.02188   0.00000  Uiso   1.00
C37    C     0.11012   0.16928   0.04168   0.00000  Uiso   1.00
C38    C     0.08402   0.18019   0.02137   0.00000  Uiso   1.00
H39    H     0.05080   0.18434   0.03720   0.00000  Uiso   1.00
H40    H     0.32498   0.17018   0.15539   0.00000  Uiso   1.00
H41    H     0.33128   0.22605   0.17224   0.00000  Uiso   1.00
H42    H     0.04182   0.20169   0.13783   0.00000  Uiso   1.00
H43    H     0.04913   0.21477   0.20666   0.00000  Uiso   1.00
H44    H     0.04991   0.16146   0.18500   0.00000  Uiso   1.00
H45    H     0.02011   0.10611   0.31752   0.00000  Uiso   1.00
H46    H     0.01985   0.15931   0.34138   0.00000  Uiso   1.00
H47    H     0.30849   0.12072   0.35849   0.00000  Uiso   1.00
H48    H     0.29050   0.16838   0.31946   0.00000  Uiso   1.00
H49    H     0.29015   0.11453   0.29665   0.00000  Uiso   1.00
H50    H     0.26774   0.09419   0.02074   0.00000  Uiso   1.00
H51    H     0.17042   0.23481   0.07419   0.00000  Uiso   1.00
H52    H     0.19683   0.22795   0.11050   0.00000  Uiso   1.00
H53    H     0.13095   0.24496   0.16466   0.00000  Uiso   1.00
H54    H     0.15371   0.28694   0.13361   0.00000  Uiso   1.00
H55    H     0.10611   0.25398   0.12802   0.00000  Uiso   1.00
H56    H     0.04390   0.25028   0.38425   0.00000  Uiso   1.00
H57    H     0.04601   0.25464   0.43413   0.00000  Uiso   1.00
H58    H     0.30434   0.24891   0.43266   0.00000  Uiso   1.00
H59    H     0.31044   0.20125   0.39971   0.00000  Uiso   1.00
H60    H     0.31254   0.20192   0.44986   0.00000  Uiso   1.00
H61    H     0.20814   0.00290   0.21580   0.00000  Uiso   1.00
H62    H     0.20220   0.25198   0.36725   0.00000  Uiso   1.00
H63    H     0.19774   0.27153   0.41829   0.00000  Uiso   1.00
H64    H     0.24927   0.26155   0.38416   0.00000  Uiso   1.00
H65    H     0.22312   0.18437   0.37805   0.00000  Uiso   1.00
H66    H     0.22562   0.20698   0.42617   0.00000  Uiso   1.00
H67    H     0.12399   0.33222   0.28440   0.00000  Uiso   1.00
H68    H     0.25025   0.10251   0.09301   0.00000  Uiso   1.00
H69    H     0.25322   0.10583   0.46039   0.00000  Uiso   1.00
H70    H     0.03897   0.19605   0.47636   0.00000  Uiso   1.00
H71    H     0.09485   0.16387   0.07217   0.00000  Uiso   1.00
H72    H     0.21182   0.13418   0.42681   0.00000  Uiso   1.00
O73    O     0.16667   0.16667   0.25000   0.00000  Uiso   1.00
O74    O     0.15693   0.12393   0.16625   0.00000  Uiso   1.00
O75    O     0.12687   0.20646   0.33749   0.00000  Uiso   1.00
O76    O     0.21088   0.17493   0.15877   0.00000  Uiso   1.00
O77    O     0.17198   0.16135   0.33749   0.00000  Uiso   1.00
O78    O     0.14443   0.18368   0.10652   0.00000  Uiso   1.00
O79    O     0.05788   0.19610   0.39890   0.00000  Uiso   1.00
O80    O     0.17849   0.08101   0.27820   0.00000  Uiso   1.00
O81    O     0.14581   0.26136   0.26767   0.00000  Uiso   1.00
O82    O     0.07452   0.13251   0.23607   0.00000  Uiso   1.00
O83    O     0.26785   0.19179   0.21805   0.00000  Uiso   1.00
O84    O     0.06990   0.18960   0.27820   0.00000  Uiso   1.00
O85    O     0.25440   0.15277   0.26767   0.00000  Uiso   1.00
O86    O     0.13800   0.06903   0.23607   0.00000  Uiso   1.00
O87    O     0.20437   0.25527   0.21805   0.00000  Uiso   1.00
Zn88   Zn    0.19244   0.14090   0.28277   0.00000  Uiso   1.00
Zn89   Zn    0.13459   0.12378   0.22257   0.00000  Uiso   1.00
Zn90   Zn    0.21166   0.19664   0.21188   0.00000  Uiso   1.00
Zn91   Zn    0.12798   0.20535   0.28277   0.00000  Uiso   1.00
C92    C     0.38613   0.16012   0.25897   0.00000  Uiso   1.00
C93    C     0.53635   0.13980   0.45872   0.00000  Uiso   1.00
C94    C     0.55967   0.12250   0.47792   0.00000  Uiso   1.00
C95    C     0.61465   0.17284   0.24065   0.00000  Uiso   1.00
C96    C     0.54902   0.12719   0.01911   0.00000  Uiso   1.00
C97    C     0.51297   0.14814   0.04177   0.00000  Uiso   1.00
C98    C     0.57400   0.11081   0.03784   0.00000  Uiso   1.00
C99    C     0.56423   0.11559   0.07884   0.00000  Uiso   1.00
C100   C     0.50613   0.15626   0.08327   0.00000  Uiso   1.00
C101   C     0.66107   0.17231   0.23543   0.00000  Uiso   1.00
C102   C     0.34069   0.15821   0.26413   0.00000  Uiso   1.00
C103   C     0.42044   0.19575   0.41995   0.00000  Uiso   1.00
C104   C     0.51431   0.32225   0.23801   0.00000  Uiso   1.00
C105   C     0.48491   0.01214   0.26217   0.00000  Uiso   1.00
C106   C     0.48928   0.05620   0.25892   0.00000  Uiso   1.00
C107   C     0.51021   0.27773   0.24129   0.00000  Uiso   1.00
C108   C     0.52197   0.14518   0.14403   0.00000  Uiso   1.00
C109   C     0.47828   0.18751   0.35619   0.00000  Uiso   1.00
C110   C     0.46420   0.19221   0.39972   0.00000  Uiso   1.00
C111   C     0.53047   0.13813   0.10137   0.00000  Uiso   1.00
C112   C     0.40595   0.19379   0.46087   0.00000  Uiso   1.00
C113   C     0.36215   0.18673   0.19796   0.00000  Uiso   1.00
C114   C     0.49353   0.19013   0.42118   0.00000  Uiso   1.00
C115   C     0.34694   0.19673   0.16406   0.00000  Uiso   1.00
C116   C     0.64412   0.14330   0.30326   0.00000  Uiso   1.00
C117   C     0.66647   0.13171   0.33176   0.00000  Uiso   1.00
C118   C     0.49859   0.22496   0.10410   0.00000  Uiso   1.00
C119   C     0.47051   0.25453   0.13454   0.00000  Uiso   1.00
C120   C     0.36969   0.23262   0.41048   0.00000  Uiso   1.00
C121   C     0.65459   0.22033   0.42403   0.00000  Uiso   1.00
C122   C     0.54111   0.20561   0.40408   0.00000  Uiso   1.00
C123   C     0.54771   0.25035   0.39275   0.00000  Uiso   1.00
C124   C     0.47683   0.17932   0.46066   0.00000  Uiso   1.00
C125   C     0.43348   0.18507   0.48113   0.00000  Uiso   1.00
C126   C     0.50093   0.16155   0.48016   0.00000  Uiso   1.00
C127   C     0.48608   0.16089   0.02188   0.00000  Uiso   1.00
C128   C     0.44346   0.16928   0.04168   0.00000  Uiso   1.00
C129   C     0.41735   0.18019   0.02137   0.00000  Uiso   1.00
H130   H     0.38414   0.18434   0.03720   0.00000  Uiso   1.00
H131   H     0.65831   0.17018   0.15539   0.00000  Uiso   1.00
H132   H     0.66462   0.22605   0.17224   0.00000  Uiso   1.00
H133   H     0.37515   0.20169   0.13783   0.00000  Uiso   1.00
H134   H     0.38247   0.21477   0.20666   0.00000  Uiso   1.00
H135   H     0.38325   0.16146   0.18500   0.00000  Uiso   1.00
H136   H     0.35345   0.10611   0.31752   0.00000  Uiso   1.00
H137   H     0.35319   0.15931   0.34138   0.00000  Uiso   1.00
H138   H     0.64182   0.12072   0.35849   0.00000  Uiso   1.00
H139   H     0.62383   0.16838   0.31946   0.00000  Uiso   1.00
H140   H     0.62348   0.11453   0.29665   0.00000  Uiso   1.00
H141   H     0.60108   0.09419   0.02074   0.00000  Uiso   1.00
H142   H     0.50376   0.23481   0.07419   0.00000  Uiso   1.00
H143   H     0.53017   0.22795   0.11050   0.00000  Uiso   1.00
H144   H     0.46428   0.24496   0.16466   0.00000  Uiso   1.00
H145   H     0.48704   0.28694   0.13361   0.00000  Uiso   1.00
H146   H     0.43944   0.25398   0.12802   0.00000  Uiso   1.00
H147   H     0.37723   0.25028   0.38425   0.00000  Uiso   1.00
H148   H     0.37934   0.25464   0.43413   0.00000  Uiso   1.00
H149   H     0.63767   0.24891   0.43266   0.00000  Uiso   1.00
H150   H     0.64377   0.20125   0.39971   0.00000  Uiso   1.00
H151   H     0.64587   0.20192   0.44986   0.00000  Uiso   1.00
H152   H     0.54148   0.00290   0.21580   0.00000  Uiso   1.00
H153   H     0.53553   0.25198   0.36725   0.00000  Uiso   1.00
H154   H     0.53108   0.27153   0.41829   0.00000  Uiso   1.00
H155   H     0.58260   0.26155   0.38416   0.00000  Uiso   1.00
H156   H     0.55645   0.18437   0.37805   0.00000  Uiso   1.00
H157   H     0.55896   0.20698   0.42617   0.00000  Uiso   1.00
H158   H     0.45733   0.33222   0.28440   0.00000  Uiso   1.00
H159   H     0.58358   0.10251   0.09301   0.00000  Uiso   1.00
H160   H     0.58655   0.10583   0.46039   0.00000  Uiso   1.00
H161   H     0.37230   0.19605   0.47636   0.00000  Uiso   1.00
H162   H     0.42819   0.16387   0.07217   0.00000  Uiso   1.00
H163   H     0.54515   0.13418   0.42681   0.00000  Uiso   1.00
O164   O     0.50000   0.16667   0.25000   0.00000  Uiso   1.00
O165   O     0.49027   0.12393   0.16625   0.00000  Uiso   1.00
O166   O     0.46020   0.20646   0.33749   0.00000  Uiso   1.00
O167   O     0.54421   0.17493   0.15877   0.00000  Uiso   1.00
O168   O     0.50532   0.16135   0.33749   0.00000  Uiso   1.00
O169   O     0.47776   0.18368   0.10652   0.00000  Uiso   1.00
O170   O     0.39121   0.19610   0.39890   0.00000  Uiso   1.00
O171   O     0.51182   0.08101   0.27820   0.00000  Uiso   1.00
O172   O     0.47914   0.26136   0.26767   0.00000  Uiso   1.00
O173   O     0.40785   0.13251   0.23607   0.00000  Uiso   1.00
O174   O     0.60119   0.19179   0.21805   0.00000  Uiso   1.00
O175   O     0.40323   0.18960   0.27820   0.00000  Uiso   1.00
O176   O     0.58773   0.15277   0.26767   0.00000  Uiso   1.00
O177   O     0.47133   0.06903   0.23607   0.00000  Uiso   1.00
O178   O     0.53771   0.25527   0.21805   0.00000  Uiso   1.00
Zn179  Zn    0.52577   0.14090   0.28277   0.00000  Uiso   1.00
Zn180  Zn    0.46792   0.12378   0.22257   0.00000  Uiso   1.00
Zn181  Zn    0.54500   0.19664   0.21188   0.00000  Uiso   1.00
Zn182  Zn    0.46131   0.20535   0.28277   0.00000  Uiso   1.00
C183   C     0.71947   0.16012   0.25897   0.00000  Uiso   1.00
C184   C     0.86968   0.13980   0.45872   0.00000  Uiso   1.00
C185   C     0.89300   0.12250   0.47792   0.00000  Uiso   1.00
C186   C     0.94799   0.17284   0.24065   0.00000  Uiso   1.00
C187   C     0.88235   0.12719   0.01911   0.00000  Uiso   1.00
C188   C     0.84630   0.14814   0.04177   0.00000  Uiso   1.00
C189   C     0.90733   0.11081   0.03784   0.00000  Uiso   1.00
C190   C     0.89756   0.11559   0.07884   0.00000  Uiso   1.00
C191   C     0.83946   0.15626   0.08327   0.00000  Uiso   1.00
C192   C     0.99440   0.17231   0.23543   0.00000  Uiso   1.00
C193   C     0.67402   0.15821   0.26413   0.00000  Uiso   1.00
C194   C     0.75378   0.19575   0.41995   0.00000  Uiso   1.00
C195   C     0.84764   0.32225   0.23801   0.00000  Uiso   1.00
C196   C     0.81825   0.01214   0.26217   0.00000  Uiso   1.00
C197   C     0.82261   0.05620   0.25892   0.00000  Uiso   1.00
C198   C     0.84354   0.27773   0.24129   0.00000  Uiso   1.00
C199   C     0.85530   0.14518   0.14403   0.00000  Uiso   1.00
C200   C     0.81162   0.18751   0.35619   0.00000  Uiso   1.00
C201   C     0.79754   0.19221   0.39972   0.00000  Uiso   1.00
C202   C     0.86380   0.13813   0.10137   0.00000  Uiso   1.00
C203   C     0.73928   0.19379   0.46087   0.00000  Uiso   1.00
C204   C     0.69549   0.18673   0.19796   0.00000  Uiso   1.00
C205   C     0.82686   0.19013   0.42118   0.00000  Uiso   1.00
C206   C     0.68027   0.19673   0.16406   0.00000  Uiso   1.00
C207   C     0.97745   0.14330   0.30326   0.00000  Uiso   1.00
C208   C     0.99980   0.13171   0.33176   0.00000  Uiso   1.00
C209   C     0.83192   0.22496   0.10410   0.00000  Uiso   1.00
C210   C     0.80385   0.25453   0.13454   0.00000  Uiso   1.00
C211   C     0.70302   0.23262   0.41048   0.00000  Uiso   1.00
C212   C     0.98792   0.22033   0.42403   0.00000  Uiso   1.00
C213   C     0.87444   0.20561   0.40408   0.00000  Uiso   1.00
C214   C     0.88105   0.25035   0.39275   0.00000  Uiso   1.00
C215   C     0.81016   0.17932   0.46066   0.00000  Uiso   1.00
C216   C     0.76681   0.18507   0.48113   0.00000  Uiso   1.00
C217   C     0.83427   0.16155   0.48016   0.00000  Uiso   1.00
C218   C     0.81941   0.16089   0.02188   0.00000  Uiso   1.00
C219   C     0.77679   0.16928   0.04168   0.00000  Uiso   1.00
C220   C     0.75068   0.18019   0.02137   0.00000  Uiso   1.00
H221   H     0.71747   0.18434   0.03720   0.00000  Uiso   1.00
H222   H     0.99165   0.17018   0.15539   0.00000  Uiso   1.00
H223   H     0.99795   0.22605   0.17224   0.00000  Uiso   1.00
H224   H     0.70848   0.20169   0.13783   0.00000  Uiso   1.00
H225   H     0.71580   0.21477   0.20666   0.00000  Uiso   1.00
H226   H     0.71658   0.16146   0.18500   0.00000  Uiso   1.00
H227   H     0.68678   0.10611   0.31752   0.00000  Uiso   1.00
H228   H     0.68652   0.15931   0.34138   0.00000  Uiso   1.00
H229   H     0.97515   0.12072   0.35849   0.00000  Uiso   1.00
H230   H     0.95717   0.16838   0.31946   0.00000  Uiso   1.00
H231   H     0.95682   0.11453   0.29665   0.00000  Uiso   1.00
H232   H     0.93441   0.09419   0.02074   0.00000  Uiso   1.00
H233   H     0.83709   0.23481   0.07419   0.00000  Uiso   1.00
H234   H     0.86350   0.22795   0.11050   0.00000  Uiso   1.00
H235   H     0.79762   0.24496   0.16466   0.00000  Uiso   1.00
H236   H     0.82038   0.28694   0.13361   0.00000  Uiso   1.00
H237   H     0.77277   0.25398   0.12802   0.00000  Uiso   1.00
H238   H     0.71056   0.25028   0.38425   0.00000  Uiso   1.00
H239   H     0.71268   0.25464   0.43413   0.00000  Uiso   1.00
H240   H     0.97100   0.24891   0.43266   0.00000  Uiso   1.00
H241   H     0.97711   0.20125   0.39971   0.00000  Uiso   1.00
H242   H     0.97921   0.20192   0.44986   0.00000  Uiso   1.00
H243   H     0.87481   0.00290   0.21580   0.00000  Uiso   1.00
H244   H     0.86887   0.25198   0.36725   0.00000  Uiso   1.00
H245   H     0.86441   0.27153   0.41829   0.00000  Uiso   1.00
H246   H     0.91594   0.26155   0.38416   0.00000  Uiso   1.00
H247   H     0.88979   0.18437   0.37805   0.00000  Uiso   1.00
H248   H     0.89229   0.20698   0.42617   0.00000  Uiso   1.00
H249   H     0.79066   0.33222   0.28440   0.00000  Uiso   1.00
H250   H     0.91691   0.10251   0.09301   0.00000  Uiso   1.00
H251   H     0.91989   0.10583   0.46039   0.00000  Uiso   1.00
H252   H     0.70564   0.19605   0.47636   0.00000  Uiso   1.00
H253   H     0.76152   0.16387   0.07217   0.00000  Uiso   1.00
H254   H     0.87848   0.13418   0.42681   0.00000  Uiso   1.00
O255   O     0.83333   0.16667   0.25000   0.00000  Uiso   1.00
O256   O     0.82360   0.12393   0.16625   0.00000  Uiso   1.00
O257   O     0.79354   0.20646   0.33749   0.00000  Uiso   1.00
O258   O     0.87755   0.17493   0.15877   0.00000  Uiso   1.00
O259   O     0.83865   0.16135   0.33749   0.00000  Uiso   1.00
O260   O     0.81110   0.18368   0.10652   0.00000  Uiso   1.00
O261   O     0.72455   0.19610   0.39890   0.00000  Uiso   1.00
O262   O     0.84515   0.08101   0.27820   0.00000  Uiso   1.00
O263   O     0.81247   0.26136   0.26767   0.00000  Uiso   1.00
O264   O     0.74119   0.13251   0.23607   0.00000  Uiso   1.00
O265   O     0.93452   0.19179   0.21805   0.00000  Uiso   1.00
O266   O     0.73656   0.18960   0.27820   0.00000  Uiso   1.00
O267   O     0.92106   0.15277   0.26767   0.00000  Uiso   1.00
O268   O     0.80467   0.06903   0.23607   0.00000  Uiso   1.00
O269   O     0.87104   0.25527   0.21805   0.00000  Uiso   1.00
Zn270  Zn    0.85910   0.14090   0.28277   0.00000  Uiso   1.00
Zn271  Zn    0.80125   0.12378   0.22257   0.00000  Uiso   1.00
Zn272  Zn    0.87833   0.19664   0.21188   0.00000  Uiso   1.00
Zn273  Zn    0.79465   0.20535   0.28277   0.00000  Uiso   1.00
C274   C     0.05280   0.49345   0.25897   0.00000  Uiso   1.00
C275   C     0.20302   0.47313   0.45872   0.00000  Uiso   1.00
C276   C     0.22634   0.45584   0.47792   0.00000  Uiso   1.00
C277   C     0.28132   0.50618   0.24065   0.00000  Uiso   1.00
C278   C     0.21569   0.46053   0.01911   0.00000  Uiso   1.00
C279   C     0.17963   0.48147   0.04177   0.00000  Uiso   1.00
C280   C     0.24067   0.44414   0.03784   0.00000  Uiso   1.00
C281   C     0.23090   0.44892   0.07884   0.00000  Uiso   1.00
C282   C     0.17280   0.48959   0.08327   0.00000  Uiso   1.00
C283   C     0.32773   0.50565   0.23543   0.00000  Uiso   1.00
C284   C     0.00735   0.49155   0.26413   0.00000  Uiso   1.00
C285   C     0.08711   0.52908   0.41995   0.00000  Uiso   1.00
C286   C     0.18098   0.65558   0.23801   0.00000  Uiso   1.00
C287   C     0.15158   0.34547   0.26217   0.00000  Uiso   1.00
C288   C     0.15594   0.38954   0.25892   0.00000  Uiso   1.00
C289   C     0.17688   0.61106   0.24129   0.00000  Uiso   1.00
C290   C     0.18864   0.47851   0.14403   0.00000  Uiso   1.00
C291   C     0.14495   0.52084   0.35619   0.00000  Uiso   1.00
C292   C     0.13087   0.52555   0.39972   0.00000  Uiso   1.00
C293   C     0.19713   0.47146   0.10137   0.00000  Uiso   1.00
C294   C     0.07262   0.52712   0.46087   0.00000  Uiso   1.00
C295   C     0.02882   0.52006   0.19796   0.00000  Uiso   1.00
C296   C     0.16020   0.52346   0.42118   0.00000  Uiso   1.00
C297   C     0.01360   0.53006   0.16406   0.00000  Uiso   1.00
C298   C     0.31078   0.47663   0.30326   0.00000  Uiso   1.00
C299   C     0.33313   0.46504   0.33176   0.00000  Uiso   1.00
C300   C     0.16525   0.55829   0.10410   0.00000  Uiso   1.00
C301   C     0.13718   0.58786   0.13454   0.00000  Uiso   1.00
C302   C     0.03636   0.56595   0.41048   0.00000  Uiso   1.00
C303   C     0.32126   0.55367   0.42403   0.00000  Uiso   1.00
C304   C     0.20777   0.53894   0.40408   0.00000  Uiso   1.00
C305   C     0.21438   0.58369   0.39275   0.00000  Uiso   1.00
C306   C     0.14350   0.51265   0.46066   0.00000  Uiso   1.00
C307   C     0.10014   0.51840   0.48113   0.00000  Uiso   1.00
C308   C     0.16760   0.49488   0.48016   0.00000  Uiso   1.00
C309   C     0.15274   0.49423   0.02188   0.00000  Uiso   1.00
C310   C     0.11012   0.50261   0.04168   0.00000  Uiso   1.00
C311   C     0.08402   0.51352   0.02137   0.00000  Uiso   1.00
H312   H     0.05080   0.51767   0.03720   0.00000  Uiso   1.00
H313   H     0.32498   0.50352   0.15539   0.00000  Uiso   1.00
H314   H     0.33128   0.55939   0.17224   0.00000  Uiso   1.00
H315   H     0.04182   0.53503   0.13783   0.00000  Uiso   1.00
H316   H     0.04913   0.54811   0.20666   0.00000  Uiso   1.00
H317   H     0.04991   0.49479   0.18500   0.00000  Uiso   1.00
H318   H     0.02011   0.43944   0.31752   0.00000  Uiso   1.00
H319   H     0.01985   0.49264   0.34138   0.00000  Uiso   1.00
H320   H     0.30849   0.45405   0.35849   0.00000  Uiso   1.00
H321   H     0.29050   0.50171   0.31946   0.00000  Uiso   1.00
H322   H     0.29015   0.44786   0.29665   0.00000  Uiso   1.00
H323   H     0.26774   0.42753   0.02074   0.00000  Uiso   1.00
H324   H     0.17042   0.56815   0.07419   0.00000  Uiso   1.00
H325   H     0.19683   0.56128   0.11050   0.00000  Uiso   1.00
H326   H     0.13095   0.57829   0.16466   0.00000  Uiso   1.00
H327   H     0.15371   0.62027   0.13361   0.00000  Uiso   1.00
H328   H     0.10611   0.58731   0.12802   0.00000  Uiso   1.00
H329   H     0.04390   0.58361   0.38425   0.00000  Uiso   1.00
H330   H     0.04601   0.58797   0.43413   0.00000  Uiso   1.00
H331   H     0.30434   0.58224   0.43266   0.00000  Uiso   1.00
H332   H     0.31044   0.53459   0.39971   0.00000  Uiso   1.00
H333   H     0.31254   0.53525   0.44986   0.00000  Uiso   1.00
H334   H     0.20814   0.33624   0.21580   0.00000  Uiso   1.00
H335   H     0.20220   0.58532   0.36725   0.00000  Uiso   1.00
H336   H     0.19774   0.60486   0.41829   0.00000  Uiso   1.00
H337   H     0.24927   0.59488   0.38416   0.00000  Uiso   1.00
H338   H     0.22312   0.51770   0.37805   0.00000  Uiso   1.00
H339   H     0.22562   0.54031   0.42617   0.00000  Uiso   1.00
H340   H     0.12399   0.66556   0.28440   0.00000  Uiso   1.00
H341   H     0.25025   0.43585   0.09301   0.00000  Uiso   1.00
H342   H     0.25322   0.43917   0.46039   0.00000  Uiso   1.00
H343   H     0.03897   0.52938   0.47636   0.00000  Uiso   1.00
H344   H     0.09485   0.49720   0.07217   0.00000  Uiso   1.00
H345   H     0.21182   0.46751   0.42681   0.00000  Uiso   1.00
O346   O     0.16667   0.50000   0.25000   0.00000  Uiso   1.00
O347   O     0.15693   0.45726   0.16625   0.00000  Uiso   1.00
O348   O     0.12687   0.53979   0.33749   0.00000  Uiso   1.00
O349   O     0.21088   0.50826   0.15877   0.00000  Uiso   1.00
O350   O     0.17198   0.49468   0.33749   0.00000  Uiso   1.00
O351   O     0.14443   0.51702   0.10652   0.00000  Uiso   1.00
O352   O     0.05788   0.52944   0.39890   0.00000  Uiso   1.00
O353   O     0.17849   0.41434   0.27820   0.00000  Uiso   1.00
O354   O     0.14581   0.59469   0.26767   0.00000  Uiso   1.00
O355   O     0.07452   0.46584   0.23607   0.00000  Uiso   1.00
O356   O     0.26785   0.52512   0.21805   0.00000  Uiso   1.00
O357   O     0.06990   0.52293   0.27820   0.00000  Uiso   1.00
O358   O     0.25440   0.48610   0.26767   0.00000  Uiso   1.00
O359   O     0.13800   0.40236   0.23607   0.00000  Uiso   1.00
O360   O     0.20437   0.58860   0.21805   0.00000  Uiso   1.00
Zn361  Zn    0.19244   0.47423   0.28277   0.00000  Uiso   1.00
Zn362  Zn    0.13459   0.45711   0.22257   0.00000  Uiso   1.00
Zn363  Zn    0.21166   0.52997   0.21188   0.00000  Uiso   1.00
Zn364  Zn    0.12798   0.53868   0.28277   0.00000  Uiso   1.00
C365   C     0.38613   0.49345   0.25897   0.00000  Uiso   1.00
C366   C     0.53635   0.47313   0.45872   0.00000  Uiso   1.00
C367   C     0.55967   0.45584   0.47792   0.00000  Uiso   1.00
C368   C     0.61465   0.50618   0.24065   0.00000  Uiso   1.00
C369   C     0.54902   0.46053   0.01911   0.00000  Uiso   1.00
C370   C     0.51297   0.48147   0.04177   0.00000  Uiso   1.00
C371   C     0.57400   0.44414   0.03784   0.00000  Uiso   1.00
C372   C     0.56423   0.44892   0.07884   0.00000  Uiso   1.00
C373   C     0.50613   0.48959   0.08327   0.00000  Uiso   1.00
C374   C     0.66107   0.50565   0.23543   0.00000  Uiso   1.00
C375   C     0.34069   0.49155   0.26413   0.00000  Uiso   1.00
C376   C     0.42044   0.52908   0.41995   0.00000  Uiso   1.00
C377   C     0.51431   0.65558   0.23801   0.00000  Uiso   1.00
C378   C     0.48491   0.34547   0.26217   0.00000  Uiso   1.00
C379   C     0.48928   0.38954   0.25892   0.00000  Uiso   1.00
C380   C     0.51021   0.61106   0.24129   0.00000  Uiso   1.00
C381   C     0.52197   0.47851   0.14403   0.00000  Uiso   1.00
C382   C     0.47828   0.52084   0.35619   0.00000  Uiso   1.00
C383   C     0.46420   0.52555   0.39972   0.00000  Uiso   1.00
C384   C     0.53047   0.47146   0.10137   0.00000  Uiso   1.00
C385   C     0.40595   0.52712   0.46087   0.00000  Uiso   1.00
C386   C     0.36215   0.52006   0.19796   0.00000  Uiso   1.00
C387   C     0.49353   0.52346   0.42118   0.00000  Uiso   1.00
C388   C     0.34694   0.53006   0.16406   0.00000  Uiso   1.00
C389   C     0.64412   0.47663   0.30326   0.00000  Uiso   1.00
C390   C     0.66647   0.46504   0.33176   0.00000  Uiso   1.00
C391   C     0.49859   0.55829   0.10410   0.00000  Uiso   1.00
C392   C     0.47051   0.58786   0.13454   0.00000  Uiso   1.00
C393   C     0.36969   0.56595   0.41048   0.00000  Uiso   1.00
C394   C     0.65459   0.55367   0.42403   0.00000  Uiso   1.00
C395   C     0.54111   0.53894   0.40408   0.00000  Uiso   1.00
C396   C     0.54771   0.58369   0.39275   0.00000  Uiso   1.00
C397   C     0.47683   0.51265   0.46066   0.00000  Uiso   1.00
C398   C     0.43348   0.51840   0.48113   0.00000  Uiso   1.00
C399   C     0.50093   0.49488   0.48016   0.00000  Uiso   1.00
C400   C     0.48608   0.49423   0.02188   0.00000  Uiso   1.00
C401   C     0.44346   0.50261   0.04168   0.00000  Uiso   1.00
C402   C     0.41735   0.51352   0.02137   0.00000  Uiso   1.00
H403   H     0.38414   0.51767   0.03720   0.00000  Uiso   1.00
H404   H     0.65831   0.50352   0.15539   0.00000  Uiso   1.00
H405   H     0.66462   0.55939   0.17224   0.00000  Uiso   1.00
H406   H     0.37515   0.53503   0.13783   0.00000  Uiso   1.00
H407   H     0.38247   0.54811   0.20666   0.00000  Uiso   1.00
H408   H     0.38325   0.49479   0.18500   0.00000  Uiso   1.00
H409   H     0.35345   0.43944   0.31752   0.00000  Uiso   1.00
H410   H     0.35319   0.49264   0.34138   0.00000  Uiso   1.00
H411   H     0.64182   0.45405   0.35849   0.00000  Uiso   1.00
H412   H     0.62383   0.50171   0.31946   0.00000  Uiso   1.00
H413   H     0.62348   0.44786   0.29665   0.00000  Uiso   1.00
H414   H     0.60108   0.42753   0.02074   0.00000  Uiso   1.00
H415   H     0.50376   0.56815   0.07419   0.00000  Uiso   1.00
H416   H     0.53017   0.56128   0.11050   0.00000  Uiso   1.00
H417   H     0.46428   0.57829   0.16466   0.00000  Uiso   1.00
H418   H     0.48704   0.62027   0.13361   0.00000  Uiso   1.00
H419   H     0.43944   0.58731   0.12802   0.00000  Uiso   1.00
H420   H     0.37723   0.58361   0.38425   0.00000  Uiso   1.00
H421   H     0.37934   0.58797   0.43413   0.00000  Uiso   1.00
H422   H     0.63767   0.58224   0.43266   0.00000  Uiso   1.00
H423   H     0.64377   0.53459   0.39971   0.00000  Uiso   1.00
H424   H     0.64587   0.53525   0.44986   0.00000  Uiso   1.00
H425   H     0.54148   0.33624   0.21580   0.00000  Uiso   1.00
H426   H     0.53553   0.58532   0.36725   0.00000  Uiso   1.00
H427   H     0.53108   0.60486   0.41829   0.00000  Uiso   1.00
H428   H     0.58260   0.59488   0.38416   0.00000  Uiso   1.00
H429   H     0.55645   0.51770   0.37805   0.00000  Uiso   1.00
H430   H     0.55896   0.54031   0.42617   0.00000  Uiso   1.00
H431   H     0.45733   0.66556   0.28440   0.00000  Uiso   1.00
H432   H     0.58358   0.43585   0.09301   0.00000  Uiso   1.00
H433   H     0.58655   0.43917   0.46039   0.00000  Uiso   1.00
H434   H     0.37230   0.52938   0.47636   0.00000  Uiso   1.00
H435   H     0.42819   0.49720   0.07217   0.00000  Uiso   1.00
H436   H     0.54515   0.46751   0.42681   0.00000  Uiso   1.00
O437   O     0.50000   0.50000   0.25000   0.00000  Uiso   1.00
O438   O     0.49027   0.45726   0.16625   0.00000  Uiso   1.00
O439   O     0.46020   0.53979   0.33749   0.00000  Uiso   1.00
O440   O     0.54421   0.50826   0.15877   0.00000  Uiso   1.00
O441   O     0.50532   0.49468   0.33749   0.00000  Uiso   1.00
O442   O     0.47776   0.51702   0.10652   0.00000  Uiso   1.00
O443   O     0.39121   0.52944   0.39890   0.00000  Uiso   1.00
O444   O     0.51182   0.41434   0.27820   0.00000  Uiso   1.00
O445   O     0.47914   0.59469   0.26767   0.00000  Uiso   1.00
O446   O     0.40785   0.46584   0.23607   0.00000  Uiso   1.00
O447   O     0.60119   0.52512   0.21805   0.00000  Uiso   1.00
O448   O     0.40323   0.52293   0.27820   0.00000  Uiso   1.00
O449   O     0.58773   0.48610   0.26767   0.00000  Uiso   1.00
O450   O     0.47133   0.40236   0.23607   0.00000  Uiso   1.00
O451   O     0.53771   0.58860   0.21805   0.00000  Uiso   1.00
Zn452  Zn    0.52577   0.47423   0.28277   0.00000  Uiso   1.00
Zn453  Zn    0.46792   0.45711   0.22257   0.00000  Uiso   1.00
Zn454  Zn    0.54500   0.52997   0.21188   0.00000  Uiso   1.00
Zn455  Zn    0.46131   0.53868   0.28277   0.00000  Uiso   1.00
C456   C     0.71947   0.49345   0.25897   0.00000  Uiso   1.00
C457   C     0.86968   0.47313   0.45872   0.00000  Uiso   1.00
C458   C     0.89300   0.45584   0.47792   0.00000  Uiso   1.00
C459   C     0.94799   0.50618   0.24065   0.00000  Uiso   1.00
C460   C     0.88235   0.46053   0.01911   0.00000  Uiso   1.00
C461   C     0.84630   0.48147   0.04177   0.00000  Uiso   1.00
C462   C     0.90733   0.44414   0.03784   0.00000  Uiso   1.00
C463   C     0.89756   0.44892   0.07884   0.00000  Uiso   1.00
C464   C     0.83946   0.48959   0.08327   0.00000  Uiso   1.00
C465   C     0.99440   0.50565   0.23543   0.00000  Uiso   1.00
C466   C     0.67402   0.49155   0.26413   0.00000  Uiso   1.00
C467   C     0.75378   0.52908   0.41995   0.00000  Uiso   1.00
C468   C     0.84764   0.65558   0.23801   0.00000  Uiso   1.00
C469   C     0.81825   0.34547   0.26217   0.00000  Uiso   1.00
C470   C     0.82261   0.38954   0.25892   0.00000  Uiso   1.00
C471   C     0.84354   0.61106   0.24129   0.00000  Uiso   1.00
C472   C     0.85530   0.47851   0.14403   0.00000  Uiso   1.00
C473   C     0.81162   0.52084   0.35619   0.00000  Uiso   1.00
C474   C     0.79754   0.52555   0.39972   0.00000  Uiso   1.00
C475   C     0.86380   0.47146   0.10137   0.00000  Uiso   1.00
C476   C     0.73928   0.52712   0.46087   0.00000  Uiso   1.00
C477   C     0.69549   0.52006   0.19796   0.00000  Uiso   1.00
C478   C     0.82686   0.52346   0.42118   0.00000  Uiso   1.00
C479   C     0.68027   0.53006   0.16406   0.00000  Uiso   1.00
C480   C     0.97745   0.47663   0.30326   0.00000  Uiso   1.00
C481   C     0.99980   0.46504   0.33176   0.00000  Uiso   1.00
C482   C     0.83192   0.55829   0.10410   0.00000  Uiso   1.00
C483   C     0.80385   0.58786   0.13454   0.00000  Uiso   1.00
C484   C     0.70302   0.56595   0.41048   0.00000  Uiso   1.00
C485   C     0.98792   0.55367   0.42403   0.00000  Uiso   1.00
C486   C     0.87444   0.53894   0.40408   0.00000  Uiso   1.00
C487   C     0.88105   0.58369   0.39275   0.00000  Uiso   1.00
C488   C     0.81016   0.51265   0.46066   0.00000  Uiso   1.00
C489   C     0.76681   0.51840   0.48113   0.00000  Uiso   1.00
C490   C     0.83427   0.49488   0.48016   0.00000  Uiso   1.00
C491   C     0.81941   0.49423   0.02188   0.00000  Uiso   1.00
C492   C     0.77679   0.50261   0.04168   0.00000  Uiso   1.00
C493   C     0.75068   0.51352   0.02137   0.00000  Uiso   1.00
H494   H     0.71747   0.51767   0.03720   0.00000  Uiso   1.00
H495   H     0.99165   0.50352   0.15539   0.00000  Uiso   1.00
H496   H     0.99795   0.55939   0.17224   0.00000  Uiso   1.00
H497   H     0.70848   0.53503   0.13783   0.00000  Uiso   1.00
H498   H     0.71580   0.54811   0.20666   0.00000  Uiso   1.00
H499   H     0.71658   0.49479   0.18500   0.00000  Uiso   1.00
H500   H     0.68678   0.43944   0.31752   0.00000  Uiso   1.00
H501   H     0.68652   0.49264   0.34138   0.00000  Uiso   1.00
H502   H     0.97515   0.45405   0.35849   0.00000  Uiso   1.00
H503   H     0.95717   0.50171   0.31946   0.00000  Uiso   1.00
H504   H     0.95682   0.44786   0.29665   0.00000  Uiso   1.00
H505   H     0.93441   0.42753   0.02074   0.00000  Uiso   1.00
H506   H     0.83709   0.56815   0.07419   0.00000  Uiso   1.00
H507   H     0.86350   0.56128   0.11050   0.00000  Uiso   1.00
H508   H     0.79762   0.57829   0.16466   0.00000  Uiso   1.00
H509   H     0.82038   0.62027   0.13361   0.00000  Uiso   1.00
H510   H     0.77277   0.58731   0.12802   0.00000  Uiso   1.00
H511   H     0.71056   0.58361   0.38425   0.00000  Uiso   1.00
H512   H     0.71268   0.58797   0.43413   0.00000  Uiso   1.00
H513   H     0.97100   0.58224   0.43266   0.00000  Uiso   1.00
H514   H     0.97711   0.53459   0.39971   0.00000  Uiso   1.00
H515   H     0.97921   0.53525   0.44986   0.00000  Uiso   1.00
H516   H     0.87481   0.33624   0.21580   0.00000  Uiso   1.00
H517   H     0.86887   0.58532   0.36725   0.00000  Uiso   1.00
H518   H     0.86441   0.60486   0.41829   0.00000  Uiso   1.00
H519   H     0.91594   0.59488   0.38416   0.00000  Uiso   1.00
H520   H     0.88979   0.51770   0.37805   0.00000  Uiso   1.00
H521   H     0.89229   0.54031   0.42617   0.00000  Uiso   1.00
H522   H     0.79066   0.66556   0.28440   0.00000  Uiso   1.00
H523   H     0.91691   0.43585   0.09301   0.00000  Uiso   1.00
H524   H     0.91989   0.43917   0.46039   0.00000  Uiso   1.00
H525   H     0.70564   0.52938   0.47636   0.00000  Uiso   1.00
H526   H     0.76152   0.49720   0.07217   0.00000  Uiso   1.00
H527   H     0.87848   0.46751   0.42681   0.00000  Uiso   1.00
O528   O     0.83333   0.50000   0.25000   0.00000  Uiso   1.00
O529   O     0.82360   0.45726   0.16625   0.00000  Uiso   1.00
O530   O     0.79354   0.53979   0.33749   0.00000  Uiso   1.00
O531   O     0.87755   0.50826   0.15877   0.00000  Uiso   1.00
O532   O     0.83865   0.49468   0.33749   0.00000  Uiso   1.00
O533   O     0.81110   0.51702   0.10652   0.00000  Uiso   1.00
O534   O     0.72455   0.52944   0.39890   0.00000  Uiso   1.00
O535   O     0.84515   0.41434   0.27820   0.00000  Uiso   1.00
O536   O     0.81247   0.59469   0.26767   0.00000  Uiso   1.00
O537   O     0.74119   0.46584   0.23607   0.00000  Uiso   1.00
O538   O     0.93452   0.52512   0.21805   0.00000  Uiso   1.00
O539   O     0.73656   0.52293   0.27820   0.00000  Uiso   1.00
O540   O     0.92106   0.48610   0.26767   0.00000  Uiso   1.00
O541   O     0.80467   0.40236   0.23607   0.00000  Uiso   1.00
O542   O     0.87104   0.58860   0.21805   0.00000  Uiso   1.00
Zn543  Zn    0.85910   0.47423   0.28277   0.00000  Uiso   1.00
Zn544  Zn    0.80125   0.45711   0.22257   0.00000  Uiso   1.00
Zn545  Zn    0.87833   0.52997   0.21188   0.00000  Uiso   1.00
Zn546  Zn    0.79465   0.53868   0.28277   0.00000  Uiso   1.00
C547   C     0.05280   0.82679   0.25897   0.00000  Uiso   1.00
C548   C     0.20302   0.80646   0.45872   0.00000  Uiso   1.00
C549   C     0.22634   0.78917   0.47792   0.00000  Uiso   1.00
C550   C     0.28132   0.83951   0.24065   0.00000  Uiso   1.00
C551   C     0.21569   0.79386   0.01911   0.00000  Uiso   1.00
C552   C     0.17963   0.81480   0.04177   0.00000  Uiso   1.00
C553   C     0.24067   0.77748   0.03784   0.00000  Uiso   1.00
C554   C     0.23090   0.78226   0.07884   0.00000  Uiso   1.00
C555   C     0.17280   0.82292   0.08327   0.00000  Uiso   1.00
C556   C     0.32773   0.83898   0.23543   0.00000  Uiso   1.00
C557   C     0.00735   0.82488   0.26413   0.00000  Uiso   1.00
C558   C     0.08711   0.86241   0.41995   0.00000  Uiso   1.00
C559   C     0.18098   0.98891   0.23801   0.00000  Uiso   1.00
C560   C     0.15158   0.67881   0.26217   0.00000  Uiso   1.00
C561   C     0.15594   0.72287   0.25892   0.00000  Uiso   1.00
C562   C     0.17688   0.94439   0.24129   0.00000  Uiso   1.00
C563   C     0.18864   0.81185   0.14403   0.00000  Uiso   1.00
C564   C     0.14495   0.85418   0.35619   0.00000  Uiso   1.00
C565   C     0.13087   0.85888   0.39972   0.00000  Uiso   1.00
C566   C     0.19713   0.80479   0.10137   0.00000  Uiso   1.00
C567   C     0.07262   0.86046   0.46087   0.00000  Uiso   1.00
C568   C     0.02882   0.85339   0.19796   0.00000  Uiso   1.00
C569   C     0.16020   0.85679   0.42118   0.00000  Uiso   1.00
C570   C     0.01360   0.86339   0.16406   0.00000  Uiso   1.00
C571   C     0.31078   0.80997   0.30326   0.00000  Uiso   1.00
C572   C     0.33313   0.79837   0.33176   0.00000  Uiso   1.00
C573   C     0.16525   0.89163   0.10410   0.00000  Uiso   1.00
C574   C     0.13718   0.92120   0.13454   0.00000  Uiso   1.00
C575   C     0.03636   0.89929   0.41048   0.00000  Uiso   1.00
C576   C     0.32126   0.88700   0.42403   0.00000  Uiso   1.00
C577   C     0.20777   0.87227   0.40408   0.00000  Uiso   1.00
C578   C     0.21438   0.91702   0.39275   0.00000  Uiso   1.00
C579   C     0.14350   0.84598   0.46066   0.00000  Uiso   1.00
C580   C     0.10014   0.85173   0.48113   0.00000  Uiso   1.00
C581   C     0.16760   0.82821   0.48016   0.00000  Uiso   1.00
C582   C     0.15274   0.82756   0.02188   0.00000  Uiso   1.00
C583   C     0.11012   0.83595   0.04168   0.00000  Uiso   1.00
C584   C     0.08402   0.84686   0.02137   0.00000  Uiso   1.00
H585   H     0.05080   0.85100   0.03720   0.00000  Uiso   1.00
H586   H     0.32498   0.83685   0.15539   0.00000  Uiso   1.00
H587   H     0.33128   0.89272   0.17224   0.00000  Uiso   1.00
H588   H     0.04182   0.86836   0.13783   0.00000  Uiso   1.00
H589   H     0.04913   0.88144   0.20666   0.00000  Uiso   1.00
H590   H     0.04991   0.82813   0.18500   0.00000  Uiso   1.00
H591   H     0.02011   0.77278   0.31752   0.00000  Uiso   1.00
H592   H     0.01985   0.82597   0.34138   0.00000  Uiso   1.00
H593   H     0.30849   0.78738   0.35849   0.00000  Uiso   1.00
H594   H     0.29050   0.83505   0.31946   0.00000  Uiso   1.00
H595   H     0.29015   0.78119   0.29665   0.00000  Uiso   1.00
H596   H     0.26774   0.76086   0.02074   0.00000  Uiso   1.00
H597   H     0.17042   0.90148   0.07419   0.00000  Uiso   1.00
H598   H     0.19683   0.89462   0.11050   0.00000  Uiso   1.00
H599   H     0.13095   0.91163   0.16466   0.00000  Uiso   1.00
H600   H     0.15371   0.95360   0.13361   0.00000  Uiso   1.00
H601   H     0.10611   0.92064   0.12802   0.00000  Uiso   1.00
H602   H     0.04390   0.91695   0.38425   0.00000  Uiso   1.00
H603   H     0.04601   0.92130   0.43413   0.00000  Uiso   1.00
H604   H     0.30434   0.91557   0.43266   0.00000  Uiso   1.00
H605   H     0.31044   0.86792   0.39971   0.00000  Uiso   1.00
H606   H     0.31254   0.86859   0.44986   0.00000  Uiso   1.00
H607   H     0.20814   0.66957   0.21580   0.00000  Uiso   1.00
H608   H     0.20220   0.91865   0.36725   0.00000  Uiso   1.00
H609   H     0.19774   0.93819   0.41829   0.00000  Uiso   1.00
H610   H     0.24927   0.92821   0.38416   0.00000  Uiso   1.00
H611   H     0.22312   0.85103   0.37805   0.00000  Uiso   1.00
H612   H     0.22562   0.87364   0.42617   0.00000  Uiso   1.00
H613   H     0.12399   0.99889   0.28440   0.00000  Uiso   1.00
H614   H     0.25025   0.76918   0.09301   0.00000  Uiso   1.00
H615   H     0.25322   0.77250   0.46039   0.00000  Uiso   1.00
H616   H     0.03897   0.86272   0.47636   0.00000  Uiso   1.00
H617   H     0.09485   0.83054   0.07217   0.00000  Uiso   1.00
H618   H     0.21182   0.80084   0.42681   0.00000  Uiso   1.00
O619   O     0.16667   0.83333   0.25000   0.00000  Uiso   1.00
O620   O     0.15693   0.79060   0.16625   0.00000  Uiso   1.00
O621   O     0.12687   0.87313   0.33749   0.00000  Uiso   1.00
O622   O     0.21088   0.84159   0.15877   0.00000  Uiso   1.00
O623   O     0.17198   0.82802   0.33749   0.00000  Uiso   1.00
O624   O     0.14443   0.85035   0.10652   0.00000  Uiso   1.00
O625   O     0.05788   0.86277   0.39890   0.00000  Uiso   1.00
O626   O     0.17849   0.74768   0.27820   0.00000  Uiso   1.00
O627   O     0.14581   0.92803   0.26767   0.00000  Uiso   1.00
O628   O     0.07452   0.79917   0.23607   0.00000  Uiso   1.00
O629   O     0.26785   0.85845   0.21805   0.00000  Uiso   1.00
O630   O     0.06990   0.85627   0.27820   0.00000  Uiso   1.00
O631   O     0.25440   0.81944   0.26767   0.00000  Uiso   1.00
O632   O     0.13800   0.73570   0.23607   0.00000  Uiso   1.00
O633   O     0.20437   0.92193   0.21805   0.00000  Uiso   1.00
Zn634  Zn    0.19244   0.80756   0.28277   0.00000  Uiso   1.00
Zn635  Zn    0.13459   0.79044   0.22257   0.00000  Uiso   1.00
Zn636  Zn    0.21166   0.86331   0.21188   0.00000  Uiso   1.00
Zn637  Zn    0.12798   0.87202   0.28277   0.00000  Uiso   1.00
C638   C     0.38613   0.82679   0.25897   0.00000  Uiso   1.00
C639   C     0.53635   0.80646   0.45872   0.00000  Uiso   1.00
C640   C     0.55967   0.78917   0.47792   0.00000  Uiso   1.00
C641   C     0.61465   0.83951   0.24065   0.00000  Uiso   1.00
C642   C     0.54902   0.79386   0.01911   0.00000  Uiso   1.00
C643   C     0.51297   0.81480   0.04177   0.00000  Uiso   1.00
C644   C     0.57400   0.77748   0.03784   0.00000  Uiso   1.00
C645   C     0.56423   0.78226   0.07884   0.00000  Uiso   1.00
C646   C     0.50613   0.82292   0.08327   0.00000  Uiso   1.00
C647   C     0.66107   0.83898   0.23543   0.00000  Uiso   1.00
C648   C     0.34069   0.82488   0.26413   0.00000  Uiso   1.00
C649   C     0.42044   0.86241   0.41995   0.00000  Uiso   1.00
C650   C     0.51431   0.98891   0.23801   0.00000  Uiso   1.00
C651   C     0.48491   0.67881   0.26217   0.00000  Uiso   1.00
C652   C     0.48928   0.72287   0.25892   0.00000  Uiso   1.00
C653   C     0.51021   0.94439   0.24129   0.00000  Uiso   1.00
C654   C     0.52197   0.81185   0.14403   0.00000  Uiso   1.00
C655   C     0.47828   0.85418   0.35619   0.00000  Uiso   1.00
C656   C     0.46420   0.85888   0.39972   0.00000  Uiso   1.00
C657   C     0.53047   0.80479   0.10137   0.00000  Uiso   1.00
C658   C     0.40595   0.86046   0.46087   0.00000  Uiso   1.00
C659   C     0.36215   0.85339   0.19796   0.00000  Uiso   1.00
C660   C     0.49353   0.85679   0.42118   0.00000  Uiso   1.00
C661   C     0.34694   0.86339   0.16406   0.00000  Uiso   1.00
C662   C     0.64412   0.80997   0.30326   0.00000  Uiso   1.00
C663   C     0.66647   0.79837   0.33176   0.00000  Uiso   1.00
C664   C     0.49859   0.89163   0.10410   0.00000  Uiso   1.00
C665   C     0.47051   0.92120   0.13454   0.00000  Uiso   1.00
C666   C     0.36969   0.89929   0.41048   0.00000  Uiso   1.00
C667   C     0.65459   0.88700   0.42403   0.00000  Uiso   1.00
C668   C     0.54111   0.87227   0.40408   0.00000  Uiso   1.00
C669   C     0.54771   0.91702   0.39275   0.00000  Uiso   1.00
C670   C     0.47683   0.84598   0.46066   0.00000  Uiso   1.00
C671   C     0.43348   0.85173   0.48113   0.00000  Uiso   1.00
C672   C     0.50093   0.82821   0.48016   0.00000  Uiso   1.00
C673   C     0.48608   0.82756   0.02188   0.00000  Uiso   1.00
C674   C     0.44346   0.83595   0.04168   0.00000  Uiso   1.00
C675   C     0.41735   0.84686   0.02137   0.00000  Uiso   1.00
H676   H     0.38414   0.85100   0.03720   0.00000  Uiso   1.00
H677   H     0.65831   0.83685   0.15539   0.00000  Uiso   1.00
H678   H     0.66462   0.89272   0.17224   0.00000  Uiso   1.00
H679   H     0.37515   0.86836   0.13783   0.00000  Uiso   1.00
H680   H     0.38247   0.88144   0.20666   0.00000  Uiso   1.00
H681   H     0.38325   0.82813   0.18500   0.00000  Uiso   1.00
H682   H     0.35345   0.77278   0.31752   0.00000  Uiso   1.00
H683   H     0.35319   0.82597   0.34138   0.00000  Uiso   1.00
H684   H     0.64182   0.78738   0.35849   0.00000  Uiso   1.00
H685   H     0.62383   0.83505   0.31946   0.00000  Uiso   1.00
H686   H     0.62348   0.78119   0.29665   0.00000  Uiso   1.00
H687   H     0.60108   0.76086   0.02074   0.00000  Uiso   1.00
H688   H     0.50376   0.90148   0.07419   0.00000  Uiso   1.00
H689   H     0.53017   0.89462   0.11050   0.00000  Uiso   1.00
H690   H     0.46428   0.91163   0.16466   0.00000  Uiso   1.00
H691   H     0.48704   0.95360   0.13361   0.00000  Uiso   1.00
H692   H     0.43944   0.92064   0.12802   0.00000  Uiso   1.00
H693   H     0.37723   0.91695   0.38425   0.00000  Uiso   1.00
H694   H     0.37934   0.92130   0.43413   0.00000  Uiso   1.00
H695   H     0.63767   0.91557   0.43266   0.00000  Uiso   1.00
H696   H     0.64377   0.86792   0.39971   0.00000  Uiso   1.00
H697   H     0.64587   0.86859   0.44986   0.00000  Uiso   1.00
H698   H     0.54148   0.66957   0.21580   0.00000  Uiso   1.00
H699   H     0.53553   0.91865   0.36725   0.00000  Uiso   1.00
H700   H     0.53108   0.93819   0.41829   0.00000  Uiso   1.00
H701   H     0.58260   0.92821   0.38416   0.00000  Uiso   1.00
H702   H     0.55645   0.85103   0.37805   0.00000  Uiso   1.00
H703   H     0.55896   0.87364   0.42617   0.00000  Uiso   1.00
H704   H     0.45733   0.99889   0.28440   0.00000  Uiso   1.00
H705   H     0.58358   0.76918   0.09301   0.00000  Uiso   1.00
H706   H     0.58655   0.77250   0.46039   0.00000  Uiso   1.00
H707   H     0.37230   0.86272   0.47636   0.00000  Uiso   1.00
H708   H     0.42819   0.83054   0.07217   0.00000  Uiso   1.00
H709   H     0.54515   0.80084   0.42681   0.00000  Uiso   1.00
O710   O     0.50000   0.83333   0.25000   0.00000  Uiso   1.00
O711   O     0.49027   0.79060   0.16625   0.00000  Uiso   1.00
O712   O     0.46020   0.87313   0.33749   0.00000  Uiso   1.00
O713   O     0.54421   0.84159   0.15877   0.00000  Uiso   1.00
O714   O     0.50532   0.82802   0.33749   0.00000  Uiso   1.00
O715   O     0.47776   0.85035   0.10652   0.00000  Uiso   1.00
O716   O     0.39121   0.86277   0.39890   0.00000  Uiso   1.00
O717   O     0.51182   0.74768   0.27820   0.00000  Uiso   1.00
O718   O     0.47914   0.92803   0.26767   0.00000  Uiso   1.00
O719   O     0.40785   0.79917   0.23607   0.00000  Uiso   1.00
O720   O     0.60119   0.85845   0.21805   0.00000  Uiso   1.00
O721   O     0.40323   0.85627   0.27820   0.00000  Uiso   1.00
O722   O     0.58773   0.81944   0.26767   0.00000  Uiso   1.00
O723   O     0.47133   0.73570   0.23607   0.00000  Uiso   1.00
O724   O     0.53771   0.92193   0.21805   0.00000  Uiso   1.00
Zn725  Zn    0.52577   0.80756   0.28277   0.00000  Uiso   1.00
Zn726  Zn    0.46792   0.79044   0.22257   0.00000  Uiso   1.00
Zn727  Zn    0.54500   0.86331   0.21188   0.00000  Uiso   1.00
Zn728  Zn    0.46131   0.87202   0.28277   0.00000  Uiso   1.00
C729   C     0.71947   0.82679   0.25897   0.00000  Uiso   1.00
C730   C     0.86968   0.80646   0.45872   0.00000  Uiso   1.00
C731   C     0.89300   0.78917   0.47792   0.00000  Uiso   1.00
C732   C     0.94799   0.83951   0.24065   0.00000  Uiso   1.00
C733   C     0.88235   0.79386   0.01911   0.00000  Uiso   1.00
C734   C     0.84630   0.81480   0.04177   0.00000  Uiso   1.00
C735   C     0.90733   0.77748   0.03784   0.00000  Uiso   1.00
C736   C     0.89756   0.78226   0.07884   0.00000  Uiso   1.00
C737   C     0.83946   0.82292   0.08327   0.00000  Uiso   1.00
C738   C     0.99440   0.83898   0.23543   0.00000  Uiso   1.00
C739   C     0.67402   0.82488   0.26413   0.00000  Uiso   1.00
C740   C     0.75378   0.86241   0.41995   0.00000  Uiso   1.00
C741   C     0.84764   0.98891   0.23801   0.00000  Uiso   1.00
C742   C     0.81825   0.67881   0.26217   0.00000  Uiso   1.00
C743   C     0.82261   0.72287   0.25892   0.00000  Uiso   1.00
C744   C     0.84354   0.94439   0.24129   0.00000  Uiso   1.00
C745   C     0.85530   0.81185   0.14403   0.00000  Uiso   1.00
C746   C     0.81162   0.85418   0.35619   0.00000  Uiso   1.00
C747   C     0.79754   0.85888   0.39972   0.00000  Uiso   1.00
C748   C     0.86380   0.80479   0.10137   0.00000  Uiso   1.00
C749   C     0.73928   0.86046   0.46087   0.00000  Uiso   1.00
C750   C     0.69549   0.85339   0.19796   0.00000  Uiso   1.00
C751   C     0.82686   0.85679   0.42118   0.00000  Uiso   1.00
C752   C     0.68027   0.86339   0.16406   0.00000  Uiso   1.00
C753   C     0.97745   0.80997   0.30326   0.00000  Uiso   1.00
C754   C     0.99980   0.79837   0.33176   0.00000  Uiso   1.00
C755   C     0.83192   0.89163   0.10410   0.00000  Uiso   1.00
C756   C     0.80385   0.92120   0.13454   0.00000  Uiso   1.00
C757   C     0.70302   0.89929   0.41048   0.00000  Uiso   1.00
C758   C     0.98792   0.88700   0.42403   0.00000  Uiso   1.00
C759   C     0.87444   0.87227   0.40408   0.00000  Uiso   1.00
C760   C     0.88105   0.91702   0.39275   0.00000  Uiso   1.00
C761   C     0.81016   0.84598   0.46066   0.00000  Uiso   1.00
C762   C     0.76681   0.85173   0.48113   0.00000  Uiso   1.00
C763   C     0.83427   0.82821   0.48016   0.00000  Uiso   1.00
C764   C     0.81941   0.82756   0.02188   0.00000  Uiso   1.00
C765   C     0.77679   0.83595   0.04168   0.00000  Uiso   1.00
C766   C     0.75068   0.84686   0.02137   0.00000  Uiso   1.00
H767   H     0.71747   0.85100   0.03720   0.00000  Uiso   1.00
H768   H     0.99165   0.83685   0.15539   0.00000  Uiso   1.00
H769   H     0.99795   0.89272   0.17224   0.00000  Uiso   1.00
H770   H     0.70848   0.86836   0.13783   0.00000  Uiso   1.00
H771   H     0.71580   0.88144   0.20666   0.00000  Uiso   1.00
H772   H     0.71658   0.82813   0.18500   0.00000  Uiso   1.00
H773   H     0.68678   0.77278   0.31752   0.00000  Uiso   1.00
H774   H     0.68652   0.82597   0.34138   0.00000  Uiso   1.00
H775   H     0.97515   0.78738   0.35849   0.00000  Uiso   1.00
H776   H     0.95717   0.83505   0.31946   0.00000  Uiso   1.00
H777   H     0.95682   0.78119   0.29665   0.00000  Uiso   1.00
H778   H     0.93441   0.76086   0.02074   0.00000  Uiso   1.00
H779   H     0.83709   0.90148   0.07419   0.00000  Uiso   1.00
H780   H     0.86350   0.89462   0.11050   0.00000  Uiso   1.00
H781   H     0.79762   0.91163   0.16466   0.00000  Uiso   1.00
H782   H     0.82038   0.95360   0.13361   0.00000  Uiso   1.00
H783   H     0.77277   0.92064   0.12802   0.00000  Uiso   1.00
H784   H     0.71056   0.91695   0.38425   0.00000  Uiso   1.00
H785   H     0.71268   0.92130   0.43413   0.00000  Uiso   1.00
H786   H     0.97100   0.91557   0.43266   0.00000  Uiso   1.00
H787   H     0.97711   0.86792   0.39971   0.00000  Uiso   1.00
H788   H     0.97921   0.86859   0.44986   0.00000  Uiso   1.00
H789   H     0.87481   0.66957   0.21580   0.00000  Uiso   1.00
H790   H     0.86887   0.91865   0.36725   0.00000  Uiso   1.00
H791   H     0.86441   0.93819   0.41829   0.00000  Uiso   1.00
H792   H     0.91594   0.92821   0.38416   0.00000  Uiso   1.00
H793   H     0.88979   0.85103   0.37805   0.00000  Uiso   1.00
H794   H     0.89229   0.87364   0.42617   0.00000  Uiso   1.00
H795   H     0.79066   0.99889   0.28440   0.00000  Uiso   1.00
H796   H     0.91691   0.76918   0.09301   0.00000  Uiso   1.00
H797   H     0.91989   0.77250   0.46039   0.00000  Uiso   1.00
H798   H     0.70564   0.86272   0.47636   0.00000  Uiso   1.00
H799   H     0.76152   0.83054   0.07217   0.00000  Uiso   1.00
H800   H     0.87848   0.80084   0.42681   0.00000  Uiso   1.00
O801   O     0.83333   0.83333   0.25000   0.00000  Uiso   1.00
O802   O     0.82360   0.79060   0.16625   0.00000  Uiso   1.00
O803   O     0.79354   0.87313   0.33749   0.00000  Uiso   1.00
O804   O     0.87755   0.84159   0.15877   0.00000  Uiso   1.00
O805   O     0.83865   0.82802   0.33749   0.00000  Uiso   1.00
O806   O     0.81110   0.85035   0.10652   0.00000  Uiso   1.00
O807   O     0.72455   0.86277   0.39890   0.00000  Uiso   1.00
O808   O     0.84515   0.74768   0.27820   0.00000  Uiso   1.00
O809   O     0.81247   0.92803   0.26767   0.00000  Uiso   1.00
O810   O     0.74119   0.79917   0.23607   0.00000  Uiso   1.00
O811   O     0.93452   0.85845   0.21805   0.00000  Uiso   1.00
O812   O     0.73656   0.85627   0.27820   0.00000  Uiso   1.00
O813   O     0.92106   0.81944   0.26767   0.00000  Uiso   1.00
O814   O     0.80467   0.73570   0.23607   0.00000  Uiso   1.00
O815   O     0.87104   0.92193   0.21805   0.00000  Uiso   1.00
Zn816  Zn    0.85910   0.80756   0.28277   0.00000  Uiso   1.00
Zn817  Zn    0.80125   0.79044   0.22257   0.00000  Uiso   1.00
Zn818  Zn    0.87833   0.86331   0.21188   0.00000  Uiso   1.00
Zn819  Zn    0.79465   0.87202   0.28277   0.00000  Uiso   1.00
C820   C     0.05280   0.16012   0.75897   0.00000  Uiso   1.00
C821   C     0.20302   0.13980   0.95872   0.00000  Uiso   1.00
C822   C     0.22634   0.12250   0.97792   0.00000  Uiso   1.00
C823   C     0.28132   0.17284   0.74065   0.00000  Uiso   1.00
C824   C     0.21569   0.12719   0.51911   0.00000  Uiso   1.00
C825   C     0.17963   0.14814   0.54177   0.00000  Uiso   1.00
C826   C     0.24067   0.11081   0.53784   0.00000  Uiso   1.00
C827   C     0.23090   0.11559   0.57884   0.00000  Uiso   1.00
C828   C     0.17280   0.15626   0.58327   0.00000  Uiso   1.00
C829   C     0.32773   0.17231   0.73543   0.00000  Uiso   1.00
C830   C     0.00735   0.15821   0.76413   0.00000  Uiso   1.00
C831   C     0.08711   0.19575   0.91995   0.00000  Uiso   1.00
C832   C     0.18098   0.32225   0.73801   0.00000  Uiso   1.00
C833   C     0.15158   0.01214   0.76217   0.00000  Uiso   1.00
C834   C     0.15594   0.05620   0.75892   0.00000  Uiso   1.00
C835   C     0.17688   0.27773   0.74129   0.00000  Uiso   1.00
C836   C     0.18864   0.14518   0.64403   0.00000  Uiso   1.00
C837   C     0.14495   0.18751   0.85619   0.00000  Uiso   1.00
C838   C     0.13087   0.19221   0.89972   0.00000  Uiso   1.00
C839   C     0.19713   0.13813   0.60137   0.00000  Uiso   1.00
C840   C     0.07262   0.19379   0.96087   0.00000  Uiso   1.00
C841   C     0.02882   0.18673   0.69796   0.00000  Uiso   1.00
C842   C     0.16020   0.19013   0.92118   0.00000  Uiso   1.00
C843   C     0.01360   0.19673   0.66406   0.00000  Uiso   1.00
C844   C     0.31078   0.14330   0.80326   0.00000  Uiso   1.00
C845   C     0.33313   0.13171   0.83176   0.00000  Uiso   1.00
C846   C     0.16525   0.22496   0.60410   0.00000  Uiso   1.00
C847   C     0.13718   0.25453   0.63454   0.00000  Uiso   1.00
C848   C     0.03636   0.23262   0.91048   0.00000  Uiso   1.00
C849   C     0.32126   0.22033   0.92403   0.00000  Uiso   1.00
C850   C     0.20777   0.20561   0.90408   0.00000  Uiso   1.00
C851   C     0.21438   0.25035   0.89275   0.00000  Uiso   1.00
C852   C     0.14350   0.17932   0.96066   0.00000  Uiso   1.00
C853   C     0.10014   0.18507   0.98113   0.00000  Uiso   1.00
C854   C     0.16760   0.16155   0.98016   0.00000  Uiso   1.00
C855   C     0.15274   0.16089   0.52188   0.00000  Uiso   1.00
C856   C     0.11012   0.16928   0.54168   0.00000  Uiso   1.00
C857   C     0.08402   0.18019   0.52137   0.00000  Uiso   1.00
H858   H     0.05080   0.18434   0.53720   0.00000  Uiso   1.00
H859   H     0.32498   0.17018   0.65539   0.00000  Uiso   1.00
H860   H     0.33128   0.22605   0.67224   0.00000  Uiso   1.00
H861   H     0.04182   0.20169   0.63783   0.00000  Uiso   1.00
H862   H     0.04913   0.21477   0.70666   0.00000  Uiso   1.00
H863   H     0.04991   0.16146   0.68500   0.00000  Uiso   1.00
H864   H     0.02011   0.10611   0.81752   0.00000  Uiso   1.00
H865   H     0.01985   0.15931   0.84138   0.00000  Uiso   1.00
H866   H     0.30849   0.12072   0.85849   0.00000  Uiso   1.00
H867   H     0.29050   0.16838   0.81946   0.00000  Uiso   1.00
H868   H     0.29015   0.11453   0.79665   0.00000  Uiso   1.00
H869   H     0.26774   0.09419   0.52074   0.00000  Uiso   1.00
H870   H     0.17042   0.23481   0.57419   0.00000  Uiso   1.00
H871   H     0.19683   0.22795   0.61050   0.00000  Uiso   1.00
H872   H     0.13095   0.24496   0.66466   0.00000  Uiso   1.00
H873   H     0.15371   0.28694   0.63361   0.00000  Uiso   1.00
H874   H     0.10611   0.25398   0.62802   0.00000  Uiso   1.00
H875   H     0.04390   0.25028   0.88425   0.00000  Uiso   1.00
H876   H     0.04601   0.25464   0.93413   0.00000  Uiso   1.00
H877   H     0.30434   0.24891   0.93266   0.00000  Uiso   1.00
H878   H     0.31044   0.20125   0.89971   0.00000  Uiso   1.00
H879   H     0.31254   0.20192   0.94986   0.00000  Uiso   1.00
H880   H     0.20814   0.00290   0.71580   0.00000  Uiso   1.00
H881   H     0.20220   0.25198   0.86725   0.00000  Uiso   1.00
H882   H     0.19774   0.27153   0.91829   0.00000  Uiso   1.00
H883   H     0.24927   0.26155   0.88416   0.00000  Uiso   1.00
H884   H     0.22312   0.18437   0.87805   0.00000  Uiso   1.00
H885   H     0.22562   0.20698   0.92617   0.00000  Uiso   1.00
H886   H     0.12399   0.33222   0.78440   0.00000  Uiso   1.00
H887   H     0.25025   0.10251   0.59301   0.00000  Uiso   1.00
H888   H     0.25322   0.10583   0.96039   0.00000  Uiso   1.00
H889   H     0.03897   0.19605   0.97636   0.00000  Uiso   1.00
H890   H     0.09485   0.16387   0.57217   0.00000  Uiso   1.00
H891   H     0.21182   0.13418   0.92681   0.00000  Uiso   1.00
O892   O     0.16667   0.16667   0.75000   0.00000  Uiso   1.00
O893   O     0.15693   0.12393   0.66625   0.00000  Uiso   1.00
O894   O     0.12687   0.20646   0.83749   0.00000  Uiso   1.00
O895   O     0.21088   0.17493   0.65877   0.00000  Uiso   1.00
O896   O     0.17198   0.16135   0.83749   0.00000  Uiso   1.00
O897   O     0.14443   0.18368   0.60652   0.00000  Uiso   1.00
O898   O     0.05788   0.19610   0.89890   0.00000  Uiso   1.00
O899   O     0.17849   0.08101   0.77820   0.00000  Uiso   1.00
O900   O     0.14581   0.26136   0.76767   0.00000  Uiso   1.00
O901   O     0.07452   0.13251   0.73607   0.00000  Uiso   1.00
O902   O     0.26785   0.19179   0.71805   0.00000  Uiso   1.00
O903   O     0.06990   0.18960   0.77820   0.00000  Uiso   1.00
O904   O     0.25440   0.15277   0.76767   0.00000  Uiso   1.00
O905   O     0.13800   0.06903   0.73607   0.00000  Uiso   1.00
O906   O     0.20437   0.25527   0.71805   0.00000  Uiso   1.00
Zn907  Zn    0.19244   0.14090   0.78277   0.00000  Uiso   1.00
Zn908  Zn    0.13459   0.12378   0.72257   0.00000  Uiso   1.00
Zn909  Zn    0.21166   0.19664   0.71188   0.00000  Uiso   1.00
Zn910  Zn    0.12798   0.20535   0.78277   0.00000  Uiso   1.00
C911   C     0.38613   0.16012   0.75897   0.00000  Uiso   1.00
C912   C     0.53635   0.13980   0.95872   0.00000  Uiso   1.00
C913   C     0.55967   0.12250   0.97792   0.00000  Uiso   1.00
C914   C     0.61465   0.17284   0.74065   0.00000  Uiso   1.00
C915   C     0.54902   0.12719   0.51911   0.00000  Uiso   1.00
C916   C     0.51297   0.14814   0.54177   0.00000  Uiso   1.00
C917   C     0.57400   0.11081   0.53784   0.00000  Uiso   1.00
C918   C     0.56423   0.11559   0.57884   0.00000  Uiso   1.00
C919   C     0.50613   0.15626   0.58327   0.00000  Uiso   1.00
C920   C     0.66107   0.17231   0.73543   0.00000  Uiso   1.00
C921   C     0.34069   0.15821   0.76413   0.00000  Uiso   1.00
C922   C     0.42044   0.19575   0.91995   0.00000  Uiso   1.00
C923   C     0.51431   0.32225   0.73801   0.00000  Uiso   1.00
C924   C     0.48491   0.01214   0.76217   0.00000  Uiso   1.00
C925   C     0.48928   0.05620   0.75892   0.00000  Uiso   1.00
C926   C     0.51021   0.27773   0.74129   0.00000  Uiso   1.00
C927   C     0.52197   0.14518   0.64403   0.00000  Uiso   1.00
C928   C     0.47828   0.18751   0.85619   0.00000  Uiso   1.00
C929   C     0.46420   0.19221   0.89972   0.00000  Uiso   1.00
C930   C     0.53047   0.13813   0.60137   0.00000  Uiso   1.00
C931   C     0.40595   0.19379   0.96087   0.00000  Uiso   1.00
C932   C     0.36215   0.18673   0.69796   0.00000  Uiso   1.00
C933   C     0.49353   0.19013   0.92118   0.00000  Uiso   1.00
C934   C     0.34694   0.19673   0.66406   0.00000  Uiso   1.00
C935   C     0.64412   0.14330   0.80326   0.00000  Uiso   1.00
C936   C     0.66647   0.13171   0.83176   0.00000  Uiso   1.00
C937   C     0.49859   0.22496   0.60410   0.00000  Uiso   1.00
C938   C     0.47051   0.25453   0.63454   0.00000  Uiso   1.00
C939   C     0.36969   0.23262   0.91048   0.00000  Uiso   1.00
C940   C     0.65459   0.22033   0.92403   0.00000  Uiso   1.00
C941   C     0.54111   0.20561   0.90408   0.00000  Uiso   1.00
C942   C     0.54771   0.25035   0.89275   0.00000  Uiso   1.00
C943   C     0.47683   0.17932   0.96066   0.00000  Uiso   1.00
C944   C     0.43348   0.18507   0.98113   0.00000  Uiso   1.00
C945   C     0.50093   0.16155   0.98016   0.00000  Uiso   1.00
C946   C     0.48608   0.16089   0.52188   0.00000  Uiso   1.00
C947   C     0.44346   0.16928   0.54168   0.00000  Uiso   1.00
C948   C     0.41735   0.18019   0.52137   0.00000  Uiso   1.00
H949   H     0.38414   0.18434   0.53720   0.00000  Uiso   1.00
H950   H     0.65831   0.17018   0.65539   0.00000  Uiso   1.00
H951   H     0.66462   0.22605   0.67224   0.00000  Uiso   1.00
H952   H     0.37515   0.20169   0.63783   0.00000  Uiso   1.00
H953   H     0.38247   0.21477   0.70666   0.00000  Uiso   1.00
H954   H     0.38325   0.16146   0.68500   0.00000  Uiso   1.00
H955   H     0.35345   0.10611   0.81752   0.00000  Uiso   1.00
H956   H     0.35319   0.15931   0.84138   0.00000  Uiso   1.00
H957   H     0.64182   0.12072   0.85849   0.00000  Uiso   1.00
H958   H     0.62383   0.16838   0.81946   0.00000  Uiso   1.00
H959   H     0.62348   0.11453   0.79665   0.00000  Uiso   1.00
H960   H     0.60108   0.09419   0.52074   0.00000  Uiso   1.00
H961   H     0.50376   0.23481   0.57419   0.00000  Uiso   1.00
H962   H     0.53017   0.22795   0.61050   0.00000  Uiso   1.00
H963   H     0.46428   0.24496   0.66466   0.00000  Uiso   1.00
H964   H     0.48704   0.28694   0.63361   0.00000  Uiso   1.00
H965   H     0.43944   0.25398   0.62802   0.00000  Uiso   1.00
H966   H     0.37723   0.25028   0.88425   0.00000  Uiso   1.00
H967   H     0.37934   0.25464   0.93413   0.00000  Uiso   1.00
H968   H     0.63767   0.24891   0.93266   0.00000  Uiso   1.00
H969   H     0.64377   0.20125   0.89971   0.00000  Uiso   1.00
H970   H     0.64587   0.20192   0.94986   0.00000  Uiso   1.00
H971   H     0.54148   0.00290   0.71580   0.00000  Uiso   1.00
H972   H     0.53553   0.25198   0.86725   0.00000  Uiso   1.00
H973   H     0.53108   0.27153   0.91829   0.00000  Uiso   1.00
H974   H     0.58260   0.26155   0.88416   0.00000  Uiso   1.00
H975   H     0.55645   0.18437   0.87805   0.00000  Uiso   1.00
H976   H     0.55896   0.20698   0.92617   0.00000  Uiso   1.00
H977   H     0.45733   0.33222   0.78440   0.00000  Uiso   1.00
H978   H     0.58358   0.10251   0.59301   0.00000  Uiso   1.00
H979   H     0.58655   0.10583   0.96039   0.00000  Uiso   1.00
H980   H     0.37230   0.19605   0.97636   0.00000  Uiso   1.00
H981   H     0.42819   0.16387   0.57217   0.00000  Uiso   1.00
H982   H     0.54515   0.13418   0.92681   0.00000  Uiso   1.00
O983   O     0.50000   0.16667   0.75000   0.00000  Uiso   1.00
O984   O     0.49027   0.12393   0.66625   0.00000  Uiso   1.00
O985   O     0.46020   0.20646   0.83749   0.00000  Uiso   1.00
O986   O     0.54421   0.17493   0.65877   0.00000  Uiso   1.00
O987   O     0.50532   0.16135   0.83749   0.00000  Uiso   1.00
O988   O     0.47776   0.18368   0.60652   0.00000  Uiso   1.00
O989   O     0.39121   0.19610   0.89890   0.00000  Uiso   1.00
O990   O     0.51182   0.08101   0.77820   0.00000  Uiso   1.00
O991   O     0.47914   0.26136   0.76767   0.00000  Uiso   1.00
O992   O     0.40785   0.13251   0.73607   0.00000  Uiso   1.00
O993   O     0.60119   0.19179   0.71805   0.00000  Uiso   1.00
O994   O     0.40323   0.18960   0.77820   0.00000  Uiso   1.00
O995   O     0.58773   0.15277   0.76767   0.00000  Uiso   1.00
O996   O     0.47133   0.06903   0.73607   0.00000  Uiso   1.00
O997   O     0.53771   0.25527   0.71805   0.00000  Uiso   1.00
Zn998  Zn    0.52577   0.14090   0.78277   0.00000  Uiso   1.00
Zn999  Zn    0.46792   0.12378   0.72257   0.00000  Uiso   1.00
Zn1000 Zn    0.54500   0.19664   0.71188   0.00000  Uiso   1.00
Zn1001 Zn    0.46131   0.20535   0.78277   0.00000  Uiso   1.00
C1002  C     0.71947   0.16012   0.75897   0.00000  Uiso   1.00
C1003  C     0.86968   0.13980   0.95872   0.00000  Uiso   1.00
C1004  C     0.89300   0.12250   0.97792   0.00000  Uiso   1.00
C1005  C     0.94799   0.17284   0.74065   0.00000  Uiso   1.00
C1006  C     0.88235   0.12719   0.51911   0.00000  Uiso   1.00
C1007  C     0.84630   0.14814   0.54177   0.00000  Uiso   1.00
C1008  C     0.90733   0.11081   0.53784   0.00000  Uiso   1.00
C1009  C     0.89756   0.11559   0.57884   0.00000  Uiso   1.00
C1010  C     0.83946   0.15626   0.58327   0.00000  Uiso   1.00
C1011  C     0.99440   0.17231   0.73543   0.00000  Uiso   1.00
C1012  C     0.67402   0.15821   0.76413   0.00000  Uiso   1.00
C1013  C     0.75378   0.19575   0.91995   0.00000  Uiso   1.00
C1014  C     0.84764   0.32225   0.73801   0.00000  Uiso   1.00
C1015  C     0.81825   0.01214   0.76217   0.00000  Uiso   1.00
C1016  C     0.82261   0.05620   0.75892   0.00000  Uiso   1.00
C1017  C     0.84354   0.27773   0.74129   0.00000  Uiso   1.00
C1018  C     0.85530   0.14518   0.64403   0.00000  Uiso   1.00
C1019  C     0.81162   0.18751   0.85619   0.00000  Uiso   1.00
C1020  C     0.79754   0.19221   0.89972   0.00000  Uiso   1.00
C1021  C     0.86380   0.13813   0.60137   0.00000  Uiso   1.00
C1022  C     0.73928   0.19379   0.96087   0.00000  Uiso   1.00
C1023  C     0.69549   0.18673   0.69796   0.00000  Uiso   1.00
C1024  C     0.82686   0.19013   0.92118   0.00000  Uiso   1.00
C1025  C     0.68027   0.19673   0.66406   0.00000  Uiso   1.00
C1026  C     0.97745   0.14330   0.80326   0.00000  Uiso   1.00
C1027  C     0.99980   0.13171   0.83176   0.00000  Uiso   1.00
C1028  C     0.83192   0.22496   0.60410   0.00000  Uiso   1.00
C1029  C     0.80385   0.25453   0.63454   0.00000  Uiso   1.00
C1030  C     0.70302   0.23262   0.91048   0.00000  Uiso   1.00
C1031  C     0.98792   0.22033   0.92403   0.00000  Uiso   1.00
C1032  C     0.87444   0.20561   0.90408   0.00000  Uiso   1.00
C1033  C     0.88105   0.25035   0.89275   0.00000  Uiso   1.00
C1034  C     0.81016   0.17932   0.96066   0.00000  Uiso   1.00
C1035  C     0.76681   0.18507   0.98113   0.00000  Uiso   1.00
C1036  C     0.83427   0.16155   0.98016   0.00000  Uiso   1.00
C1037  C     0.81941   0.16089   0.52188   0.00000  Uiso   1.00
C1038  C     0.77679   0.16928   0.54168   0.00000  Uiso   1.00
C1039  C     0.75068   0.18019   0.52137   0.00000  Uiso   1.00
H1040  H     0.71747   0.18434   0.53720   0.00000  Uiso   1.00
H1041  H     0.99165   0.17018   0.65539   0.00000  Uiso   1.00
H1042  H     0.99795   0.22605   0.67224   0.00000  Uiso   1.00
H1043  H     0.70848   0.20169   0.63783   0.00000  Uiso   1.00
H1044  H     0.71580   0.21477   0.70666   0.00000  Uiso   1.00
H1045  H     0.71658   0.16146   0.68500   0.00000  Uiso   1.00
H1046  H     0.68678   0.10611   0.81752   0.00000  Uiso   1.00
H1047  H     0.68652   0.15931   0.84138   0.00000  Uiso   1.00
H1048  H     0.97515   0.12072   0.85849   0.00000  Uiso   1.00
H1049  H     0.95717   0.16838   0.81946   0.00000  Uiso   1.00
H1050  H     0.95682   0.11453   0.79665   0.00000  Uiso   1.00
H1051  H     0.93441   0.09419   0.52074   0.00000  Uiso   1.00
H1052  H     0.83709   0.23481   0.57419   0.00000  Uiso   1.00
H1053  H     0.86350   0.22795   0.61050   0.00000  Uiso   1.00
H1054  H     0.79762   0.24496   0.66466   0.00000  Uiso   1.00
H1055  H     0.82038   0.28694   0.63361   0.00000  Uiso   1.00
H1056  H     0.77277   0.25398   0.62802   0.00000  Uiso   1.00
H1057  H     0.71056   0.25028   0.88425   0.00000  Uiso   1.00
H1058  H     0.71268   0.25464   0.93413   0.00000  Uiso   1.00
H1059  H     0.97100   0.24891   0.93266   0.00000  Uiso   1.00
H1060  H     0.97711   0.20125   0.89971   0.00000  Uiso   1.00
H1061  H     0.97921   0.20192   0.94986   0.00000  Uiso   1.00
H1062  H     0.87481   0.00290   0.71580   0.00000  Uiso   1.00
H1063  H     0.86887   0.25198   0.86725   0.00000  Uiso   1.00
H1064  H     0.86441   0.27153   0.91829   0.00000  Uiso   1.00
H1065  H     0.91594   0.26155   0.88416   0.00000  Uiso   1.00
H1066  H     0.88979   0.18437   0.87805   0.00000  Uiso   1.00
H1067  H     0.89229   0.20698   0.92617   0.00000  Uiso   1.00
H1068  H     0.79066   0.33222   0.78440   0.00000  Uiso   1.00
H1069  H     0.91691   0.10251   0.59301   0.00000  Uiso   1.00
H1070  H     0.91989   0.10583   0.96039   0.00000  Uiso   1.00
H1071  H     0.70564   0.19605   0.97636   0.00000  Uiso   1.00
H1072  H     0.76152   0.16387   0.57217   0.00000  Uiso   1.00
H1073  H     0.87848   0.13418   0.92681   0.00000  Uiso   1.00
O1074  O     0.83333   0.16667   0.75000   0.00000  Uiso   1.00
O1075  O     0.82360   0.12393   0.66625   0.00000  Uiso   1.00
O1076  O     0.79354   0.20646   0.83749   0.00000  Uiso   1.00
O1077  O     0.87755   0.17493   0.65877   0.00000  Uiso   1.00
O1078  O     0.83865   0.16135   0.83749   0.00000  Uiso   1.00
O1079  O     0.81110   0.18368   0.60652   0.00000  Uiso   1.00
O1080  O     0.72455   0.19610   0.89890   0.00000  Uiso   1.00
O1081  O     0.84515   0.08101   0.77820   0.00000  Uiso   1.00
O1082  O     0.81247   0.26136   0.76767   0.00000  Uiso   1.00
O1083  O     0.74119   0.13251   0.73607   0.00000  Uiso   1.00
O1084  O     0.93452   0.19179   0.71805   0.00000  Uiso   1.00
O1085  O     0.73656   0.18960   0.77820   0.00000  Uiso   1.00
O1086  O     0.92106   0.15277   0.76767   0.00000  Uiso   1.00
O1087  O     0.80467   0.06903   0.73607   0.00000  Uiso   1.00
O1088  O     0.87104   0.25527   0.71805   0.00000  Uiso   1.00
Zn1089 Zn    0.85910   0.14090   0.78277   0.00000  Uiso   1.00
Zn1090 Zn    0.80125   0.12378   0.72257   0.00000  Uiso   1.00
Zn1091 Zn    0.87833   0.19664   0.71188   0.00000  Uiso   1.00
Zn1092 Zn    0.79465   0.20535   0.78277   0.00000  Uiso   1.00
C1093  C     0.05280   0.49345   0.75897   0.00000  Uiso   1.00
C1094  C     0.20302   0.47313   0.95872   0.00000  Uiso   1.00
C1095  C     0.22634   0.45584   0.97792   0.00000  Uiso   1.00
C1096  C     0.28132   0.50618   0.74065   0.00000  Uiso   1.00
C1097  C     0.21569   0.46053   0.51911   0.00000  Uiso   1.00
C1098  C     0.17963   0.48147   0.54177   0.00000  Uiso   1.00
C1099  C     0.24067   0.44414   0.53784   0.00000  Uiso   1.00
C1100  C     0.23090   0.44892   0.57884   0.00000  Uiso   1.00
C1101  C     0.17280   0.48959   0.58327   0.00000  Uiso   1.00
C1102  C     0.32773   0.50565   0.73543   0.00000  Uiso   1.00
C1103  C     0.00735   0.49155   0.76413   0.00000  Uiso   1.00
C1104  C     0.08711   0.52908   0.91995   0.00000  Uiso   1.00
C1105  C     0.18098   0.65558   0.73801   0.00000  Uiso   1.00
C1106  C     0.15158   0.34547   0.76217   0.00000  Uiso   1.00
C1107  C     0.15594   0.38954   0.75892   0.00000  Uiso   1.00
C1108  C     0.17688   0.61106   0.74129   0.00000  Uiso   1.00
C1109  C     0.18864   0.47851   0.64403   0.00000  Uiso   1.00
C1110  C     0.14495   0.52084   0.85619   0.00000  Uiso   1.00
C1111  C     0.13087   0.52555   0.89972   0.00000  Uiso   1.00
C1112  C     0.19713   0.47146   0.60137   0.00000  Uiso   1.00
C1113  C     0.07262   0.52712   0.96087   0.00000  Uiso   1.00
C1114  C     0.02882   0.52006   0.69796   0.00000  Uiso   1.00
C1115  C     0.16020   0.52346   0.92118   0.00000  Uiso   1.00
C1116  C     0.01360   0.53006   0.66406   0.00000  Uiso   1.00
C1117  C     0.31078   0.47663   0.80326   0.00000  Uiso   1.00
C1118  C     0.33313   0.46504   0.83176   0.00000  Uiso   1.00
C1119  C     0.16525   0.55829   0.60410   0.00000  Uiso   1.00
C1120  C     0.13718   0.58786   0.63454   0.00000  Uiso   1.00
C1121  C     0.03636   0.56595   0.91048   0.00000  Uiso   1.00
C1122  C     0.32126   0.55367   0.92403   0.00000  Uiso   1.00
C1123  C     0.20777   0.53894   0.90408   0.00000  Uiso   1.00
C1124  C     0.21438   0.58369   0.89275   0.00000  Uiso   1.00
C1125  C     0.14350   0.51265   0.96066   0.00000  Uiso   1.00
C1126  C     0.10014   0.51840   0.98113   0.00000  Uiso   1.00
C1127  C     0.16760   0.49488   0.98016   0.00000  Uiso   1.00
C1128  C     0.15274   0.49423   0.52188   0.00000  Uiso   1.00
C1129  C     0.11012   0.50261   0.54168   0.00000  Uiso   1.00
C1130  C     0.08402   0.51352   0.52137   0.00000  Uiso   1.00
H1131  H     0.05080   0.51767   0.53720   0.00000  Uiso   1.00
H1132  H     0.32498   0.50352   0.65539   0.00000  Uiso   1.00
H1133  H     0.33128   0.55939   0.67224   0.00000  Uiso   1.00
H1134  H     0.04182   0.53503   0.63783   0.00000  Uiso   1.00
H1135  H     0.04913   0.54811   0.70666   0.00000  Uiso   1.00
H1136  H     0.04991   0.49479   0.68500   0.00000  Uiso   1.00
H1137  H     0.02011   0.43944   0.81752   0.00000  Uiso   1.00
H1138  H     0.01985   0.49264   0.84138   0.00000  Uiso   1.00
H1139  H     0.30849   0.45405   0.85849   0.00000  Uiso   1.00
H1140  H     0.29050   0.50171   0.81946   0.00000  Uiso   1.00
H1141  H     0.29015   0.44786   0.79665   0.00000  Uiso   1.00
H1142  H     0.26774   0.42753   0.52074   0.00000  Uiso   1.00
H1143  H     0.17042   0.56815   0.57419   0.00000  Uiso   1.00
H1144  H     0.19683   0.56128   0.61050   0.00000  Uiso   1.00
H1145  H     0.13095   0.57829   0.66466   0.00000  Uiso   1.00
H1146  H     0.15371   0.62027   0.63361   0.00000  Uiso   1.00
H1147  H     0.10611   0.58731   0.62802   0.00000  Uiso   1.00
H1148  H     0.04390   0.58361   0.88425   0.00000  Uiso   1.00
H1149  H     0.04601   0.58797   0.93413   0.00000  Uiso   1.00
H1150  H     0.30434   0.58224   0.93266   0.00000  Uiso   1.00
H1151  H     0.31044   0.53459   0.89971   0.00000  Uiso   1.00
H1152  H     0.31254   0.53525   0.94986   0.00000  Uiso   1.00
H1153  H     0.20814   0.33624   0.71580   0.00000  Uiso   1.00
H1154  H     0.20220   0.58532   0.86725   0.00000  Uiso   1.00
H1155  H     0.19774   0.60486   0.91829   0.00000  Uiso   1.00
H1156  H     0.24927   0.59488   0.88416   0.00000  Uiso   1.00
H1157  H     0.22312   0.51770   0.87805   0.00000  Uiso   1.00
H1158  H     0.22562   0.54031   0.92617   0.00000  Uiso   1.00
H1159  H     0.12399   0.66556   0.78440   0.00000  Uiso   1.00
H1160  H     0.25025   0.43585   0.59301   0.00000  Uiso   1.00
H1161  H     0.25322   0.43917   0.96039   0.00000  Uiso   1.00
H1162  H     0.03897   0.52938   0.97636   0.00000  Uiso   1.00
H1163  H     0.09485   0.49720   0.57217   0.00000  Uiso   1.00
H1164  H     0.21182   0.46751   0.92681   0.00000  Uiso   1.00
O1165  O     0.16667   0.50000   0.75000   0.00000  Uiso   1.00
O1166  O     0.15693   0.45726   0.66625   0.00000  Uiso   1.00
O1167  O     0.12687   0.53979   0.83749   0.00000  Uiso   1.00
O1168  O     0.21088   0.50826   0.65877   0.00000  Uiso   1.00
O1169  O     0.17198   0.49468   0.83749   0.00000  Uiso   1.00
O1170  O     0.14443   0.51702   0.60652   0.00000  Uiso   1.00
O1171  O     0.05788   0.52944   0.89890   0.00000  Uiso   1.00
O1172  O     0.17849   0.41434   0.77820   0.00000  Uiso   1.00
O1173  O     0.14581   0.59469   0.76767   0.00000  Uiso   1.00
O1174  O     0.07452   0.46584   0.73607   0.00000  Uiso   1.00
O1175  O     0.26785   0.52512   0.71805   0.00000  Uiso   1.00
O1176  O     0.06990   0.52293   0.77820   0.00000  Uiso   1.00
O1177  O     0.25440   0.48610   0.76767   0.00000  Uiso   1.00
O1178  O     0.13800   0.40236   0.73607   0.00000  Uiso   1.00
O1179  O     0.20437   0.58860   0.71805   0.00000  Uiso   1.00
Zn1180 Zn    0.19244   0.47423   0.78277   0.00000  Uiso   1.00
Zn1181 Zn    0.13459   0.45711   0.72257   0.00000  Uiso   1.00
Zn1182 Zn    0.21166   0.52997   0.71188   0.00000  Uiso   1.00
Zn1183 Zn    0.12798   0.53868   0.78277   0.00000  Uiso   1.00
C1184  C     0.38613   0.49345   0.75897   0.00000  Uiso   1.00
C1185  C     0.53635   0.47313   0.95872   0.00000  Uiso   1.00
C1186  C     0.55967   0.45584   0.97792   0.00000  Uiso   1.00
C1187  C     0.61465   0.50618   0.74065   0.00000  Uiso   1.00
C1188  C     0.54902   0.46053   0.51911   0.00000  Uiso   1.00
C1189  C     0.51297   0.48147   0.54177   0.00000  Uiso   1.00
C1190  C     0.57400   0.44414   0.53784   0.00000  Uiso   1.00
C1191  C     0.56423   0.44892   0.57884   0.00000  Uiso   1.00
C1192  C     0.50613   0.48959   0.58327   0.00000  Uiso   1.00
C1193  C     0.66107   0.50565   0.73543   0.00000  Uiso   1.00
C1194  C     0.34069   0.49155   0.76413   0.00000  Uiso   1.00
C1195  C     0.42044   0.52908   0.91995   0.00000  Uiso   1.00
C1196  C     0.51431   0.65558   0.73801   0.00000  Uiso   1.00
C1197  C     0.48491   0.34547   0.76217   0.00000  Uiso   1.00
C1198  C     0.48928   0.38954   0.75892   0.00000  Uiso   1.00
C1199  C     0.51021   0.61106   0.74129   0.00000  Uiso   1.00
C1200  C     0.52197   0.47851   0.64403   0.00000  Uiso   1.00
C1201  C     0.47828   0.52084   0.85619   0.00000  Uiso   1.00
C1202  C     0.46420   0.52555   0.89972   0.00000  Uiso   1.00
C1203  C     0.53047   0.47146   0.60137   0.00000  Uiso   1.00
C1204  C     0.40595   0.52712   0.96087   0.00000  Uiso   1.00
C1205  C     0.36215   0.52006   0.69796   0.00000  Uiso   1.00
C1206  C     0.49353   0.52346   0.92118   0.00000  Uiso   1.00
C1207  C     0.34694   0.53006   0.66406   0.00000  Uiso   1.00
C1208  C     0.64412   0.47663   0.80326   0.00000  Uiso   1.00
C1209  C     0.66647   0.46504   0.83176   0.00000  Uiso   1.00
C1210  C     0.49859   0.55829   0.60410   0.00000  Uiso   1.00
C1211  C     0.47051   0.58786   0.63454   0.00000  Uiso   1.00
C1212  C     0.36969   0.56595   0.91048   0.00000  Uiso   1.00
C1213  C     0.65459   0.55367   0.92403   0.00000  Uiso   1.00
C1214  C     0.54111   0.53894   0.90408   0.00000  Uiso   1.00
C1215  C     0.54771   0.58369   0.89275   0.00000  Uiso   1.00
C1216  C     0.47683   0.51265   0.96066   0.00000  Uiso   1.00
C1217  C     0.43348   0.51840   0.98113   0.00000  Uiso   1.00
C1218  C     0.50093   0.49488   0.98016   0.00000  Uiso   1.00
C1219  C     0.48608   0.49423   0.52188   0.00000  Uiso   1.00
C1220  C     0.44346   0.50261   0.54168   0.00000  Uiso   1.00
C1221  C     0.41735   0.51352   0.52137   0.00000  Uiso   1.00
H1222  H     0.38414   0.51767   0.53720   0.00000  Uiso   1.00
H1223  H     0.65831   0.50352   0.65539   0.00000  Uiso   1.00
H1224  H     0.66462   0.55939   0.67224   0.00000  Uiso   1.00
H1225  H     0.37515   0.53503   0.63783   0.00000  Uiso   1.00
H1226  H     0.38247   0.54811   0.70666   0.00000  Uiso   1.00
H1227  H     0.38325   0.49479   0.68500   0.00000  Uiso   1.00
H1228  H     0.35345   0.43944   0.81752   0.00000  Uiso   1.00
H1229  H     0.35319   0.49264   0.84138   0.00000  Uiso   1.00
H1230  H     0.64182   0.45405   0.85849   0.00000  Uiso   1.00
H1231  H     0.62383   0.50171   0.81946   0.00000  Uiso   1.00
H1232  H     0.62348   0.44786   0.79665   0.00000  Uiso   1.00
H1233  H     0.60108   0.42753   0.52074   0.00000  Uiso   1.00
H1234  H     0.50376   0.56815   0.57419   0.00000  Uiso   1.00
H1235  H     0.53017   0.56128   0.61050   0.00000  Uiso   1.00
H1236  H     0.46428   0.57829   0.66466   0.00000  Uiso   1.00
H1237  H     0.48704   0.62027   0.63361   0.00000  Uiso   1.00
H1238  H     0.43944   0.58731   0.62802   0.00000  Uiso   1.00
H1239  H     0.37723   0.58361   0.88425   0.00000  Uiso   1.00
H1240  H     0.37934   0.58797   0.93413   0.00000  Uiso   1.00
H1241  H     0.63767   0.58224   0.93266   0.00000  Uiso   1.00
H1242  H     0.64377   0.53459   0.89971   0.00000  Uiso   1.00
H1243  H     0.64587   0.53525   0.94986   0.00000  Uiso   1.00
H1244  H     0.54148   0.33624   0.71580   0.00000  Uiso   1.00
H1245  H     0.53553   0.58532   0.86725   0.00000  Uiso   1.00
H1246  H     0.53108   0.60486   0.91829   0.00000  Uiso   1.00
H1247  H     0.58260   0.59488   0.88416   0.00000  Uiso   1.00
H1248  H     0.55645   0.51770   0.87805   0.00000  Uiso   1.00
H1249  H     0.55896   0.54031   0.92617   0.00000  Uiso   1.00
H1250  H     0.45733   0.66556   0.78440   0.00000  Uiso   1.00
H1251  H     0.58358   0.43585   0.59301   0.00000  Uiso   1.00
H1252  H     0.58655   0.43917   0.96039   0.00000  Uiso   1.00
H1253  H     0.37230   0.52938   0.97636   0.00000  Uiso   1.00
H1254  H     0.42819   0.49720   0.57217   0.00000  Uiso   1.00
H1255  H     0.54515   0.46751   0.92681   0.00000  Uiso   1.00
O1256  O     0.50000   0.50000   0.75000   0.00000  Uiso   1.00
O1257  O     0.49027   0.45726   0.66625   0.00000  Uiso   1.00
O1258  O     0.46020   0.53979   0.83749   0.00000  Uiso   1.00
O1259  O     0.54421   0.50826   0.65877   0.00000  Uiso   1.00
O1260  O     0.50532   0.49468   0.83749   0.00000  Uiso   1.00
O1261  O     0.47776   0.51702   0.60652   0.00000  Uiso   1.00
O1262  O     0.39121   0.52944   0.89890   0.00000  Uiso   1.00
O1263  O     0.51182   0.41434   0.77820   0.00000  Uiso   1.00
O1264  O     0.47914   0.59469   0.76767   0.00000  Uiso   1.00
O1265  O     0.40785   0.46584   0.73607   0.00000  Uiso   1.00
O1266  O     0.60119   0.52512   0.71805   0.00000  Uiso   1.00
O1267  O     0.40323   0.52293   0.77820   0.00000  Uiso   1.00
O1268  O     0.58773   0.48610   0.76767   0.00000  Uiso   1.00
O1269  O     0.47133   0.40236   0.73607   0.00000  Uiso   1.00
O1270  O     0.53771   0.58860   0.71805   0.00000  Uiso   1.00
Zn1271 Zn    0.52577   0.47423   0.78277   0.00000  Uiso   1.00
Zn1272 Zn    0.46792   0.45711   0.72257   0.00000  Uiso   1.00
Zn1273 Zn    0.54500   0.52997   0.71188   0.00000  Uiso   1.00
Zn1274 Zn    0.46131   0.53868   0.78277   0.00000  Uiso   1.00
C1275  C     0.71947   0.49345   0.75897   0.00000  Uiso   1.00
C1276  C     0.86968   0.47313   0.95872   0.00000  Uiso   1.00
C1277  C     0.89300   0.45584   0.97792   0.00000  Uiso   1.00
C1278  C     0.94799   0.50618   0.74065   0.00000  Uiso   1.00
C1279  C     0.88235   0.46053   0.51911   0.00000  Uiso   1.00
C1280  C     0.84630   0.48147   0.54177   0.00000  Uiso   1.00
C1281  C     0.90733   0.44414   0.53784   0.00000  Uiso   1.00
C1282  C     0.89756   0.44892   0.57884   0.00000  Uiso   1.00
C1283  C     0.83946   0.48959   0.58327   0.00000  Uiso   1.00
C1284  C     0.99440   0.50565   0.73543   0.00000  Uiso   1.00
C1285  C     0.67402   0.49155   0.76413   0.00000  Uiso   1.00
C1286  C     0.75378   0.52908   0.91995   0.00000  Uiso   1.00
C1287  C     0.84764   0.65558   0.73801   0.00000  Uiso   1.00
C1288  C     0.81825   0.34547   0.76217   0.00000  Uiso   1.00
C1289  C     0.82261   0.38954   0.75892   0.00000  Uiso   1.00
C1290  C     0.84354   0.61106   0.74129   0.00000  Uiso   1.00
C1291  C     0.85530   0.47851   0.64403   0.00000  Uiso   1.00
C1292  C     0.81162   0.52084   0.85619   0.00000  Uiso   1.00
C1293  C     0.79754   0.52555   0.89972   0.00000  Uiso   1.00
C1294  C     0.86380   0.47146   0.60137   0.00000  Uiso   1.00
C1295  C     0.73928   0.52712   0.96087   0.00000  Uiso   1.00
C1296  C     0.69549   0.52006   0.69796   0.00000  Uiso   1.00
C1297  C     0.82686   0.52346   0.92118   0.00000  Uiso   1.00
C1298  C     0.68027   0.53006   0.66406   0.00000  Uiso   1.00
C1299  C     0.97745   0.47663   0.80326   0.00000  Uiso   1.00
C1300  C     0.99980   0.46504   0.83176   0.00000  Uiso   1.00
C1301  C     0.83192   0.55829   0.60410   0.00000  Uiso   1.00
C1302  C     0.80385   0.58786   0.63454   0.00000  Uiso   1.00
C1303  C     0.70302   0.56595   0.91048   0.00000  Uiso   1.00
C1304  C     0.98792   0.55367   0.92403   0.00000  Uiso   1.00
C1305  C     0.87444   0.53894   0.90408   0.00000  Uiso   1.00
C1306  C     0.88105   0.58369   0.89275   0.00000  Uiso   1.00
C1307  C     0.81016   0.51265   0.96066   0.00000  Uiso   1.00
C1308  C     0.76681   0.51840   0.98113   0.00000  Uiso   1.00
C1309  C     0.83427   0.49488   0.98016   0.00000  Uiso   1.00
C1310  C     0.81941   0.49423   0.52188   0.00000  Uiso   1.00
C1311  C     0.77679   0.50261   0.54168   0.00000  Uiso   1.00
C1312  C     0.75068   0.51352   0.52137   0.00000  Uiso   1.00
H1313  H     0.71747   0.51767   0.53720   0.00000  Uiso   1.00
H1314  H     0.99165   0.50352   0.65539   0.00000  Uiso   1.00
H1315  H     0.99795   0.55939   0.67224   0.00000  Uiso   1.00
H1316  H     0.70848   0.53503   0.63783   0.00000  Uiso   1.00
H1317  H     0.71580   0.54811   0.70666   0.00000  Uiso   1.00
H1318  H     0.71658   0.49479   0.68500   0.00000  Uiso   1.00
H1319  H     0.68678   0.43944   0.81752   0.00000  Uiso   1.00
H1320  H     0.68652   0.49264   0.84138   0.00000  Uiso   1.00
H1321  H     0.97515   0.45405   0.85849   0.00000  Uiso   1.00
H1322  H     0.95717   0.50171   0.81946   0.00000  Uiso   1.00
H1323  H     0.95682   0.44786   0.79665   0.00000  Uiso   1.00
H1324  H     0.93441   0.42753   0.52074   0.00000  Uiso   1.00
H1325  H     0.83709   0.56815   0.57419   0.00000  Uiso   1.00
H1326  H     0.86350   0.56128   0.61050   0.00000  Uiso   1.00
H1327  H     0.79762   0.57829   0.66466   0.00000  Uiso   1.00
H1328  H     0.82038   0.62027   0.63361   0.00000  Uiso   1.00
H1329  H     0.77277   0.58731   0.62802   0.00000  Uiso   1.00
H1330  H     0.71056   0.58361   0.88425   0.00000  Uiso   1.00
H1331  H     0.71268   0.58797   0.93413   0.00000  Uiso   1.00
H1332  H     0.97100   0.58224   0.93266   0.00000  Uiso   1.00
H1333  H     0.97711   0.53459   0.89971   0.00000  Uiso   1.00
H1334  H     0.97921   0.53525   0.94986   0.00000  Uiso   1.00
H1335  H     0.87481   0.33624   0.71580   0.00000  Uiso   1.00
H1336  H     0.86887   0.58532   0.86725   0.00000  Uiso   1.00
H1337  H     0.86441   0.60486   0.91829   0.00000  Uiso   1.00
H1338  H     0.91594   0.59488   0.88416   0.00000  Uiso   1.00
H1339  H     0.88979   0.51770   0.87805   0.00000  Uiso   1.00
H1340  H     0.89229   0.54031   0.92617   0.00000  Uiso   1.00
H1341  H     0.79066   0.66556   0.78440   0.00000  Uiso   1.00
H1342  H     0.91691   0.43585   0.59301   0.00000  Uiso   1.00
H1343  H     0.91989   0.43917   0.96039   0.00000  Uiso   1.00
H1344  H     0.70564   0.52938   0.97636   0.00000  Uiso   1.00
H1345  H     0.76152   0.49720   0.57217   0.00000  Uiso   1.00
H1346  H     0.87848   0.46751   0.92681   0.00000  Uiso   1.00
O1347  O     0.83333   0.50000   0.75000   0.00000  Uiso   1.00
O1348  O     0.82360   0.45726   0.66625   0.00000  Uiso   1.00
O1349  O     0.79354   0.53979   0.83749   0.00000  Uiso   1.00
O1350  O     0.87755   0.50826   0.65877   0.00000  Uiso   1.00
O1351  O     0.83865   0.49468   0.83749   0.00000  Uiso   1.00
O1352  O     0.81110   0.51702   0.60652   0.00000  Uiso   1.00
O1353  O     0.72455   0.52944   0.89890   0.00000  Uiso   1.00
O1354  O     0.84515   0.41434   0.77820   0.00000  Uiso   1.00
O1355  O     0.81247   0.59469   0.76767   0.00000  Uiso   1.00
O1356  O     0.74119   0.46584   0.73607   0.00000  Uiso   1.00
O1357  O     0.93452   0.52512   0.71805   0.00000  Uiso   1.00
O1358  O     0.73656   0.52293   0.77820   0.00000  Uiso   1.00
O1359  O     0.92106   0.48610   0.76767   0.00000  Uiso   1.00
O1360  O     0.80467   0.40236   0.73607   0.00000  Uiso   1.00
O1361  O     0.87104   0.58860   0.71805   0.00000  Uiso   1.00
Zn1362 Zn    0.85910   0.47423   0.78277   0.00000  Uiso   1.00
Zn1363 Zn    0.80125   0.45711   0.72257   0.00000  Uiso   1.00
Zn1364 Zn    0.87833   0.52997   0.71188   0.00000  Uiso   1.00
Zn1365 Zn    0.79465   0.53868   0.78277   0.00000  Uiso   1.00
C1366  C     0.05280   0.82679   0.75897   0.00000  Uiso   1.00
C1367  C     0.20302   0.80646   0.95872   0.00000  Uiso   1.00
C1368  C     0.22634   0.78917   0.97792   0.00000  Uiso   1.00
C1369  C     0.28132   0.83951   0.74065   0.00000  Uiso   1.00
C1370  C     0.21569   0.79386   0.51911   0.00000  Uiso   1.00
C1371  C     0.17963   0.81480   0.54177   0.00000  Uiso   1.00
C1372  C     0.24067   0.77748   0.53784   0.00000  Uiso   1.00
C1373  C     0.23090   0.78226   0.57884   0.00000  Uiso   1.00
C1374  C     0.17280   0.82292   0.58327   0.00000  Uiso   1.00
C1375  C     0.32773   0.83898   0.73543   0.00000  Uiso   1.00
C1376  C     0.00735   0.82488   0.76413   0.00000  Uiso   1.00
C1377  C     0.08711   0.86241   0.91995   0.00000  Uiso   1.00
C1378  C     0.18098   0.98891   0.73801   0.00000  Uiso   1.00
C1379  C     0.15158   0.67881   0.76217   0.00000  Uiso   1.00
C1380  C     0.15594   0.72287   0.75892   0.00000  Uiso   1.00
C1381  C     0.17688   0.94439   0.74129   0.00000  Uiso   1.00
C1382  C     0.18864   0.81185   0.64403   0.00000  Uiso   1.00
C1383  C     0.14495   0.85418   0.85619   0.00000  Uiso   1.00
C1384  C     0.13087   0.85888   0.89972   0.00000  Uiso   1.00
C1385  C     0.19713   0.80479   0.60137   0.00000  Uiso   1.00
C1386  C     0.07262   0.86046   0.96087   0.00000  Uiso   1.00
C1387  C     0.02882   0.85339   0.69796   0.00000  Uiso   1.00
C1388  C     0.16020   0.85679   0.92118   0.00000  Uiso   1.00
C1389  C     0.01360   0.86339   0.66406   0.00000  Uiso   1.00
C1390  C     0.31078   0.80997   0.80326   0.00000  Uiso   1.00
C1391  C     0.33313   0.79837   0.83176   0.00000  Uiso   1.00
C1392  C     0.16525   0.89163   0.60410   0.00000  Uiso   1.00
C1393  C     0.13718   0.92120   0.63454   0.00000  Uiso   1.00
C1394  C     0.03636   0.89929   0.91048   0.00000  Uiso   1.00
C1395  C     0.32126   0.88700   0.92403   0.00000  Uiso   1.00
C1396  C     0.20777   0.87227   0.90408   0.00000  Uiso   1.00
C1397  C     0.21438   0.91702   0.89275   0.00000  Uiso   1.00
C1398  C     0.14350   0.84598   0.96066   0.00000  Uiso   1.00
C1399  C     0.10014   0.85173   0.98113   0.00000  Uiso   1.00
C1400  C     0.16760   0.82821   0.98016   0.00000  Uiso   1.00
C1401  C     0.15274   0.82756   0.52188   0.00000  Uiso   1.00
C1402  C     0.11012   0.83595   0.54168   0.00000  Uiso   1.00
C1403  C     0.08402   0.84686   0.52137   0.00000  Uiso   1.00
H1404  H     0.05080   0.85100   0.53720   0.00000  Uiso   1.00
H1405  H     0.32498   0.83685   0.65539   0.00000  Uiso   1.00
H1406  H     0.33128   0.89272   0.67224   0.00000  Uiso   1.00
H1407  H     0.04182   0.86836   0.63783   0.00000  Uiso   1.00
H1408  H     0.04913   0.88144   0.70666   0.00000  Uiso   1.00
H1409  H     0.04991   0.82813   0.68500   0.00000  Uiso   1.00
H1410  H     0.02011   0.77278   0.81752   0.00000  Uiso   1.00
H1411  H     0.01985   0.82597   0.84138   0.00000  Uiso   1.00
H1412  H     0.30849   0.78738   0.85849   0.00000  Uiso   1.00
H1413  H     0.29050   0.83505   0.81946   0.00000  Uiso   1.00
H1414  H     0.29015   0.78119   0.79665   0.00000  Uiso   1.00
H1415  H     0.26774   0.76086   0.52074   0.00000  Uiso   1.00
H1416  H     0.17042   0.90148   0.57419   0.00000  Uiso   1.00
H1417  H     0.19683   0.89462   0.61050   0.00000  Uiso   1.00
H1418  H     0.13095   0.91163   0.66466   0.00000  Uiso   1.00
H1419  H     0.15371   0.95360   0.63361   0.00000  Uiso   1.00
H1420  H     0.10611   0.92064   0.62802   0.00000  Uiso   1.00
H1421  H     0.04390   0.91695   0.88425   0.00000  Uiso   1.00
H1422  H     0.04601   0.92130   0.93413   0.00000  Uiso   1.00
H1423  H     0.30434   0.91557   0.93266   0.00000  Uiso   1.00
H1424  H     0.31044   0.86792   0.89971   0.00000  Uiso   1.00
H1425  H     0.31254   0.86859   0.94986   0.00000  Uiso   1.00
H1426  H     0.20814   0.66957   0.71580   0.00000  Uiso   1.00
H1427  H     0.20220   0.91865   0.86725   0.00000  Uiso   1.00
H1428  H     0.19774   0.93819   0.91829   0.00000  Uiso   1.00
H1429  H     0.24927   0.92821   0.88416   0.00000  Uiso   1.00
H1430  H     0.22312   0.85103   0.87805   0.00000  Uiso   1.00
H1431  H     0.22562   0.87364   0.92617   0.00000  Uiso   1.00
H1432  H     0.12399   0.99889   0.78440   0.00000  Uiso   1.00
H1433  H     0.25025   0.76918   0.59301   0.00000  Uiso   1.00
H1434  H     0.25322   0.77250   0.96039   0.00000  Uiso   1.00
H1435  H     0.03897   0.86272   0.97636   0.00000  Uiso   1.00
H1436  H     0.09485   0.83054   0.57217   0.00000  Uiso   1.00
H1437  H     0.21182   0.80084   0.92681   0.00000  Uiso   1.00
O1438  O     0.16667   0.83333   0.75000   0.00000  Uiso   1.00
O1439  O     0.15693   0.79060   0.66625   0.00000  Uiso   1.00
O1440  O     0.12687   0.87313   0.83749   0.00000  Uiso   1.00
O1441  O     0.21088   0.84159   0.65877   0.00000  Uiso   1.00
O1442  O     0.17198   0.82802   0.83749   0.00000  Uiso   1.00
O1443  O     0.14443   0.85035   0.60652   0.00000  Uiso   1.00
O1444  O     0.05788   0.86277   0.89890   0.00000  Uiso   1.00
O1445  O     0.17849   0.74768   0.77820   0.00000  Uiso   1.00
O1446  O     0.14581   0.92803   0.76767   0.00000  Uiso   1.00
O1447  O     0.07452   0.79917   0.73607   0.00000  Uiso   1.00
O1448  O     0.26785   0.85845   0.71805   0.00000  Uiso   1.00
O1449  O     0.06990   0.85627   0.77820   0.00000  Uiso   1.00
O1450  O     0.25440   0.81944   0.76767   0.00000  Uiso   1.00
O1451  O     0.13800   0.73570   0.73607   0.00000  Uiso   1.00
O1452  O     0.20437   0.92193   0.71805   0.00000  Uiso   1.00
Zn1453 Zn    0.19244   0.80756   0.78277   0.00000  Uiso   1.00
Zn1454 Zn    0.13459   0.79044   0.72257   0.00000  Uiso   1.00
Zn1455 Zn    0.21166   0.86331   0.71188   0.00000  Uiso   1.00
Zn1456 Zn    0.12798   0.87202   0.78277   0.00000  Uiso   1.00
C1457  C     0.38613   0.82679   0.75897   0.00000  Uiso   1.00
C1458  C     0.53635   0.80646   0.95872   0.00000  Uiso   1.00
C1459  C     0.55967   0.78917   0.97792   0.00000  Uiso   1.00
C1460  C     0.61465   0.83951   0.74065   0.00000  Uiso   1.00
C1461  C     0.54902   0.79386   0.51911   0.00000  Uiso   1.00
C1462  C     0.51297   0.81480   0.54177   0.00000  Uiso   1.00
C1463  C     0.57400   0.77748   0.53784   0.00000  Uiso   1.00
C1464  C     0.56423   0.78226   0.57884   0.00000  Uiso   1.00
C1465  C     0.50613   0.82292   0.58327   0.00000  Uiso   1.00
C1466  C     0.66107   0.83898   0.73543   0.00000  Uiso   1.00
C1467  C     0.34069   0.82488   0.76413   0.00000  Uiso   1.00
C1468  C     0.42044   0.86241   0.91995   0.00000  Uiso   1.00
C1469  C     0.51431   0.98891   0.73801   0.00000  Uiso   1.00
C1470  C     0.48491   0.67881   0.76217   0.00000  Uiso   1.00
C1471  C     0.48928   0.72287   0.75892   0.00000  Uiso   1.00
C1472  C     0.51021   0.94439   0.74129   0.00000  Uiso   1.00
C1473  C     0.52197   0.81185   0.64403   0.00000  Uiso   1.00
C1474  C     0.47828   0.85418   0.85619   0.00000  Uiso   1.00
C1475  C     0.46420   0.85888   0.89972   0.00000  Uiso   1.00
C1476  C     0.53047   0.80479   0.60137   0.00000  Uiso   1.00
C1477  C     0.40595   0.86046   0.96087   0.00000  Uiso   1.00
C1478  C     0.36215   0.85339   0.69796   0.00000  Uiso   1.00
C1479  C     0.49353   0.85679   0.92118   0.00000  Uiso   1.00
C1480  C     0.34694   0.86339   0.66406   0.00000  Uiso   1.00
C1481  C     0.64412   0.80997   0.80326   0.00000  Uiso   1.00
C1482  C     0.66647   0.79837   0.83176   0.00000  Uiso   1.00
C1483  C     0.49859   0.89163   0.60410   0.00000  Uiso   1.00
C1484  C     0.47051   0.92120   0.63454   0.00000  Uiso   1.00
C1485  C     0.36969   0.89929   0.91048   0.00000  Uiso   1.00
C1486  C     0.65459   0.88700   0.92403   0.00000  Uiso   1.00
C1487  C     0.54111   0.87227   0.90408   0.00000  Uiso   1.00
C1488  C     0.54771   0.91702   0.89275   0.00000  Uiso   1.00
C1489  C     0.47683   0.84598   0.96066   0.00000  Uiso   1.00
C1490  C     0.43348   0.85173   0.98113   0.00000  Uiso   1.00
C1491  C     0.50093   0.82821   0.98016   0.00000  Uiso   1.00
C1492  C     0.48608   0.82756   0.52188   0.00000  Uiso   1.00
C1493  C     0.44346   0.83595   0.54168   0.00000  Uiso   1.00
C1494  C     0.41735   0.84686   0.52137   0.00000  Uiso   1.00
H1495  H     0.38414   0.85100   0.53720   0.00000  Uiso   1.00
H1496  H     0.65831   0.83685   0.65539   0.00000  Uiso   1.00
H1497  H     0.66462   0.89272   0.67224   0.00000  Uiso   1.00
H1498  H     0.37515   0.86836   0.63783   0.00000  Uiso   1.00
H1499  H     0.38247   0.88144   0.70666   0.00000  Uiso   1.00
H1500  H     0.38325   0.82813   0.68500   0.00000  Uiso   1.00
H1501  H     0.35345   0.77278   0.81752   0.00000  Uiso   1.00
H1502  H     0.35319   0.82597   0.84138   0.00000  Uiso   1.00
H1503  H     0.64182   0.78738   0.85849   0.00000  Uiso   1.00
H1504  H     0.62383   0.83505   0.81946   0.00000  Uiso   1.00
H1505  H     0.62348   0.78119   0.79665   0.00000  Uiso   1.00
H1506  H     0.60108   0.76086   0.52074   0.00000  Uiso   1.00
H1507  H     0.50376   0.90148   0.57419   0.00000  Uiso   1.00
H1508  H     0.53017   0.89462   0.61050   0.00000  Uiso   1.00
H1509  H     0.46428   0.91163   0.66466   0.00000  Uiso   1.00
H1510  H     0.48704   0.95360   0.63361   0.00000  Uiso   1.00
H1511  H     0.43944   0.92064   0.62802   0.00000  Uiso   1.00
H1512  H     0.37723   0.91695   0.88425   0.00000  Uiso   1.00
H1513  H     0.37934   0.92130   0.93413   0.00000  Uiso   1.00
H1514  H     0.63767   0.91557   0.93266   0.00000  Uiso   1.00
H1515  H     0.64377   0.86792   0.89971   0.00000  Uiso   1.00
H1516  H     0.64587   0.86859   0.94986   0.00000  Uiso   1.00
H1517  H     0.54148   0.66957   0.71580   0.00000  Uiso   1.00
H1518  H     0.53553   0.91865   0.86725   0.00000  Uiso   1.00
H1519  H     0.53108   0.93819   0.91829   0.00000  Uiso   1.00
H1520  H     0.58260   0.92821   0.88416   0.00000  Uiso   1.00
H1521  H     0.55645   0.85103   0.87805   0.00000  Uiso   1.00
H1522  H     0.55896   0.87364   0.92617   0.00000  Uiso   1.00
H1523  H     0.45733   0.99889   0.78440   0.00000  Uiso   1.00
H1524  H     0.58358   0.76918   0.59301   0.00000  Uiso   1.00
H1525  H     0.58655   0.77250   0.96039   0.00000  Uiso   1.00
H1526  H     0.37230   0.86272   0.97636   0.00000  Uiso   1.00
H1527  H     0.42819   0.83054   0.57217   0.00000  Uiso   1.00
H1528  H     0.54515   0.80084   0.92681   0.00000  Uiso   1.00
O1529  O     0.50000   0.83333   0.75000   0.00000  Uiso   1.00
O1530  O     0.49027   0.79060   0.66625   0.00000  Uiso   1.00
O1531  O     0.46020   0.87313   0.83749   0.00000  Uiso   1.00
O1532  O     0.54421   0.84159   0.65877   0.00000  Uiso   1.00
O1533  O     0.50532   0.82802   0.83749   0.00000  Uiso   1.00
O1534  O     0.47776   0.85035   0.60652   0.00000  Uiso   1.00
O1535  O     0.39121   0.86277   0.89890   0.00000  Uiso   1.00
O1536  O     0.51182   0.74768   0.77820   0.00000  Uiso   1.00
O1537  O     0.47914   0.92803   0.76767   0.00000  Uiso   1.00
O1538  O     0.40785   0.79917   0.73607   0.00000  Uiso   1.00
O1539  O     0.60119   0.85845   0.71805   0.00000  Uiso   1.00
O1540  O     0.40323   0.85627   0.77820   0.00000  Uiso   1.00
O1541  O     0.58773   0.81944   0.76767   0.00000  Uiso   1.00
O1542  O     0.47133   0.73570   0.73607   0.00000  Uiso   1.00
O1543  O     0.53771   0.92193   0.71805   0.00000  Uiso   1.00
Zn1544 Zn    0.52577   0.80756   0.78277   0.00000  Uiso   1.00
Zn1545 Zn    0.46792   0.79044   0.72257   0.00000  Uiso   1.00
Zn1546 Zn    0.54500   0.86331   0.71188   0.00000  Uiso   1.00
Zn1547 Zn    0.46131   0.87202   0.78277   0.00000  Uiso   1.00
C1548  C     0.71947   0.82679   0.75897   0.00000  Uiso   1.00
C1549  C     0.86968   0.80646   0.95872   0.00000  Uiso   1.00
C1550  C     0.89300   0.78917   0.97792   0.00000  Uiso   1.00
C1551  C     0.94799   0.83951   0.74065   0.00000  Uiso   1.00
C1552  C     0.88235   0.79386   0.51911   0.00000  Uiso   1.00
C1553  C     0.84630   0.81480   0.54177   0.00000  Uiso   1.00
C1554  C     0.90733   0.77748   0.53784   0.00000  Uiso   1.00
C1555  C     0.89756   0.78226   0.57884   0.00000  Uiso   1.00
C1556  C     0.83946   0.82292   0.58327   0.00000  Uiso   1.00
C1557  C     0.99440   0.83898   0.73543   0.00000  Uiso   1.00
C1558  C     0.67402   0.82488   0.76413   0.00000  Uiso   1.00
C1559  C     0.75378   0.86241   0.91995   0.00000  Uiso   1.00
C1560  C     0.84764   0.98891   0.73801   0.00000  Uiso   1.00
C1561  C     0.81825   0.67881   0.76217   0.00000  Uiso   1.00
C1562  C     0.82261   0.72287   0.75892   0.00000  Uiso   1.00
C1563  C     0.84354   0.94439   0.74129   0.00000  Uiso   1.00
C1564  C     0.85530   0.81185   0.64403   0.00000  Uiso   1.00
C1565  C     0.81162   0.85418   0.85619   0.00000  Uiso   1.00
C1566  C     0.79754   0.85888   0.89972   0.00000  Uiso   1.00
C1567  C     0.86380   0.80479   0.60137   0.00000  Uiso   1.00
C1568  C     0.73928   0.86046   0.96087   0.00000  Uiso   1.00
C1569  C     0.69549   0.85339   0.69796   0.00000  Uiso   1.00
C1570  C     0.82686   0.85679   0.92118   0.00000  Uiso   1.00
C1571  C     0.68027   0.86339   0.66406   0.00000  Uiso   1.00
C1572  C     0.97745   0.80997   0.80326   0.00000  Uiso   1.00
C1573  C     0.99980   0.79837   0.83176   0.00000  Uiso   1.00
C1574  C     0.83192   0.89163   0.60410   0.00000  Uiso   1.00
C1575  C     0.80385   0.92120   0.63454   0.00000  Uiso   1.00
C1576  C     0.70302   0.89929   0.91048   0.00000  Uiso   1.00
C1577  C     0.98792   0.88700   0.92403   0.00000  Uiso   1.00
C1578  C     0.87444   0.87227   0.90408   0.00000  Uiso   1.00
C1579  C     0.88105   0.91702   0.89275   0.00000  Uiso   1.00
C1580  C     0.81016   0.84598   0.96066   0.00000  Uiso   1.00
C1581  C     0.76681   0.85173   0.98113   0.00000  Uiso   1.00
C1582  C     0.83427   0.82821   0.98016   0.00000  Uiso   1.00
C1583  C     0.81941   0.82756   0.52188   0.00000  Uiso   1.00
C1584  C     0.77679   0.83595   0.54168   0.00000  Uiso   1.00
C1585  C     0.75068   0.84686   0.52137   0.00000  Uiso   1.00
H1586  H     0.71747   0.85100   0.53720   0.00000  Uiso   1.00
H1587  H     0.99165   0.83685   0.65539   0.00000  Uiso   1.00
H1588  H     0.99795   0.89272   0.67224   0.00000  Uiso   1.00
H1589  H     0.70848   0.86836   0.63783   0.00000  Uiso   1.00
H1590  H     0.71580   0.88144   0.70666   0.00000  Uiso   1.00
H1591  H     0.71658   0.82813   0.68500   0.00000  Uiso   1.00
H1592  H     0.68678   0.77278   0.81752   0.00000  Uiso   1.00
H1593  H     0.68652   0.82597   0.84138   0.00000  Uiso   1.00
H1594  H     0.97515   0.78738   0.85849   0.00000  Uiso   1.00
H1595  H     0.95717   0.83505   0.81946   0.00000  Uiso   1.00
H1596  H     0.95682   0.78119   0.79665   0.00000  Uiso   1.00
H1597  H     0.93441   0.76086   0.52074   0.00000  Uiso   1.00
H1598  H     0.83709   0.90148   0.57419   0.00000  Uiso   1.00
H1599  H     0.86350   0.89462   0.61050   0.00000  Uiso   1.00
H1600  H     0.79762   0.91163   0.66466   0.00000  Uiso   1.00
H1601  H     0.82038   0.95360   0.63361   0.00000  Uiso   1.00
H1602  H     0.77277   0.92064   0.62802   0.00000  Uiso   1.00
H1603  H     0.71056   0.91695   0.88425   0.00000  Uiso   1.00
H1604  H     0.71268   0.92130   0.93413   0.00000  Uiso   1.00
H1605  H     0.97100   0.91557   0.93266   0.00000  Uiso   1.00
H1606  H     0.97711   0.86792   0.89971   0.00000  Uiso   1.00
H1607  H     0.97921   0.86859   0.94986   0.00000  Uiso   1.00
H1608  H     0.87481   0.66957   0.71580   0.00000  Uiso   1.00
H1609  H     0.86887   0.91865   0.86725   0.00000  Uiso   1.00
H1610  H     0.86441   0.93819   0.91829   0.00000  Uiso   1.00
H1611  H     0.91594   0.92821   0.88416   0.00000  Uiso   1.00
H1612  H     0.88979   0.85103   0.87805   0.00000  Uiso   1.00
H1613  H     0.89229   0.87364   0.92617   0.00000  Uiso   1.00
H1614  H     0.79066   0.99889   0.78440   0.00000  Uiso   1.00
H1615  H     0.91691   0.76918   0.59301   0.00000  Uiso   1.00
H1616  H     0.91989   0.77250   0.96039   0.00000  Uiso   1.00
H1617  H     0.70564   0.86272   0.97636   0.00000  Uiso   1.00
H1618  H     0.76152   0.83054   0.57217   0.00000  Uiso   1.00
H1619  H     0.87848   0.80084   0.92681   0.00000  Uiso   1.00
O1620  O     0.83333   0.83333   0.75000   0.00000  Uiso   1.00
O1621  O     0.82360   0.79060   0.66625   0.00000  Uiso   1.00
O1622  O     0.79354   0.87313   0.83749   0.00000  Uiso   1.00
O1623  O     0.87755   0.84159   0.65877   0.00000  Uiso   1.00
O1624  O     0.83865   0.82802   0.83749   0.00000  Uiso   1.00
O1625  O     0.81110   0.85035   0.60652   0.00000  Uiso   1.00
O1626  O     0.72455   0.86277   0.89890   0.00000  Uiso   1.00
O1627  O     0.84515   0.74768   0.77820   0.00000  Uiso   1.00
O1628  O     0.81247   0.92803   0.76767   0.00000  Uiso   1.00
O1629  O     0.74119   0.79917   0.73607   0.00000  Uiso   1.00
O1630  O     0.93452   0.85845   0.71805   0.00000  Uiso   1.00
O1631  O     0.73656   0.85627   0.77820   0.00000  Uiso   1.00
O1632  O     0.92106   0.81944   0.76767   0.00000  Uiso   1.00
O1633  O     0.80467   0.73570   0.73607   0.00000  Uiso   1.00
O1634  O     0.87104   0.92193   0.71805   0.00000  Uiso   1.00
Zn1635 Zn    0.85910   0.80756   0.78277   0.00000  Uiso   1.00
Zn1636 Zn    0.80125   0.79044   0.72257   0.00000  Uiso   1.00
Zn1637 Zn    0.87833   0.86331   0.71188   0.00000  Uiso   1.00
Zn1638 Zn    0.79465   0.87202   0.78277   0.00000  Uiso   1.00
loop_
_geom_bond_atom_site_label_1
_geom_bond_atom_site_label_2
_geom_bond_distance
_geom_bond_site_symmetry_2
_ccdc_geom_bond_type
C1     C11     1.440   .     S
C1     O84     1.261   .     A
C1     O82     1.269   .     A
C2     C35     1.410   .     A
C2     H72     1.081   .     S
C2     C3      1.387   .     A
C3     H69     1.084   .     S
C3     C824    1.394   .     S
C4     O85     1.275   .     A
C4     C10     1.481   .     S
C4     O83     1.288   .     A
C5     C7      1.401   .     A
C5     C6      1.422   .     A
C5     C822    1.394   1_554 S
C6     C9      1.420   .     A
C6     C36     1.423   .     A
C7     C8      1.389   .     A
C7     H50     1.084   .     S
C8     C20     1.395   .     A
C8     H68     1.084   .     S
C9     C20     1.400   .     A
C9     O78     1.385   .     S
C10    C102    1.375   .     S
C10    C113    1.545   .     S
C11    C192    1.375   1_455 S
C11    C207    1.538   1_455 S
C12    O79     1.388   .     S
C12    C21     1.399   .     A
C12    C19     1.413   .     A
C13    C16     1.450   .     S
C13    C287    1.331   .     S
C13    H334    1.088   .     S
C14    C15     1.434   .     S
C14    C559    1.331   1_545 S
C14    H613    1.086   1_545 S
C15    O80     1.282   .     A
C15    O86     1.282   .     A
C16    O87     1.267   .     A
C16    O81     1.268   .     A
C17    C20     1.452   .     S
C17    O76     1.274   .     A
C17    O74     1.277   .     A
C18    O75     1.280   .     A
C18    C19     1.472   .     S
C18    O77     1.288   .     A
C19    C23     1.413   .     A
C21    C34     1.395   .     A
C21    H70     1.084   .     S
C22    H44     1.111   .     S
C22    H43     1.112   .     S
C22    C24     1.530   .     S
C22    C192    1.545   1_455 S
C23    C33     1.422   .     A
C23    C31     1.530   .     S
C24    H42     1.110   .     S
C24    H222    1.111   1_455 S
C24    H223    1.110   1_455 S
C25    H48     1.112   .     S
C25    C26     1.534   .     S
C25    H49     1.111   .     S
C25    C102    1.538   .     S
C26    H47     1.111   .     S
C26    H136    1.111   .     S
C26    H137    1.109   .     S
C27    O78     1.413   .     S
C27    H51     1.113   .     S
C27    H52     1.115   .     S
C27    C28     1.521   .     S
C28    H55     1.110   .     S
C28    H54     1.110   .     S
C28    H53     1.111   .     S
C29    O79     1.418   .     S
C29    H57     1.117   .     S
C29    H56     1.111   .     S
C29    C212    1.524   1_455 S
C30    H60     1.110   .     S
C30    H59     1.110   .     S
C30    H58     1.111   .     S
C30    C120    1.524   .     S
C31    H66     1.108   .     S
C31    C32     1.530   .     S
C31    H65     1.109   .     S
C32    H64     1.111   .     S
C32    H63     1.111   .     S
C32    H62     1.109   .     S
C33    C34     1.416   .     A
C33    C35     1.423   .     A
C34    C857    1.394   .     S
C35    C855    1.421   .     S
C36    C37     1.411   .     A
C36    C854    1.421   1_554 S
C37    C38     1.387   .     A
C37    H71     1.078   .     S
C38    H39     1.084   .     S
C38    C853    1.394   1_554 S
H40    C115    1.111   .     S
H41    C115    1.110   .     S
H45    C208    1.111   1_455 S
H46    C208    1.109   1_455 S
H61    C559    1.088   1_545 S
H67    C287    1.086   .     S
O73    Zn90    1.926   .     S
O73    Zn91    1.928   .     S
O73    Zn88    1.966   .     S
O73    Zn89    1.952   .     S
O74    Zn89    1.919   .     S
O75    Zn91    1.936   .     S
O76    Zn90    1.932   .     S
O77    Zn88    1.916   .     S
O80    Zn88    1.926   .     S
O81    Zn91    1.926   .     S
O82    Zn89    1.938   .     S
O83    Zn90    1.954   .     S
O84    Zn91    1.949   .     S
O85    Zn88    1.934   .     S
O86    Zn89    1.933   .     S
O87    Zn90    1.928   .     S
C92    C102    1.440   .     S
C92    O175    1.261   .     A
C92    O173    1.269   .     A
C93    C126    1.410   .     A
C93    H163    1.081   .     S
C93    C94     1.387   .     A
C94    H160    1.084   .     S
C94    C915    1.394   .     S
C95    O176    1.275   .     A
C95    C101    1.481   .     S
C95    O174    1.288   .     A
C96    C98     1.401   .     A
C96    C97     1.422   .     A
C96    C913    1.394   1_554 S
C97    C100    1.420   .     A
C97    C127    1.423   .     A
C98    C99     1.389   .     A
C98    H141    1.084   .     S
C99    C111    1.395   .     A
C99    H159    1.084   .     S
C100   C111    1.400   .     A
C100   O169    1.385   .     S
C101   C193    1.375   .     S
C101   C204    1.545   .     S
C103   O170    1.388   .     S
C103   C112    1.399   .     A
C103   C110    1.413   .     A
C104   C107    1.450   .     S
C104   C378    1.331   .     S
C104   H425    1.088   .     S
C105   C106    1.434   .     S
C105   C650    1.331   1_545 S
C105   H704    1.086   1_545 S
C106   O171    1.282   .     A
C106   O177    1.282   .     A
C107   O178    1.267   .     A
C107   O172    1.268   .     A
C108   C111    1.452   .     S
C108   O167    1.274   .     A
C108   O165    1.277   .     A
C109   O166    1.280   .     A
C109   C110    1.472   .     S
C109   O168    1.288   .     A
C110   C114    1.413   .     A
C112   C125    1.395   .     A
C112   H161    1.084   .     S
C113   H135    1.111   .     S
C113   H134    1.112   .     S
C113   C115    1.530   .     S
C114   C124    1.422   .     A
C114   C122    1.530   .     S
C115   H133    1.110   .     S
C116   H139    1.112   .     S
C116   C117    1.534   .     S
C116   H140    1.111   .     S
C116   C193    1.538   .     S
C117   H138    1.111   .     S
C117   H227    1.111   .     S
C117   H228    1.109   .     S
C118   O169    1.413   .     S
C118   H142    1.113   .     S
C118   H143    1.115   .     S
C118   C119    1.521   .     S
C119   H146    1.110   .     S
C119   H145    1.110   .     S
C119   H144    1.111   .     S
C120   O170    1.418   .     S
C120   H148    1.117   .     S
C120   H147    1.111   .     S
C121   H151    1.110   .     S
C121   H150    1.110   .     S
C121   H149    1.111   .     S
C121   C211    1.524   .     S
C122   H157    1.108   .     S
C122   C123    1.530   .     S
C122   H156    1.109   .     S
C123   H155    1.111   .     S
C123   H154    1.111   .     S
C123   H153    1.109   .     S
C124   C125    1.416   .     A
C124   C126    1.423   .     A
C125   C948    1.394   .     S
C126   C946    1.421   .     S
C127   C128    1.411   .     A
C127   C945    1.421   1_554 S
C128   C129    1.387   .     A
C128   H162    1.078   .     S
C129   H130    1.084   .     S
C129   C944    1.394   1_554 S
H131   C206    1.111   .     S
H132   C206    1.110   .     S
H152   C650    1.088   1_545 S
H158   C378    1.086   .     S
O164   Zn181   1.926   .     S
O164   Zn182   1.928   .     S
O164   Zn179   1.966   .     S
O164   Zn180   1.952   .     S
O165   Zn180   1.919   .     S
O166   Zn182   1.936   .     S
O167   Zn181   1.932   .     S
O168   Zn179   1.916   .     S
O171   Zn179   1.926   .     S
O172   Zn182   1.926   .     S
O173   Zn180   1.938   .     S
O174   Zn181   1.954   .     S
O175   Zn182   1.949   .     S
O176   Zn179   1.934   .     S
O177   Zn180   1.933   .     S
O178   Zn181   1.928   .     S
C183   C193    1.440   .     S
C183   O266    1.261   .     A
C183   O264    1.269   .     A
C184   C217    1.410   .     A
C184   H254    1.081   .     S
C184   C185    1.387   .     A
C185   H251    1.084   .     S
C185   C1006   1.394   .     S
C186   O267    1.275   .     A
C186   C192    1.481   .     S
C186   O265    1.288   .     A
C187   C189    1.401   .     A
C187   C188    1.422   .     A
C187   C1004   1.394   1_554 S
C188   C191    1.420   .     A
C188   C218    1.423   .     A
C189   C190    1.389   .     A
C189   H232    1.084   .     S
C190   C202    1.395   .     A
C190   H250    1.084   .     S
C191   C202    1.400   .     A
C191   O260    1.385   .     S
C192   C11     1.375   1_655 S
C192   C22     1.545   1_655 S
C194   O261    1.388   .     S
C194   C203    1.399   .     A
C194   C201    1.413   .     A
C195   C198    1.450   .     S
C195   C469    1.331   .     S
C195   H516    1.088   .     S
C196   C197    1.434   .     S
C196   C741    1.331   1_545 S
C196   H795    1.086   1_545 S
C197   O262    1.282   .     A
C197   O268    1.282   .     A
C198   O269    1.267   .     A
C198   O263    1.268   .     A
C199   C202    1.452   .     S
C199   O258    1.274   .     A
C199   O256    1.277   .     A
C200   O257    1.280   .     A
C200   C201    1.472   .     S
C200   O259    1.288   .     A
C201   C205    1.413   .     A
C203   C216    1.395   .     A
C203   H252    1.084   .     S
C204   H226    1.111   .     S
C204   H225    1.112   .     S
C204   C206    1.530   .     S
C205   C215    1.422   .     A
C205   C213    1.530   .     S
C206   H224    1.110   .     S
C207   H230    1.112   .     S
C207   C208    1.534   .     S
C207   H231    1.111   .     S
C207   C11     1.538   1_655 S
C208   H229    1.111   .     S
C208   H45     1.111   1_655 S
C208   H46     1.109   1_655 S
C209   O260    1.413   .     S
C209   H233    1.113   .     S
C209   H234    1.115   .     S
C209   C210    1.521   .     S
C210   H237    1.110   .     S
C210   H236    1.110   .     S
C210   H235    1.111   .     S
C211   O261    1.418   .     S
C211   H239    1.117   .     S
C211   H238    1.111   .     S
C212   H242    1.110   .     S
C212   H241    1.110   .     S
C212   H240    1.111   .     S
C212   C29     1.524   1_655 S
C213   H248    1.108   .     S
C213   C214    1.530   .     S
C213   H247    1.109   .     S
C214   H246    1.111   .     S
C214   H245    1.111   .     S
C214   H244    1.109   .     S
C215   C216    1.416   .     A
C215   C217    1.423   .     A
C216   C1039   1.394   .     S
C217   C1037   1.421   .     S
C218   C219    1.411   .     A
C218   C1036   1.421   1_554 S
C219   C220    1.387   .     A
C219   H253    1.078   .     S
C220   H221    1.084   .     S
C220   C1035   1.394   1_554 S
H222   C24     1.111   1_655 S
H223   C24     1.110   1_655 S
H243   C741    1.088   1_545 S
H249   C469    1.086   .     S
O255   Zn272   1.926   .     S
O255   Zn273   1.928   .     S
O255   Zn270   1.966   .     S
O255   Zn271   1.952   .     S
O256   Zn271   1.919   .     S
O257   Zn273   1.936   .     S
O258   Zn272   1.932   .     S
O259   Zn270   1.916   .     S
O262   Zn270   1.926   .     S
O263   Zn273   1.926   .     S
O264   Zn271   1.938   .     S
O265   Zn272   1.954   .     S
O266   Zn273   1.949   .     S
O267   Zn270   1.934   .     S
O268   Zn271   1.933   .     S
O269   Zn272   1.928   .     S
C274   C284    1.440   .     S
C274   O357    1.261   .     A
C274   O355    1.269   .     A
C275   C308    1.410   .     A
C275   H345    1.081   .     S
C275   C276    1.387   .     A
C276   H342    1.084   .     S
C276   C1097   1.394   .     S
C277   O358    1.275   .     A
C277   C283    1.481   .     S
C277   O356    1.288   .     A
C278   C280    1.401   .     A
C278   C279    1.422   .     A
C278   C1095   1.394   1_554 S
C279   C282    1.420   .     A
C279   C309    1.423   .     A
C280   C281    1.389   .     A
C280   H323    1.084   .     S
C281   C293    1.395   .     A
C281   H341    1.084   .     S
C282   C293    1.400   .     A
C282   O351    1.385   .     S
C283   C375    1.375   .     S
C283   C386    1.545   .     S
C284   C465    1.375   1_455 S
C284   C480    1.538   1_455 S
C285   O352    1.388   .     S
C285   C294    1.399   .     A
C285   C292    1.413   .     A
C286   C289    1.450   .     S
C286   C560    1.331   .     S
C286   H607    1.088   .     S
C287   C288    1.434   .     S
C288   O353    1.282   .     A
C288   O359    1.282   .     A
C289   O360    1.267   .     A
C289   O354    1.268   .     A
C290   C293    1.452   .     S
C290   O349    1.274   .     A
C290   O347    1.277   .     A
C291   O348    1.280   .     A
C291   C292    1.472   .     S
C291   O350    1.288   .     A
C292   C296    1.413   .     A
C294   C307    1.395   .     A
C294   H343    1.084   .     S
C295   H317    1.111   .     S
C295   H316    1.112   .     S
C295   C297    1.530   .     S
C295   C465    1.545   1_455 S
C296   C306    1.422   .     A
C296   C304    1.530   .     S
C297   H315    1.110   .     S
C297   H495    1.111   1_455 S
C297   H496    1.110   1_455 S
C298   H321    1.112   .     S
C298   C299    1.534   .     S
C298   H322    1.111   .     S
C298   C375    1.538   .     S
C299   H320    1.111   .     S
C299   H409    1.111   .     S
C299   H410    1.109   .     S
C300   O351    1.413   .     S
C300   H324    1.113   .     S
C300   H325    1.115   .     S
C300   C301    1.521   .     S
C301   H328    1.110   .     S
C301   H327    1.110   .     S
C301   H326    1.111   .     S
C302   O352    1.418   .     S
C302   H330    1.117   .     S
C302   H329    1.111   .     S
C302   C485    1.524   1_455 S
C303   H333    1.110   .     S
C303   H332    1.110   .     S
C303   H331    1.111   .     S
C303   C393    1.524   .     S
C304   H339    1.108   .     S
C304   C305    1.530   .     S
C304   H338    1.109   .     S
C305   H337    1.111   .     S
C305   H336    1.111   .     S
C305   H335    1.109   .     S
C306   C307    1.416   .     A
C306   C308    1.423   .     A
C307   C1130   1.394   .     S
C308   C1128   1.421   .     S
C309   C310    1.411   .     A
C309   C1127   1.421   1_554 S
C310   C311    1.387   .     A
C310   H344    1.078   .     S
C311   H312    1.084   .     S
C311   C1126   1.394   1_554 S
H313   C388    1.111   .     S
H314   C388    1.110   .     S
H318   C481    1.111   1_455 S
H319   C481    1.109   1_455 S
H340   C560    1.086   .     S
O346   Zn363   1.926   .     S
O346   Zn364   1.928   .     S
O346   Zn361   1.966   .     S
O346   Zn362   1.952   .     S
O347   Zn362   1.919   .     S
O348   Zn364   1.936   .     S
O349   Zn363   1.932   .     S
O350   Zn361   1.916   .     S
O353   Zn361   1.926   .     S
O354   Zn364   1.926   .     S
O355   Zn362   1.938   .     S
O356   Zn363   1.954   .     S
O357   Zn364   1.949   .     S
O358   Zn361   1.934   .     S
O359   Zn362   1.933   .     S
O360   Zn363   1.928   .     S
C365   C375    1.440   .     S
C365   O448    1.261   .     A
C365   O446    1.269   .     A
C366   C399    1.410   .     A
C366   H436    1.081   .     S
C366   C367    1.387   .     A
C367   H433    1.084   .     S
C367   C1188   1.394   .     S
C368   O449    1.275   .     A
C368   C374    1.481   .     S
C368   O447    1.288   .     A
C369   C371    1.401   .     A
C369   C370    1.422   .     A
C369   C1186   1.394   1_554 S
C370   C373    1.420   .     A
C370   C400    1.423   .     A
C371   C372    1.389   .     A
C371   H414    1.084   .     S
C372   C384    1.395   .     A
C372   H432    1.084   .     S
C373   C384    1.400   .     A
C373   O442    1.385   .     S
C374   C466    1.375   .     S
C374   C477    1.545   .     S
C376   O443    1.388   .     S
C376   C385    1.399   .     A
C376   C383    1.413   .     A
C377   C380    1.450   .     S
C377   C651    1.331   .     S
C377   H698    1.088   .     S
C378   C379    1.434   .     S
C379   O444    1.282   .     A
C379   O450    1.282   .     A
C380   O451    1.267   .     A
C380   O445    1.268   .     A
C381   C384    1.452   .     S
C381   O440    1.274   .     A
C381   O438    1.277   .     A
C382   O439    1.280   .     A
C382   C383    1.472   .     S
C382   O441    1.288   .     A
C383   C387    1.413   .     A
C385   C398    1.395   .     A
C385   H434    1.084   .     S
C386   H408    1.111   .     S
C386   H407    1.112   .     S
C386   C388    1.530   .     S
C387   C397    1.422   .     A
C387   C395    1.530   .     S
C388   H406    1.110   .     S
C389   H412    1.112   .     S
C389   C390    1.534   .     S
C389   H413    1.111   .     S
C389   C466    1.538   .     S
C390   H411    1.111   .     S
C390   H500    1.111   .     S
C390   H501    1.109   .     S
C391   O442    1.413   .     S
C391   H415    1.113   .     S
C391   H416    1.115   .     S
C391   C392    1.521   .     S
C392   H419    1.110   .     S
C392   H418    1.110   .     S
C392   H417    1.111   .     S
C393   O443    1.418   .     S
C393   H421    1.117   .     S
C393   H420    1.111   .     S
C394   H424    1.110   .     S
C394   H423    1.110   .     S
C394   H422    1.111   .     S
C394   C484    1.524   .     S
C395   H430    1.108   .     S
C395   C396    1.530   .     S
C395   H429    1.109   .     S
C396   H428    1.111   .     S
C396   H427    1.111   .     S
C396   H426    1.109   .     S
C397   C398    1.416   .     A
C397   C399    1.423   .     A
C398   C1221   1.394   .     S
C399   C1219   1.421   .     S
C400   C401    1.411   .     A
C400   C1218   1.421   1_554 S
C401   C402    1.387   .     A
C401   H435    1.078   .     S
C402   H403    1.084   .     S
C402   C1217   1.394   1_554 S
H404   C479    1.111   .     S
H405   C479    1.110   .     S
H431   C651    1.086   .     S
O437   Zn454   1.926   .     S
O437   Zn455   1.928   .     S
O437   Zn452   1.966   .     S
O437   Zn453   1.952   .     S
O438   Zn453   1.919   .     S
O439   Zn455   1.936   .     S
O440   Zn454   1.932   .     S
O441   Zn452   1.916   .     S
O444   Zn452   1.926   .     S
O445   Zn455   1.926   .     S
O446   Zn453   1.938   .     S
O447   Zn454   1.954   .     S
O448   Zn455   1.949   .     S
O449   Zn452   1.934   .     S
O450   Zn453   1.933   .     S
O451   Zn454   1.928   .     S
C456   C466    1.440   .     S
C456   O539    1.261   .     A
C456   O537    1.269   .     A
C457   C490    1.410   .     A
C457   H527    1.081   .     S
C457   C458    1.387   .     A
C458   H524    1.084   .     S
C458   C1279   1.394   .     S
C459   O540    1.275   .     A
C459   C465    1.481   .     S
C459   O538    1.288   .     A
C460   C462    1.401   .     A
C460   C461    1.422   .     A
C460   C1277   1.394   1_554 S
C461   C464    1.420   .     A
C461   C491    1.423   .     A
C462   C463    1.389   .     A
C462   H505    1.084   .     S
C463   C475    1.395   .     A
C463   H523    1.084   .     S
C464   C475    1.400   .     A
C464   O533    1.385   .     S
C465   C284    1.375   1_655 S
C465   C295    1.545   1_655 S
C467   O534    1.388   .     S
C467   C476    1.399   .     A
C467   C474    1.413   .     A
C468   C471    1.450   .     S
C468   C742    1.331   .     S
C468   H789    1.088   .     S
C469   C470    1.434   .     S
C470   O535    1.282   .     A
C470   O541    1.282   .     A
C471   O542    1.267   .     A
C471   O536    1.268   .     A
C472   C475    1.452   .     S
C472   O531    1.274   .     A
C472   O529    1.277   .     A
C473   O530    1.280   .     A
C473   C474    1.472   .     S
C473   O532    1.288   .     A
C474   C478    1.413   .     A
C476   C489    1.395   .     A
C476   H525    1.084   .     S
C477   H499    1.111   .     S
C477   H498    1.112   .     S
C477   C479    1.530   .     S
C478   C488    1.422   .     A
C478   C486    1.530   .     S
C479   H497    1.110   .     S
C480   H503    1.112   .     S
C480   C481    1.534   .     S
C480   H504    1.111   .     S
C480   C284    1.538   1_655 S
C481   H502    1.111   .     S
C481   H318    1.111   1_655 S
C481   H319    1.109   1_655 S
C482   O533    1.413   .     S
C482   H506    1.113   .     S
C482   H507    1.115   .     S
C482   C483    1.521   .     S
C483   H510    1.110   .     S
C483   H509    1.110   .     S
C483   H508    1.111   .     S
C484   O534    1.418   .     S
C484   H512    1.117   .     S
C484   H511    1.111   .     S
C485   H515    1.110   .     S
C485   H514    1.110   .     S
C485   H513    1.111   .     S
C485   C302    1.524   1_655 S
C486   H521    1.108   .     S
C486   C487    1.530   .     S
C486   H520    1.109   .     S
C487   H519    1.111   .     S
C487   H518    1.111   .     S
C487   H517    1.109   .     S
C488   C489    1.416   .     A
C488   C490    1.423   .     A
C489   C1312   1.394   .     S
C490   C1310   1.421   .     S
C491   C492    1.411   .     A
C491   C1309   1.421   1_554 S
C492   C493    1.387   .     A
C492   H526    1.078   .     S
C493   H494    1.084   .     S
C493   C1308   1.394   1_554 S
H495   C297    1.111   1_655 S
H496   C297    1.110   1_655 S
H522   C742    1.086   .     S
O528   Zn545   1.926   .     S
O528   Zn546   1.928   .     S
O528   Zn543   1.966   .     S
O528   Zn544   1.952   .     S
O529   Zn544   1.919   .     S
O530   Zn546   1.936   .     S
O531   Zn545   1.932   .     S
O532   Zn543   1.916   .     S
O535   Zn543   1.926   .     S
O536   Zn546   1.926   .     S
O537   Zn544   1.938   .     S
O538   Zn545   1.954   .     S
O539   Zn546   1.949   .     S
O540   Zn543   1.934   .     S
O541   Zn544   1.933   .     S
O542   Zn545   1.928   .     S
C547   C557    1.440   .     S
C547   O630    1.261   .     A
C547   O628    1.269   .     A
C548   C581    1.410   .     A
C548   H618    1.081   .     S
C548   C549    1.387   .     A
C549   H615    1.084   .     S
C549   C1370   1.394   .     S
C550   O631    1.275   .     A
C550   C556    1.481   .     S
C550   O629    1.288   .     A
C551   C553    1.401   .     A
C551   C552    1.422   .     A
C551   C1368   1.394   1_554 S
C552   C555    1.420   .     A
C552   C582    1.423   .     A
C553   C554    1.389   .     A
C553   H596    1.084   .     S
C554   C566    1.395   .     A
C554   H614    1.084   .     S
C555   C566    1.400   .     A
C555   O624    1.385   .     S
C556   C648    1.375   .     S
C556   C659    1.545   .     S
C557   C738    1.375   1_455 S
C557   C753    1.538   1_455 S
C558   O625    1.388   .     S
C558   C567    1.399   .     A
C558   C565    1.413   .     A
C559   C562    1.450   .     S
C559   C14     1.331   1_565 S
C559   H61     1.088   1_565 S
C560   C561    1.434   .     S
C561   O626    1.282   .     A
C561   O632    1.282   .     A
C562   O633    1.267   .     A
C562   O627    1.268   .     A
C563   C566    1.452   .     S
C563   O622    1.274   .     A
C563   O620    1.277   .     A
C564   O621    1.280   .     A
C564   C565    1.472   .     S
C564   O623    1.288   .     A
C565   C569    1.413   .     A
C567   C580    1.395   .     A
C567   H616    1.084   .     S
C568   H590    1.111   .     S
C568   H589    1.112   .     S
C568   C570    1.530   .     S
C568   C738    1.545   1_455 S
C569   C579    1.422   .     A
C569   C577    1.530   .     S
C570   H588    1.110   .     S
C570   H768    1.111   1_455 S
C570   H769    1.110   1_455 S
C571   H594    1.112   .     S
C571   C572    1.534   .     S
C571   H595    1.111   .     S
C571   C648    1.538   .     S
C572   H593    1.111   .     S
C572   H682    1.111   .     S
C572   H683    1.109   .     S
C573   O624    1.413   .     S
C573   H597    1.113   .     S
C573   H598    1.115   .     S
C573   C574    1.521   .     S
C574   H601    1.110   .     S
C574   H600    1.110   .     S
C574   H599    1.111   .     S
C575   O625    1.418   .     S
C575   H603    1.117   .     S
C575   H602    1.111   .     S
C575   C758    1.524   1_455 S
C576   H606    1.110   .     S
C576   H605    1.110   .     S
C576   H604    1.111   .     S
C576   C666    1.524   .     S
C577   H612    1.108   .     S
C577   C578    1.530   .     S
C577   H611    1.109   .     S
C578   H610    1.111   .     S
C578   H609    1.111   .     S
C578   H608    1.109   .     S
C579   C580    1.416   .     A
C579   C581    1.423   .     A
C580   C1403   1.394   .     S
C581   C1401   1.421   .     S
C582   C583    1.411   .     A
C582   C1400   1.421   1_554 S
C583   C584    1.387   .     A
C583   H617    1.078   .     S
C584   H585    1.084   .     S
C584   C1399   1.394   1_554 S
H586   C661    1.111   .     S
H587   C661    1.110   .     S
H591   C754    1.111   1_455 S
H592   C754    1.109   1_455 S
H613   C14     1.086   1_565 S
O619   Zn636   1.926   .     S
O619   Zn637   1.928   .     S
O619   Zn634   1.966   .     S
O619   Zn635   1.952   .     S
O620   Zn635   1.919   .     S
O621   Zn637   1.936   .     S
O622   Zn636   1.932   .     S
O623   Zn634   1.916   .     S
O626   Zn634   1.926   .     S
O627   Zn637   1.926   .     S
O628   Zn635   1.938   .     S
O629   Zn636   1.954   .     S
O630   Zn637   1.949   .     S
O631   Zn634   1.934   .     S
O632   Zn635   1.933   .     S
O633   Zn636   1.928   .     S
C638   C648    1.440   .     S
C638   O721    1.261   .     A
C638   O719    1.269   .     A
C639   C672    1.410   .     A
C639   H709    1.081   .     S
C639   C640    1.387   .     A
C640   H706    1.084   .     S
C640   C1461   1.394   .     S
C641   O722    1.275   .     A
C641   C647    1.481   .     S
C641   O720    1.288   .     A
C642   C644    1.401   .     A
C642   C643    1.422   .     A
C642   C1459   1.394   1_554 S
C643   C646    1.420   .     A
C643   C673    1.423   .     A
C644   C645    1.389   .     A
C644   H687    1.084   .     S
C645   C657    1.395   .     A
C645   H705    1.084   .     S
C646   C657    1.400   .     A
C646   O715    1.385   .     S
C647   C739    1.375   .     S
C647   C750    1.545   .     S
C649   O716    1.388   .     S
C649   C658    1.399   .     A
C649   C656    1.413   .     A
C650   C653    1.450   .     S
C650   C105    1.331   1_565 S
C650   H152    1.088   1_565 S
C651   C652    1.434   .     S
C652   O717    1.282   .     A
C652   O723    1.282   .     A
C653   O724    1.267   .     A
C653   O718    1.268   .     A
C654   C657    1.452   .     S
C654   O713    1.274   .     A
C654   O711    1.277   .     A
C655   O712    1.280   .     A
C655   C656    1.472   .     S
C655   O714    1.288   .     A
C656   C660    1.413   .     A
C658   C671    1.395   .     A
C658   H707    1.084   .     S
C659   H681    1.111   .     S
C659   H680    1.112   .     S
C659   C661    1.530   .     S
C660   C670    1.422   .     A
C660   C668    1.530   .     S
C661   H679    1.110   .     S
C662   H685    1.112   .     S
C662   C663    1.534   .     S
C662   H686    1.111   .     S
C662   C739    1.538   .     S
C663   H684    1.111   .     S
C663   H773    1.111   .     S
C663   H774    1.109   .     S
C664   O715    1.413   .     S
C664   H688    1.113   .     S
C664   H689    1.115   .     S
C664   C665    1.521   .     S
C665   H692    1.110   .     S
C665   H691    1.110   .     S
C665   H690    1.111   .     S
C666   O716    1.418   .     S
C666   H694    1.117   .     S
C666   H693    1.111   .     S
C667   H697    1.110   .     S
C667   H696    1.110   .     S
C667   H695    1.111   .     S
C667   C757    1.524   .     S
C668   H703    1.108   .     S
C668   C669    1.530   .     S
C668   H702    1.109   .     S
C669   H701    1.111   .     S
C669   H700    1.111   .     S
C669   H699    1.109   .     S
C670   C671    1.416   .     A
C670   C672    1.423   .     A
C671   C1494   1.394   .     S
C672   C1492   1.421   .     S
C673   C674    1.411   .     A
C673   C1491   1.421   1_554 S
C674   C675    1.387   .     A
C674   H708    1.078   .     S
C675   H676    1.084   .     S
C675   C1490   1.394   1_554 S
H677   C752    1.111   .     S
H678   C752    1.110   .     S
H704   C105    1.086   1_565 S
O710   Zn727   1.926   .     S
O710   Zn728   1.928   .     S
O710   Zn725   1.966   .     S
O710   Zn726   1.952   .     S
O711   Zn726   1.919   .     S
O712   Zn728   1.936   .     S
O713   Zn727   1.932   .     S
O714   Zn725   1.916   .     S
O717   Zn725   1.926   .     S
O718   Zn728   1.926   .     S
O719   Zn726   1.938   .     S
O720   Zn727   1.954   .     S
O721   Zn728   1.949   .     S
O722   Zn725   1.934   .     S
O723   Zn726   1.933   .     S
O724   Zn727   1.928   .     S
C729   C739    1.440   .     S
C729   O812    1.261   .     A
C729   O810    1.269   .     A
C730   C763    1.410   .     A
C730   H800    1.081   .     S
C730   C731    1.387   .     A
C731   H797    1.084   .     S
C731   C1552   1.394   .     S
C732   O813    1.275   .     A
C732   C738    1.481   .     S
C732   O811    1.288   .     A
C733   C735    1.401   .     A
C733   C734    1.422   .     A
C733   C1550   1.394   1_554 S
C734   C737    1.420   .     A
C734   C764    1.423   .     A
C735   C736    1.389   .     A
C735   H778    1.084   .     S
C736   C748    1.395   .     A
C736   H796    1.084   .     S
C737   C748    1.400   .     A
C737   O806    1.385   .     S
C738   C557    1.375   1_655 S
C738   C568    1.545   1_655 S
C740   O807    1.388   .     S
C740   C749    1.399   .     A
C740   C747    1.413   .     A
C741   C744    1.450   .     S
C741   C196    1.331   1_565 S
C741   H243    1.088   1_565 S
C742   C743    1.434   .     S
C743   O808    1.282   .     A
C743   O814    1.282   .     A
C744   O815    1.267   .     A
C744   O809    1.268   .     A
C745   C748    1.452   .     S
C745   O804    1.274   .     A
C745   O802    1.277   .     A
C746   O803    1.280   .     A
C746   C747    1.472   .     S
C746   O805    1.288   .     A
C747   C751    1.413   .     A
C749   C762    1.395   .     A
C749   H798    1.084   .     S
C750   H772    1.111   .     S
C750   H771    1.112   .     S
C750   C752    1.530   .     S
C751   C761    1.422   .     A
C751   C759    1.530   .     S
C752   H770    1.110   .     S
C753   H776    1.112   .     S
C753   C754    1.534   .     S
C753   H777    1.111   .     S
C753   C557    1.538   1_655 S
C754   H775    1.111   .     S
C754   H591    1.111   1_655 S
C754   H592    1.109   1_655 S
C755   O806    1.413   .     S
C755   H779    1.113   .     S
C755   H780    1.115   .     S
C755   C756    1.521   .     S
C756   H783    1.110   .     S
C756   H782    1.110   .     S
C756   H781    1.111   .     S
C757   O807    1.418   .     S
C757   H785    1.117   .     S
C757   H784    1.111   .     S
C758   H788    1.110   .     S
C758   H787    1.110   .     S
C758   H786    1.111   .     S
C758   C575    1.524   1_655 S
C759   H794    1.108   .     S
C759   C760    1.530   .     S
C759   H793    1.109   .     S
C760   H792    1.111   .     S
C760   H791    1.111   .     S
C760   H790    1.109   .     S
C761   C762    1.416   .     A
C761   C763    1.423   .     A
C762   C1585   1.394   .     S
C763   C1583   1.421   .     S
C764   C765    1.411   .     A
C764   C1582   1.421   1_554 S
C765   C766    1.387   .     A
C765   H799    1.078   .     S
C766   H767    1.084   .     S
C766   C1581   1.394   1_554 S
H768   C570    1.111   1_655 S
H769   C570    1.110   1_655 S
H795   C196    1.086   1_565 S
O801   Zn818   1.926   .     S
O801   Zn819   1.928   .     S
O801   Zn816   1.966   .     S
O801   Zn817   1.952   .     S
O802   Zn817   1.919   .     S
O803   Zn819   1.936   .     S
O804   Zn818   1.932   .     S
O805   Zn816   1.916   .     S
O808   Zn816   1.926   .     S
O809   Zn819   1.926   .     S
O810   Zn817   1.938   .     S
O811   Zn818   1.954   .     S
O812   Zn819   1.949   .     S
O813   Zn816   1.934   .     S
O814   Zn817   1.933   .     S
O815   Zn818   1.928   .     S
C820   C830    1.440   .     S
C820   O903    1.261   .     A
C820   O901    1.269   .     A
C821   C854    1.410   .     A
C821   H891    1.081   .     S
C821   C822    1.387   .     A
C822   H888    1.084   .     S
C822   C5      1.394   1_556 S
C823   O904    1.275   .     A
C823   C829    1.481   .     S
C823   O902    1.288   .     A
C824   C826    1.401   .     A
C824   C825    1.422   .     A
C825   C828    1.420   .     A
C825   C855    1.423   .     A
C826   C827    1.389   .     A
C826   H869    1.084   .     S
C827   C839    1.395   .     A
C827   H887    1.084   .     S
C828   C839    1.400   .     A
C828   O897    1.385   .     S
C829   C921    1.375   .     S
C829   C932    1.545   .     S
C830   C1011   1.375   1_455 S
C830   C1026   1.538   1_455 S
C831   O898    1.388   .     S
C831   C840    1.399   .     A
C831   C838    1.413   .     A
C832   C835    1.450   .     S
C832   C1106   1.331   .     S
C832   H1153   1.088   .     S
C833   C834    1.434   .     S
C833   C1378   1.331   1_545 S
C833   H1432   1.086   1_545 S
C834   O899    1.282   .     A
C834   O905    1.282   .     A
C835   O906    1.267   .     A
C835   O900    1.268   .     A
C836   C839    1.452   .     S
C836   O895    1.274   .     A
C836   O893    1.277   .     A
C837   O894    1.280   .     A
C837   C838    1.472   .     S
C837   O896    1.288   .     A
C838   C842    1.413   .     A
C840   C853    1.395   .     A
C840   H889    1.084   .     S
C841   H863    1.111   .     S
C841   H862    1.112   .     S
C841   C843    1.530   .     S
C841   C1011   1.545   1_455 S
C842   C852    1.422   .     A
C842   C850    1.530   .     S
C843   H861    1.110   .     S
C843   H1041   1.111   1_455 S
C843   H1042   1.110   1_455 S
C844   H867    1.112   .     S
C844   C845    1.534   .     S
C844   H868    1.111   .     S
C844   C921    1.538   .     S
C845   H866    1.111   .     S
C845   H955    1.111   .     S
C845   H956    1.109   .     S
C846   O897    1.413   .     S
C846   H870    1.113   .     S
C846   H871    1.115   .     S
C846   C847    1.521   .     S
C847   H874    1.110   .     S
C847   H873    1.110   .     S
C847   H872    1.111   .     S
C848   O898    1.418   .     S
C848   H876    1.117   .     S
C848   H875    1.111   .     S
C848   C1031   1.524   1_455 S
C849   H879    1.110   .     S
C849   H878    1.110   .     S
C849   H877    1.111   .     S
C849   C939    1.524   .     S
C850   H885    1.108   .     S
C850   C851    1.530   .     S
C850   H884    1.109   .     S
C851   H883    1.111   .     S
C851   H882    1.111   .     S
C851   H881    1.109   .     S
C852   C853    1.416   .     A
C852   C854    1.423   .     A
C853   C38     1.394   1_556 S
C854   C36     1.421   1_556 S
C855   C856    1.411   .     A
C856   C857    1.387   .     A
C856   H890    1.078   .     S
C857   H858    1.084   .     S
H859   C934    1.111   .     S
H860   C934    1.110   .     S
H864   C1027   1.111   1_455 S
H865   C1027   1.109   1_455 S
H880   C1378   1.088   1_545 S
H886   C1106   1.086   .     S
O892   Zn909   1.926   .     S
O892   Zn910   1.928   .     S
O892   Zn907   1.966   .     S
O892   Zn908   1.952   .     S
O893   Zn908   1.919   .     S
O894   Zn910   1.936   .     S
O895   Zn909   1.932   .     S
O896   Zn907   1.916   .     S
O899   Zn907   1.926   .     S
O900   Zn910   1.926   .     S
O901   Zn908   1.938   .     S
O902   Zn909   1.954   .     S
O903   Zn910   1.949   .     S
O904   Zn907   1.934   .     S
O905   Zn908   1.933   .     S
O906   Zn909   1.928   .     S
C911   C921    1.440   .     S
C911   O994    1.261   .     A
C911   O992    1.269   .     A
C912   C945    1.410   .     A
C912   H982    1.081   .     S
C912   C913    1.387   .     A
C913   H979    1.084   .     S
C913   C96     1.394   1_556 S
C914   O995    1.275   .     A
C914   C920    1.481   .     S
C914   O993    1.288   .     A
C915   C917    1.401   .     A
C915   C916    1.422   .     A
C916   C919    1.420   .     A
C916   C946    1.423   .     A
C917   C918    1.389   .     A
C917   H960    1.084   .     S
C918   C930    1.395   .     A
C918   H978    1.084   .     S
C919   C930    1.400   .     A
C919   O988    1.385   .     S
C920   C1012   1.375   .     S
C920   C1023   1.545   .     S
C922   O989    1.388   .     S
C922   C931    1.399   .     A
C922   C929    1.413   .     A
C923   C926    1.450   .     S
C923   C1197   1.331   .     S
C923   H1244   1.088   .     S
C924   C925    1.434   .     S
C924   C1469   1.331   1_545 S
C924   H1523   1.086   1_545 S
C925   O990    1.282   .     A
C925   O996    1.282   .     A
C926   O997    1.267   .     A
C926   O991    1.268   .     A
C927   C930    1.452   .     S
C927   O986    1.274   .     A
C927   O984    1.277   .     A
C928   O985    1.280   .     A
C928   C929    1.472   .     S
C928   O987    1.288   .     A
C929   C933    1.413   .     A
C931   C944    1.395   .     A
C931   H980    1.084   .     S
C932   H954    1.111   .     S
C932   H953    1.112   .     S
C932   C934    1.530   .     S
C933   C943    1.422   .     A
C933   C941    1.530   .     S
C934   H952    1.110   .     S
C935   H958    1.112   .     S
C935   C936    1.534   .     S
C935   H959    1.111   .     S
C935   C1012   1.538   .     S
C936   H957    1.111   .     S
C936   H1046   1.111   .     S
C936   H1047   1.109   .     S
C937   O988    1.413   .     S
C937   H961    1.113   .     S
C937   H962    1.115   .     S
C937   C938    1.521   .     S
C938   H965    1.110   .     S
C938   H964    1.110   .     S
C938   H963    1.111   .     S
C939   O989    1.418   .     S
C939   H967    1.117   .     S
C939   H966    1.111   .     S
C940   H970    1.110   .     S
C940   H969    1.110   .     S
C940   H968    1.111   .     S
C940   C1030   1.524   .     S
C941   H976    1.108   .     S
C941   C942    1.530   .     S
C941   H975    1.109   .     S
C942   H974    1.111   .     S
C942   H973    1.111   .     S
C942   H972    1.109   .     S
C943   C944    1.416   .     A
C943   C945    1.423   .     A
C944   C129    1.394   1_556 S
C945   C127    1.421   1_556 S
C946   C947    1.411   .     A
C947   C948    1.387   .     A
C947   H981    1.078   .     S
C948   H949    1.084   .     S
H950   C1025   1.111   .     S
H951   C1025   1.110   .     S
H971   C1469   1.088   1_545 S
H977   C1197   1.086   .     S
O983   Zn1000  1.926   .     S
O983   Zn1001  1.928   .     S
O983   Zn998   1.966   .     S
O983   Zn999   1.952   .     S
O984   Zn999   1.919   .     S
O985   Zn1001  1.936   .     S
O986   Zn1000  1.932   .     S
O987   Zn998   1.916   .     S
O990   Zn998   1.926   .     S
O991   Zn1001  1.926   .     S
O992   Zn999   1.938   .     S
O993   Zn1000  1.954   .     S
O994   Zn1001  1.949   .     S
O995   Zn998   1.934   .     S
O996   Zn999   1.933   .     S
O997   Zn1000  1.928   .     S
C1002  C1012   1.440   .     S
C1002  O1085   1.261   .     A
C1002  O1083   1.269   .     A
C1003  C1036   1.410   .     A
C1003  H1073   1.081   .     S
C1003  C1004   1.387   .     A
C1004  H1070   1.084   .     S
C1004  C187    1.394   1_556 S
C1005  O1086   1.275   .     A
C1005  C1011   1.481   .     S
C1005  O1084   1.288   .     A
C1006  C1008   1.401   .     A
C1006  C1007   1.422   .     A
C1007  C1010   1.420   .     A
C1007  C1037   1.423   .     A
C1008  C1009   1.389   .     A
C1008  H1051   1.084   .     S
C1009  C1021   1.395   .     A
C1009  H1069   1.084   .     S
C1010  C1021   1.400   .     A
C1010  O1079   1.385   .     S
C1011  C830    1.375   1_655 S
C1011  C841    1.545   1_655 S
C1013  O1080   1.388   .     S
C1013  C1022   1.399   .     A
C1013  C1020   1.413   .     A
C1014  C1017   1.450   .     S
C1014  C1288   1.331   .     S
C1014  H1335   1.088   .     S
C1015  C1016   1.434   .     S
C1015  C1560   1.331   1_545 S
C1015  H1614   1.086   1_545 S
C1016  O1081   1.282   .     A
C1016  O1087   1.282   .     A
C1017  O1088   1.267   .     A
C1017  O1082   1.268   .     A
C1018  C1021   1.452   .     S
C1018  O1077   1.274   .     A
C1018  O1075   1.277   .     A
C1019  O1076   1.280   .     A
C1019  C1020   1.472   .     S
C1019  O1078   1.288   .     A
C1020  C1024   1.413   .     A
C1022  C1035   1.395   .     A
C1022  H1071   1.084   .     S
C1023  H1045   1.111   .     S
C1023  H1044   1.112   .     S
C1023  C1025   1.530   .     S
C1024  C1034   1.422   .     A
C1024  C1032   1.530   .     S
C1025  H1043   1.110   .     S
C1026  H1049   1.112   .     S
C1026  C1027   1.534   .     S
C1026  H1050   1.111   .     S
C1026  C830    1.538   1_655 S
C1027  H1048   1.111   .     S
C1027  H864    1.111   1_655 S
C1027  H865    1.109   1_655 S
C1028  O1079   1.413   .     S
C1028  H1052   1.113   .     S
C1028  H1053   1.115   .     S
C1028  C1029   1.521   .     S
C1029  H1056   1.110   .     S
C1029  H1055   1.110   .     S
C1029  H1054   1.111   .     S
C1030  O1080   1.418   .     S
C1030  H1058   1.117   .     S
C1030  H1057   1.111   .     S
C1031  H1061   1.110   .     S
C1031  H1060   1.110   .     S
C1031  H1059   1.111   .     S
C1031  C848    1.524   1_655 S
C1032  H1067   1.108   .     S
C1032  C1033   1.530   .     S
C1032  H1066   1.109   .     S
C1033  H1065   1.111   .     S
C1033  H1064   1.111   .     S
C1033  H1063   1.109   .     S
C1034  C1035   1.416   .     A
C1034  C1036   1.423   .     A
C1035  C220    1.394   1_556 S
C1036  C218    1.421   1_556 S
C1037  C1038   1.411   .     A
C1038  C1039   1.387   .     A
C1038  H1072   1.078   .     S
C1039  H1040   1.084   .     S
H1041  C843    1.111   1_655 S
H1042  C843    1.110   1_655 S
H1062  C1560   1.088   1_545 S
H1068  C1288   1.086   .     S
O1074  Zn1091  1.926   .     S
O1074  Zn1092  1.928   .     S
O1074  Zn1089  1.966   .     S
O1074  Zn1090  1.952   .     S
O1075  Zn1090  1.919   .     S
O1076  Zn1092  1.936   .     S
O1077  Zn1091  1.932   .     S
O1078  Zn1089  1.916   .     S
O1081  Zn1089  1.926   .     S
O1082  Zn1092  1.926   .     S
O1083  Zn1090  1.938   .     S
O1084  Zn1091  1.954   .     S
O1085  Zn1092  1.949   .     S
O1086  Zn1089  1.934   .     S
O1087  Zn1090  1.933   .     S
O1088  Zn1091  1.928   .     S
C1093  C1103   1.440   .     S
C1093  O1176   1.261   .     A
C1093  O1174   1.269   .     A
C1094  C1127   1.410   .     A
C1094  H1164   1.081   .     S
C1094  C1095   1.387   .     A
C1095  H1161   1.084   .     S
C1095  C278    1.394   1_556 S
C1096  O1177   1.275   .     A
C1096  C1102   1.481   .     S
C1096  O1175   1.288   .     A
C1097  C1099   1.401   .     A
C1097  C1098   1.422   .     A
C1098  C1101   1.420   .     A
C1098  C1128   1.423   .     A
C1099  C1100   1.389   .     A
C1099  H1142   1.084   .     S
C1100  C1112   1.395   .     A
C1100  H1160   1.084   .     S
C1101  C1112   1.400   .     A
C1101  O1170   1.385   .     S
C1102  C1194   1.375   .     S
C1102  C1205   1.545   .     S
C1103  C1284   1.375   1_455 S
C1103  C1299   1.538   1_455 S
C1104  O1171   1.388   .     S
C1104  C1113   1.399   .     A
C1104  C1111   1.413   .     A
C1105  C1108   1.450   .     S
C1105  C1379   1.331   .     S
C1105  H1426   1.088   .     S
C1106  C1107   1.434   .     S
C1107  O1172   1.282   .     A
C1107  O1178   1.282   .     A
C1108  O1179   1.267   .     A
C1108  O1173   1.268   .     A
C1109  C1112   1.452   .     S
C1109  O1168   1.274   .     A
C1109  O1166   1.277   .     A
C1110  O1167   1.280   .     A
C1110  C1111   1.472   .     S
C1110  O1169   1.288   .     A
C1111  C1115   1.413   .     A
C1113  C1126   1.395   .     A
C1113  H1162   1.084   .     S
C1114  H1136   1.111   .     S
C1114  H1135   1.112   .     S
C1114  C1116   1.530   .     S
C1114  C1284   1.545   1_455 S
C1115  C1125   1.422   .     A
C1115  C1123   1.530   .     S
C1116  H1134   1.110   .     S
C1116  H1314   1.111   1_455 S
C1116  H1315   1.110   1_455 S
C1117  H1140   1.112   .     S
C1117  C1118   1.534   .     S
C1117  H1141   1.111   .     S
C1117  C1194   1.538   .     S
C1118  H1139   1.111   .     S
C1118  H1228   1.111   .     S
C1118  H1229   1.109   .     S
C1119  O1170   1.413   .     S
C1119  H1143   1.113   .     S
C1119  H1144   1.115   .     S
C1119  C1120   1.521   .     S
C1120  H1147   1.110   .     S
C1120  H1146   1.110   .     S
C1120  H1145   1.111   .     S
C1121  O1171   1.418   .     S
C1121  H1149   1.117   .     S
C1121  H1148   1.111   .     S
C1121  C1304   1.524   1_455 S
C1122  H1152   1.110   .     S
C1122  H1151   1.110   .     S
C1122  H1150   1.111   .     S
C1122  C1212   1.524   .     S
C1123  H1158   1.108   .     S
C1123  C1124   1.530   .     S
C1123  H1157   1.109   .     S
C1124  H1156   1.111   .     S
C1124  H1155   1.111   .     S
C1124  H1154   1.109   .     S
C1125  C1126   1.416   .     A
C1125  C1127   1.423   .     A
C1126  C311    1.394   1_556 S
C1127  C309    1.421   1_556 S
C1128  C1129   1.411   .     A
C1129  C1130   1.387   .     A
C1129  H1163   1.078   .     S
C1130  H1131   1.084   .     S
H1132  C1207   1.111   .     S
H1133  C1207   1.110   .     S
H1137  C1300   1.111   1_455 S
H1138  C1300   1.109   1_455 S
H1159  C1379   1.086   .     S
O1165  Zn1182  1.926   .     S
O1165  Zn1183  1.928   .     S
O1165  Zn1180  1.966   .     S
O1165  Zn1181  1.952   .     S
O1166  Zn1181  1.919   .     S
O1167  Zn1183  1.936   .     S
O1168  Zn1182  1.932   .     S
O1169  Zn1180  1.916   .     S
O1172  Zn1180  1.926   .     S
O1173  Zn1183  1.926   .     S
O1174  Zn1181  1.938   .     S
O1175  Zn1182  1.954   .     S
O1176  Zn1183  1.949   .     S
O1177  Zn1180  1.934   .     S
O1178  Zn1181  1.933   .     S
O1179  Zn1182  1.928   .     S
C1184  C1194   1.440   .     S
C1184  O1267   1.261   .     A
C1184  O1265   1.269   .     A
C1185  C1218   1.410   .     A
C1185  H1255   1.081   .     S
C1185  C1186   1.387   .     A
C1186  H1252   1.084   .     S
C1186  C369    1.394   1_556 S
C1187  O1268   1.275   .     A
C1187  C1193   1.481   .     S
C1187  O1266   1.288   .     A
C1188  C1190   1.401   .     A
C1188  C1189   1.422   .     A
C1189  C1192   1.420   .     A
C1189  C1219   1.423   .     A
C1190  C1191   1.389   .     A
C1190  H1233   1.084   .     S
C1191  C1203   1.395   .     A
C1191  H1251   1.084   .     S
C1192  C1203   1.400   .     A
C1192  O1261   1.385   .     S
C1193  C1285   1.375   .     S
C1193  C1296   1.545   .     S
C1195  O1262   1.388   .     S
C1195  C1204   1.399   .     A
C1195  C1202   1.413   .     A
C1196  C1199   1.450   .     S
C1196  C1470   1.331   .     S
C1196  H1517   1.088   .     S
C1197  C1198   1.434   .     S
C1198  O1263   1.282   .     A
C1198  O1269   1.282   .     A
C1199  O1270   1.267   .     A
C1199  O1264   1.268   .     A
C1200  C1203   1.452   .     S
C1200  O1259   1.274   .     A
C1200  O1257   1.277   .     A
C1201  O1258   1.280   .     A
C1201  C1202   1.472   .     S
C1201  O1260   1.288   .     A
C1202  C1206   1.413   .     A
C1204  C1217   1.395   .     A
C1204  H1253   1.084   .     S
C1205  H1227   1.111   .     S
C1205  H1226   1.112   .     S
C1205  C1207   1.530   .     S
C1206  C1216   1.422   .     A
C1206  C1214   1.530   .     S
C1207  H1225   1.110   .     S
C1208  H1231   1.112   .     S
C1208  C1209   1.534   .     S
C1208  H1232   1.111   .     S
C1208  C1285   1.538   .     S
C1209  H1230   1.111   .     S
C1209  H1319   1.111   .     S
C1209  H1320   1.109   .     S
C1210  O1261   1.413   .     S
C1210  H1234   1.113   .     S
C1210  H1235   1.115   .     S
C1210  C1211   1.521   .     S
C1211  H1238   1.110   .     S
C1211  H1237   1.110   .     S
C1211  H1236   1.111   .     S
C1212  O1262   1.418   .     S
C1212  H1240   1.117   .     S
C1212  H1239   1.111   .     S
C1213  H1243   1.110   .     S
C1213  H1242   1.110   .     S
C1213  H1241   1.111   .     S
C1213  C1303   1.524   .     S
C1214  H1249   1.108   .     S
C1214  C1215   1.530   .     S
C1214  H1248   1.109   .     S
C1215  H1247   1.111   .     S
C1215  H1246   1.111   .     S
C1215  H1245   1.109   .     S
C1216  C1217   1.416   .     A
C1216  C1218   1.423   .     A
C1217  C402    1.394   1_556 S
C1218  C400    1.421   1_556 S
C1219  C1220   1.411   .     A
C1220  C1221   1.387   .     A
C1220  H1254   1.078   .     S
C1221  H1222   1.084   .     S
H1223  C1298   1.111   .     S
H1224  C1298   1.110   .     S
H1250  C1470   1.086   .     S
O1256  Zn1273  1.926   .     S
O1256  Zn1274  1.928   .     S
O1256  Zn1271  1.966   .     S
O1256  Zn1272  1.952   .     S
O1257  Zn1272  1.919   .     S
O1258  Zn1274  1.936   .     S
O1259  Zn1273  1.932   .     S
O1260  Zn1271  1.916   .     S
O1263  Zn1271  1.926   .     S
O1264  Zn1274  1.926   .     S
O1265  Zn1272  1.938   .     S
O1266  Zn1273  1.954   .     S
O1267  Zn1274  1.949   .     S
O1268  Zn1271  1.934   .     S
O1269  Zn1272  1.933   .     S
O1270  Zn1273  1.928   .     S
C1275  C1285   1.440   .     S
C1275  O1358   1.261   .     A
C1275  O1356   1.269   .     A
C1276  C1309   1.410   .     A
C1276  H1346   1.081   .     S
C1276  C1277   1.387   .     A
C1277  H1343   1.084   .     S
C1277  C460    1.394   1_556 S
C1278  O1359   1.275   .     A
C1278  C1284   1.481   .     S
C1278  O1357   1.288   .     A
C1279  C1281   1.401   .     A
C1279  C1280   1.422   .     A
C1280  C1283   1.420   .     A
C1280  C1310   1.423   .     A
C1281  C1282   1.389   .     A
C1281  H1324   1.084   .     S
C1282  C1294   1.395   .     A
C1282  H1342   1.084   .     S
C1283  C1294   1.400   .     A
C1283  O1352   1.385   .     S
C1284  C1103   1.375   1_655 S
C1284  C1114   1.545   1_655 S
C1286  O1353   1.388   .     S
C1286  C1295   1.399   .     A
C1286  C1293   1.413   .     A
C1287  C1290   1.450   .     S
C1287  C1561   1.331   .     S
C1287  H1608   1.088   .     S
C1288  C1289   1.434   .     S
C1289  O1354   1.282   .     A
C1289  O1360   1.282   .     A
C1290  O1361   1.267   .     A
C1290  O1355   1.268   .     A
C1291  C1294   1.452   .     S
C1291  O1350   1.274   .     A
C1291  O1348   1.277   .     A
C1292  O1349   1.280   .     A
C1292  C1293   1.472   .     S
C1292  O1351   1.288   .     A
C1293  C1297   1.413   .     A
C1295  C1308   1.395   .     A
C1295  H1344   1.084   .     S
C1296  H1318   1.111   .     S
C1296  H1317   1.112   .     S
C1296  C1298   1.530   .     S
C1297  C1307   1.422   .     A
C1297  C1305   1.530   .     S
C1298  H1316   1.110   .     S
C1299  H1322   1.112   .     S
C1299  C1300   1.534   .     S
C1299  H1323   1.111   .     S
C1299  C1103   1.538   1_655 S
C1300  H1321   1.111   .     S
C1300  H1137   1.111   1_655 S
C1300  H1138   1.109   1_655 S
C1301  O1352   1.413   .     S
C1301  H1325   1.113   .     S
C1301  H1326   1.115   .     S
C1301  C1302   1.521   .     S
C1302  H1329   1.110   .     S
C1302  H1328   1.110   .     S
C1302  H1327   1.111   .     S
C1303  O1353   1.418   .     S
C1303  H1331   1.117   .     S
C1303  H1330   1.111   .     S
C1304  H1334   1.110   .     S
C1304  H1333   1.110   .     S
C1304  H1332   1.111   .     S
C1304  C1121   1.524   1_655 S
C1305  H1340   1.108   .     S
C1305  C1306   1.530   .     S
C1305  H1339   1.109   .     S
C1306  H1338   1.111   .     S
C1306  H1337   1.111   .     S
C1306  H1336   1.109   .     S
C1307  C1308   1.416   .     A
C1307  C1309   1.423   .     A
C1308  C493    1.394   1_556 S
C1309  C491    1.421   1_556 S
C1310  C1311   1.411   .     A
C1311  C1312   1.387   .     A
C1311  H1345   1.078   .     S
C1312  H1313   1.084   .     S
H1314  C1116   1.111   1_655 S
H1315  C1116   1.110   1_655 S
H1341  C1561   1.086   .     S
O1347  Zn1364  1.926   .     S
O1347  Zn1365  1.928   .     S
O1347  Zn1362  1.966   .     S
O1347  Zn1363  1.952   .     S
O1348  Zn1363  1.919   .     S
O1349  Zn1365  1.936   .     S
O1350  Zn1364  1.932   .     S
O1351  Zn1362  1.916   .     S
O1354  Zn1362  1.926   .     S
O1355  Zn1365  1.926   .     S
O1356  Zn1363  1.938   .     S
O1357  Zn1364  1.954   .     S
O1358  Zn1365  1.949   .     S
O1359  Zn1362  1.934   .     S
O1360  Zn1363  1.933   .     S
O1361  Zn1364  1.928   .     S
C1366  C1376   1.440   .     S
C1366  O1449   1.261   .     A
C1366  O1447   1.269   .     A
C1367  C1400   1.410   .     A
C1367  H1437   1.081   .     S
C1367  C1368   1.387   .     A
C1368  H1434   1.084   .     S
C1368  C551    1.394   1_556 S
C1369  O1450   1.275   .     A
C1369  C1375   1.481   .     S
C1369  O1448   1.288   .     A
C1370  C1372   1.401   .     A
C1370  C1371   1.422   .     A
C1371  C1374   1.420   .     A
C1371  C1401   1.423   .     A
C1372  C1373   1.389   .     A
C1372  H1415   1.084   .     S
C1373  C1385   1.395   .     A
C1373  H1433   1.084   .     S
C1374  C1385   1.400   .     A
C1374  O1443   1.385   .     S
C1375  C1467   1.375   .     S
C1375  C1478   1.545   .     S
C1376  C1557   1.375   1_455 S
C1376  C1572   1.538   1_455 S
C1377  O1444   1.388   .     S
C1377  C1386   1.399   .     A
C1377  C1384   1.413   .     A
C1378  C1381   1.450   .     S
C1378  C833    1.331   1_565 S
C1378  H880    1.088   1_565 S
C1379  C1380   1.434   .     S
C1380  O1445   1.282   .     A
C1380  O1451   1.282   .     A
C1381  O1452   1.267   .     A
C1381  O1446   1.268   .     A
C1382  C1385   1.452   .     S
C1382  O1441   1.274   .     A
C1382  O1439   1.277   .     A
C1383  O1440   1.280   .     A
C1383  C1384   1.472   .     S
C1383  O1442   1.288   .     A
C1384  C1388   1.413   .     A
C1386  C1399   1.395   .     A
C1386  H1435   1.084   .     S
C1387  H1409   1.111   .     S
C1387  H1408   1.112   .     S
C1387  C1389   1.530   .     S
C1387  C1557   1.545   1_455 S
C1388  C1398   1.422   .     A
C1388  C1396   1.530   .     S
C1389  H1407   1.110   .     S
C1389  H1587   1.111   1_455 S
C1389  H1588   1.110   1_455 S
C1390  H1413   1.112   .     S
C1390  C1391   1.534   .     S
C1390  H1414   1.111   .     S
C1390  C1467   1.538   .     S
C1391  H1412   1.111   .     S
C1391  H1501   1.111   .     S
C1391  H1502   1.109   .     S
C1392  O1443   1.413   .     S
C1392  H1416   1.113   .     S
C1392  H1417   1.115   .     S
C1392  C1393   1.521   .     S
C1393  H1420   1.110   .     S
C1393  H1419   1.110   .     S
C1393  H1418   1.111   .     S
C1394  O1444   1.418   .     S
C1394  H1422   1.117   .     S
C1394  H1421   1.111   .     S
C1394  C1577   1.524   1_455 S
C1395  H1425   1.110   .     S
C1395  H1424   1.110   .     S
C1395  H1423   1.111   .     S
C1395  C1485   1.524   .     S
C1396  H1431   1.108   .     S
C1396  C1397   1.530   .     S
C1396  H1430   1.109   .     S
C1397  H1429   1.111   .     S
C1397  H1428   1.111   .     S
C1397  H1427   1.109   .     S
C1398  C1399   1.416   .     A
C1398  C1400   1.423   .     A
C1399  C584    1.394   1_556 S
C1400  C582    1.421   1_556 S
C1401  C1402   1.411   .     A
C1402  C1403   1.387   .     A
C1402  H1436   1.078   .     S
C1403  H1404   1.084   .     S
H1405  C1480   1.111   .     S
H1406  C1480   1.110   .     S
H1410  C1573   1.111   1_455 S
H1411  C1573   1.109   1_455 S
H1432  C833    1.086   1_565 S
O1438  Zn1455  1.926   .     S
O1438  Zn1456  1.928   .     S
O1438  Zn1453  1.966   .     S
O1438  Zn1454  1.952   .     S
O1439  Zn1454  1.919   .     S
O1440  Zn1456  1.936   .     S
O1441  Zn1455  1.932   .     S
O1442  Zn1453  1.916   .     S
O1445  Zn1453  1.926   .     S
O1446  Zn1456  1.926   .     S
O1447  Zn1454  1.938   .     S
O1448  Zn1455  1.954   .     S
O1449  Zn1456  1.949   .     S
O1450  Zn1453  1.934   .     S
O1451  Zn1454  1.933   .     S
O1452  Zn1455  1.928   .     S
C1457  C1467   1.440   .     S
C1457  O1540   1.261   .     A
C1457  O1538   1.269   .     A
C1458  C1491   1.410   .     A
C1458  H1528   1.081   .     S
C1458  C1459   1.387   .     A
C1459  H1525   1.084   .     S
C1459  C642    1.394   1_556 S
C1460  O1541   1.275   .     A
C1460  C1466   1.481   .     S
C1460  O1539   1.288   .     A
C1461  C1463   1.401   .     A
C1461  C1462   1.422   .     A
C1462  C1465   1.420   .     A
C1462  C1492   1.423   .     A
C1463  C1464   1.389   .     A
C1463  H1506   1.084   .     S
C1464  C1476   1.395   .     A
C1464  H1524   1.084   .     S
C1465  C1476   1.400   .     A
C1465  O1534   1.385   .     S
C1466  C1558   1.375   .     S
C1466  C1569   1.545   .     S
C1468  O1535   1.388   .     S
C1468  C1477   1.399   .     A
C1468  C1475   1.413   .     A
C1469  C1472   1.450   .     S
C1469  C924    1.331   1_565 S
C1469  H971    1.088   1_565 S
C1470  C1471   1.434   .     S
C1471  O1536   1.282   .     A
C1471  O1542   1.282   .     A
C1472  O1543   1.267   .     A
C1472  O1537   1.268   .     A
C1473  C1476   1.452   .     S
C1473  O1532   1.274   .     A
C1473  O1530   1.277   .     A
C1474  O1531   1.280   .     A
C1474  C1475   1.472   .     S
C1474  O1533   1.288   .     A
C1475  C1479   1.413   .     A
C1477  C1490   1.395   .     A
C1477  H1526   1.084   .     S
C1478  H1500   1.111   .     S
C1478  H1499   1.112   .     S
C1478  C1480   1.530   .     S
C1479  C1489   1.422   .     A
C1479  C1487   1.530   .     S
C1480  H1498   1.110   .     S
C1481  H1504   1.112   .     S
C1481  C1482   1.534   .     S
C1481  H1505   1.111   .     S
C1481  C1558   1.538   .     S
C1482  H1503   1.111   .     S
C1482  H1592   1.111   .     S
C1482  H1593   1.109   .     S
C1483  O1534   1.413   .     S
C1483  H1507   1.113   .     S
C1483  H1508   1.115   .     S
C1483  C1484   1.521   .     S
C1484  H1511   1.110   .     S
C1484  H1510   1.110   .     S
C1484  H1509   1.111   .     S
C1485  O1535   1.418   .     S
C1485  H1513   1.117   .     S
C1485  H1512   1.111   .     S
C1486  H1516   1.110   .     S
C1486  H1515   1.110   .     S
C1486  H1514   1.111   .     S
C1486  C1576   1.524   .     S
C1487  H1522   1.108   .     S
C1487  C1488   1.530   .     S
C1487  H1521   1.109   .     S
C1488  H1520   1.111   .     S
C1488  H1519   1.111   .     S
C1488  H1518   1.109   .     S
C1489  C1490   1.416   .     A
C1489  C1491   1.423   .     A
C1490  C675    1.394   1_556 S
C1491  C673    1.421   1_556 S
C1492  C1493   1.411   .     A
C1493  C1494   1.387   .     A
C1493  H1527   1.078   .     S
C1494  H1495   1.084   .     S
H1496  C1571   1.111   .     S
H1497  C1571   1.110   .     S
H1523  C924    1.086   1_565 S
O1529  Zn1546  1.926   .     S
O1529  Zn1547  1.928   .     S
O1529  Zn1544  1.966   .     S
O1529  Zn1545  1.952   .     S
O1530  Zn1545  1.919   .     S
O1531  Zn1547  1.936   .     S
O1532  Zn1546  1.932   .     S
O1533  Zn1544  1.916   .     S
O1536  Zn1544  1.926   .     S
O1537  Zn1547  1.926   .     S
O1538  Zn1545  1.938   .     S
O1539  Zn1546  1.954   .     S
O1540  Zn1547  1.949   .     S
O1541  Zn1544  1.934   .     S
O1542  Zn1545  1.933   .     S
O1543  Zn1546  1.928   .     S
C1548  C1558   1.440   .     S
C1548  O1631   1.261   .     A
C1548  O1629   1.269   .     A
C1549  C1582   1.410   .     A
C1549  H1619   1.081   .     S
C1549  C1550   1.387   .     A
C1550  H1616   1.084   .     S
C1550  C733    1.394   1_556 S
C1551  O1632   1.275   .     A
C1551  C1557   1.481   .     S
C1551  O1630   1.288   .     A
C1552  C1554   1.401   .     A
C1552  C1553   1.422   .     A
C1553  C1556   1.420   .     A
C1553  C1583   1.423   .     A
C1554  C1555   1.389   .     A
C1554  H1597   1.084   .     S
C1555  C1567   1.395   .     A
C1555  H1615   1.084   .     S
C1556  C1567   1.400   .     A
C1556  O1625   1.385   .     S
C1557  C1376   1.375   1_655 S
C1557  C1387   1.545   1_655 S
C1559  O1626   1.388   .     S
C1559  C1568   1.399   .     A
C1559  C1566   1.413   .     A
C1560  C1563   1.450   .     S
C1560  C1015   1.331   1_565 S
C1560  H1062   1.088   1_565 S
C1561  C1562   1.434   .     S
C1562  O1627   1.282   .     A
C1562  O1633   1.282   .     A
C1563  O1634   1.267   .     A
C1563  O1628   1.268   .     A
C1564  C1567   1.452   .     S
C1564  O1623   1.274   .     A
C1564  O1621   1.277   .     A
C1565  O1622   1.280   .     A
C1565  C1566   1.472   .     S
C1565  O1624   1.288   .     A
C1566  C1570   1.413   .     A
C1568  C1581   1.395   .     A
C1568  H1617   1.084   .     S
C1569  H1591   1.111   .     S
C1569  H1590   1.112   .     S
C1569  C1571   1.530   .     S
C1570  C1580   1.422   .     A
C1570  C1578   1.530   .     S
C1571  H1589   1.110   .     S
C1572  H1595   1.112   .     S
C1572  C1573   1.534   .     S
C1572  H1596   1.111   .     S
C1572  C1376   1.538   1_655 S
C1573  H1594   1.111   .     S
C1573  H1410   1.111   1_655 S
C1573  H1411   1.109   1_655 S
C1574  O1625   1.413   .     S
C1574  H1598   1.113   .     S
C1574  H1599   1.115   .     S
C1574  C1575   1.521   .     S
C1575  H1602   1.110   .     S
C1575  H1601   1.110   .     S
C1575  H1600   1.111   .     S
C1576  O1626   1.418   .     S
C1576  H1604   1.117   .     S
C1576  H1603   1.111   .     S
C1577  H1607   1.110   .     S
C1577  H1606   1.110   .     S
C1577  H1605   1.111   .     S
C1577  C1394   1.524   1_655 S
C1578  H1613   1.108   .     S
C1578  C1579   1.530   .     S
C1578  H1612   1.109   .     S
C1579  H1611   1.111   .     S
C1579  H1610   1.111   .     S
C1579  H1609   1.109   .     S
C1580  C1581   1.416   .     A
C1580  C1582   1.423   .     A
C1581  C766    1.394   1_556 S
C1582  C764    1.421   1_556 S
C1583  C1584   1.411   .     A
C1584  C1585   1.387   .     A
C1584  H1618   1.078   .     S
C1585  H1586   1.084   .     S
H1587  C1389   1.111   1_655 S
H1588  C1389   1.110   1_655 S
H1614  C1015   1.086   1_565 S
O1620  Zn1637  1.926   .     S
O1620  Zn1638  1.928   .     S
O1620  Zn1635  1.966   .     S
O1620  Zn1636  1.952   .     S
O1621  Zn1636  1.919   .     S
O1622  Zn1638  1.936   .     S
O1623  Zn1637  1.932   .     S
O1624  Zn1635  1.916   .     S
O1627  Zn1635  1.926   .     S
O1628  Zn1638  1.926   .     S
O1629  Zn1636  1.938   .     S
O1630  Zn1637  1.954   .     S
O1631  Zn1638  1.949   .     S
O1632  Zn1635  1.934   .     S
O1633  Zn1636  1.933   .     S
O1634  Zn1637  1.928   .     S
