data_str_m1_o1_o17_pcu_sym.70
_audit_creation_date              2020-01-03
_audit_creation_method            'Materials Studio'
_symmetry_space_group_name_H-M    'P1'
_symmetry_Int_Tables_number       1
_symmetry_cell_setting            triclinic
loop_
_symmetry_equiv_pos_as_xyz
  x,y,z
_cell_length_a                    36.6528
_cell_length_b                    36.6525
_cell_length_c                    34.5147
_cell_angle_alpha                 89.9999
_cell_angle_beta                  90.0002
_cell_angle_gamma                 89.9993
loop_
_atom_site_label
_atom_site_type_symbol
_atom_site_fract_x
_atom_site_fract_y
_atom_site_fract_z
_atom_site_U_iso_or_equiv
_atom_site_adp_type
_atom_site_occupancy
C1     C     0.02697   0.26937   0.41823   0.00000  Uiso   1.00
C2     C     0.22314   0.48049   0.08177   0.00000  Uiso   1.00
C3     C     0.23358   0.02942   0.54099   0.00000  Uiso   1.00
C4     C     0.02934   0.26656   0.45901   0.00000  Uiso   1.00
C5     C     0.47066   0.23342   0.54099   0.00000  Uiso   1.00
C6     C     0.23358   0.02942   0.45901   0.00000  Uiso   1.00
C7     C     0.26639   0.47057   0.54099   0.00000  Uiso   1.00
C8     C     0.22075   0.48328   0.95901   0.00000  Uiso   1.00
C9     C     0.27923   0.01676   0.04099   0.00000  Uiso   1.00
C10    C     0.01651   0.22063   0.95901   0.00000  Uiso   1.00
C11    C     0.48349   0.27937   0.04099   0.00000  Uiso   1.00
C12    C     0.27924   0.01675   0.95901   0.00000  Uiso   1.00
C13    C     0.48067   0.27701   0.91823   0.00000  Uiso   1.00
C14    C     0.22075   0.48328   0.04099   0.00000  Uiso   1.00
C15    C     0.48349   0.27937   0.95901   0.00000  Uiso   1.00
C16    C     0.01651   0.22063   0.04099   0.00000  Uiso   1.00
C17    C     0.09812   0.34814   0.25002   0.00000  Uiso   1.00
C18    C     0.40188   0.15186   0.74998   0.00000  Uiso   1.00
C19    C     0.15186   0.09812   0.25002   0.00000  Uiso   1.00
C20    C     0.34814   0.40188   0.74998   0.00000  Uiso   1.00
C21    C     0.40188   0.15186   0.25002   0.00000  Uiso   1.00
C22    C     0.09812   0.34814   0.74998   0.00000  Uiso   1.00
C23    C     0.34814   0.40188   0.25002   0.00000  Uiso   1.00
C24    C     0.01932   0.22299   0.08177   0.00000  Uiso   1.00
C25    C     0.15186   0.09812   0.74998   0.00000  Uiso   1.00
C26    C     0.09814   0.15188   0.75002   0.00000  Uiso   1.00
C27    C     0.40186   0.34812   0.24998   0.00000  Uiso   1.00
C28    C     0.15188   0.40186   0.75002   0.00000  Uiso   1.00
C29    C     0.34812   0.09814   0.24998   0.00000  Uiso   1.00
C30    C     0.40186   0.34812   0.75002   0.00000  Uiso   1.00
C31    C     0.09814   0.15188   0.24998   0.00000  Uiso   1.00
C32    C     0.34812   0.09814   0.75002   0.00000  Uiso   1.00
C33    C     0.15188   0.40186   0.24998   0.00000  Uiso   1.00
C34    C     0.00000   0.24999   0.47953   0.00000  Uiso   1.00
C35    C     0.22313   0.48050   0.91823   0.00000  Uiso   1.00
C36    C     0.00000   0.24999   0.52048   0.00000  Uiso   1.00
C37    C     0.24998  -0.00000   0.47953   0.00000  Uiso   1.00
C38    C     0.24999  -0.00000   0.52047   0.00000  Uiso   1.00
C39    C     0.24999   0.00002   0.97952   0.00000  Uiso   1.00
C40    C     0.24999   0.00002   0.02048   0.00000  Uiso   1.00
C41    C    -0.00000   0.25000   0.97953   0.00000  Uiso   1.00
C42    C     0.00000   0.25000   0.02047   0.00000  Uiso   1.00
C43    C     0.40694   0.20850   0.45973   0.00000  Uiso   1.00
C44    C     0.09307   0.29147   0.54027   0.00000  Uiso   1.00
C45    C     0.29087   0.40668   0.45973   0.00000  Uiso   1.00
C46    C     0.27686   0.01953   0.08178   0.00000  Uiso   1.00
C47    C     0.20907   0.09330   0.54027   0.00000  Uiso   1.00
C48    C     0.09307   0.29146   0.45974   0.00000  Uiso   1.00
C49    C     0.40694   0.20851   0.54026   0.00000  Uiso   1.00
C50    C     0.20906   0.09330   0.45973   0.00000  Uiso   1.00
C51    C     0.29087   0.40668   0.54027   0.00000  Uiso   1.00
C52    C     0.15716   0.45801   0.95974   0.00000  Uiso   1.00
C53    C     0.34279   0.04211   0.04026   0.00000  Uiso   1.00
C54    C     0.04128   0.15685   0.95973   0.00000  Uiso   1.00
C55    C     0.45873   0.34316   0.04027   0.00000  Uiso   1.00
C56    C     0.34281   0.04206   0.95974   0.00000  Uiso   1.00
C57    C     0.01933   0.22300   0.91823   0.00000  Uiso   1.00
C58    C     0.15718   0.45798   0.04027   0.00000  Uiso   1.00
C59    C     0.45872   0.34315   0.95974   0.00000  Uiso   1.00
C60    C     0.04126   0.15684   0.04026   0.00000  Uiso   1.00
C61    C     0.03643   0.32623   0.39432   0.00000  Uiso   1.00
C62    C     0.46357   0.17377   0.60569   0.00000  Uiso   1.00
C63    C     0.17395   0.03681   0.39435   0.00000  Uiso   1.00
C64    C     0.32605   0.46319   0.60562   0.00000  Uiso   1.00
C65    C     0.46359   0.17377   0.39431   0.00000  Uiso   1.00
C66    C     0.03642   0.32623   0.60568   0.00000  Uiso   1.00
C67    C     0.32604   0.46317   0.39439   0.00000  Uiso   1.00
C68    C     0.48068   0.27701   0.08177   0.00000  Uiso   1.00
C69    C     0.17394   0.03680   0.60564   0.00000  Uiso   1.00
C70    C     0.28604   0.07640   0.89425   0.00000  Uiso   1.00
C71    C     0.21400   0.42360   0.10573   0.00000  Uiso   1.00
C72    C     0.42384   0.28657   0.89433   0.00000  Uiso   1.00
C73    C     0.07616   0.21341   0.10566   0.00000  Uiso   1.00
C74    C     0.21395   0.42360   0.89429   0.00000  Uiso   1.00
C75    C     0.28599   0.07642   0.10576   0.00000  Uiso   1.00
C76    C     0.07617   0.21344   0.89433   0.00000  Uiso   1.00
C77    C     0.42384   0.28657   0.10567   0.00000  Uiso   1.00
C78    C     0.00000   0.25000   0.39821   0.00000  Uiso   1.00
C79    C    -0.00000   0.25000   0.60179   0.00000  Uiso   1.00
C80    C     0.24999  -0.00000   0.39822   0.00000  Uiso   1.00
C81    C     0.47303   0.23062   0.58177   0.00000  Uiso   1.00
C82    C     0.25000  -0.00000   0.60178   0.00000  Uiso   1.00
C83    C     0.25000   0.00001   0.89821   0.00000  Uiso   1.00
C84    C     0.25000   0.00001   0.10179   0.00000  Uiso   1.00
C85    C    -0.00000   0.25000   0.89821   0.00000  Uiso   1.00
C86    C     0.00000   0.25000   0.10179   0.00000  Uiso   1.00
C87    C     0.43992   0.22022   0.47966   0.00000  Uiso   1.00
C88    C     0.06009   0.27976   0.52034   0.00000  Uiso   1.00
C89    C     0.27939   0.43974   0.47967   0.00000  Uiso   1.00
C90    C     0.22056   0.06025   0.52034   0.00000  Uiso   1.00
C91    C     0.06009   0.27976   0.47967   0.00000  Uiso   1.00
C92    C     0.23076   0.02707   0.41824   0.00000  Uiso   1.00
C93    C     0.43992   0.22022   0.52033   0.00000  Uiso   1.00
C94    C     0.22056   0.06025   0.47967   0.00000  Uiso   1.00
C95    C     0.27939   0.43974   0.52034   0.00000  Uiso   1.00
C96    C     0.19008   0.46990   0.97967   0.00000  Uiso   1.00
C97    C     0.30990   0.03016   0.02034   0.00000  Uiso   1.00
C98    C     0.02965   0.18985   0.97966   0.00000  Uiso   1.00
C99    C     0.47036   0.31015   0.02033   0.00000  Uiso   1.00
C100   C     0.30990   0.03015   0.97967   0.00000  Uiso   1.00
C101   C     0.19008   0.46989   0.02034   0.00000  Uiso   1.00
C102   C     0.47035   0.31015   0.97967   0.00000  Uiso   1.00
C103   C     0.26923   0.47293   0.58176   0.00000  Uiso   1.00
C104   C     0.02964   0.18985   0.02033   0.00000  Uiso   1.00
C105   C     0.25000   0.00000   0.35584   0.00000  Uiso   1.00
C106   C     0.25000   0.00000   0.64416   0.00000  Uiso   1.00
C107   C     0.00000   0.25000   0.35584   0.00000  Uiso   1.00
C108   C    -0.00000   0.25000   0.64416   0.00000  Uiso   1.00
C109   C    -0.00000   0.25000   0.85584   0.00000  Uiso   1.00
C110   C     0.00000   0.25000   0.14416   0.00000  Uiso   1.00
C111   C     0.25000  -0.00000   0.85584   0.00000  Uiso   1.00
C112   C     0.25000   0.00000   0.14416   0.00000  Uiso   1.00
C113   C     0.17994   0.07005   0.25001   0.00000  Uiso   1.00
C114   C     0.47303   0.23062   0.41823   0.00000  Uiso   1.00
C115   C     0.32006   0.42995   0.74999   0.00000  Uiso   1.00
C116   C     0.42995   0.17994   0.25001   0.00000  Uiso   1.00
C117   C     0.07005   0.32006   0.74999   0.00000  Uiso   1.00
C118   C     0.32006   0.42995   0.25001   0.00000  Uiso   1.00
C119   C     0.17994   0.07005   0.74999   0.00000  Uiso   1.00
C120   C     0.07005   0.32006   0.25001   0.00000  Uiso   1.00
C121   C     0.42995   0.17994   0.74999   0.00000  Uiso   1.00
C122   C     0.17995   0.42994   0.75001   0.00000  Uiso   1.00
C123   C     0.32005   0.07006   0.24999   0.00000  Uiso   1.00
C124   C     0.42994   0.32005   0.75001   0.00000  Uiso   1.00
C125   C     0.02697   0.26937   0.58177   0.00000  Uiso   1.00
C126   C     0.07006   0.17995   0.24999   0.00000  Uiso   1.00
C127   C     0.32005   0.07006   0.75001   0.00000  Uiso   1.00
C128   C     0.17995   0.42994   0.24999   0.00000  Uiso   1.00
C129   C     0.07006   0.17995   0.75001   0.00000  Uiso   1.00
C130   C     0.42994   0.32005   0.24999   0.00000  Uiso   1.00
C131   C     0.12255   0.40419   0.22404   0.00000  Uiso   1.00
C132   C     0.37744   0.09582   0.77596   0.00000  Uiso   1.00
C133   C     0.09582   0.12256   0.22403   0.00000  Uiso   1.00
C134   C     0.40418   0.37744   0.77597   0.00000  Uiso   1.00
C135   C     0.37744   0.09582   0.22404   0.00000  Uiso   1.00
C136   C     0.26922   0.47293   0.41824   0.00000  Uiso   1.00
C137   C     0.12255   0.40419   0.77596   0.00000  Uiso   1.00
C138   C     0.40418   0.37744   0.22403   0.00000  Uiso   1.00
C139   C     0.09582   0.12256   0.77597   0.00000  Uiso   1.00
C140   C     0.12254   0.09581   0.77595   0.00000  Uiso   1.00
C141   C     0.37746   0.40419   0.22406   0.00000  Uiso   1.00
C142   C     0.09580   0.37746   0.77594   0.00000  Uiso   1.00
C143   C     0.40420   0.12254   0.22406   0.00000  Uiso   1.00
C144   C     0.37746   0.40419   0.77595   0.00000  Uiso   1.00
C145   C     0.12254   0.09581   0.22405   0.00000  Uiso   1.00
C146   C     0.40420   0.12254   0.77594   0.00000  Uiso   1.00
C147   C     0.23076   0.02707   0.58176   0.00000  Uiso   1.00
C148   C     0.09580   0.37746   0.22406   0.00000  Uiso   1.00
C149   C     0.37256   0.15418   0.72404   0.00000  Uiso   1.00
C150   C     0.12744   0.34582   0.27596   0.00000  Uiso   1.00
C151   C     0.34582   0.37256   0.72403   0.00000  Uiso   1.00
C152   C     0.15418   0.12744   0.27597   0.00000  Uiso   1.00
C153   C     0.12744   0.34582   0.72404   0.00000  Uiso   1.00
C154   C     0.37256   0.15418   0.27596   0.00000  Uiso   1.00
C155   C     0.15418   0.12744   0.72403   0.00000  Uiso   1.00
C156   C     0.34582   0.37256   0.27597   0.00000  Uiso   1.00
C157   C     0.37254   0.34581   0.27595   0.00000  Uiso   1.00
C158   C     0.27687   0.01952   0.91822   0.00000  Uiso   1.00
C159   C     0.12746   0.15419   0.72406   0.00000  Uiso   1.00
C160   C     0.34580   0.12746   0.27594   0.00000  Uiso   1.00
C161   C     0.15420   0.37254   0.72406   0.00000  Uiso   1.00
C162   C     0.12746   0.15419   0.27595   0.00000  Uiso   1.00
C163   C     0.37254   0.34581   0.72406   0.00000  Uiso   1.00
C164   C     0.15420   0.37254   0.27594   0.00000  Uiso   1.00
C165   C     0.34580   0.12746   0.72406   0.00000  Uiso   1.00
C166   C     0.47067   0.23342   0.45901   0.00000  Uiso   1.00
C167   C     0.02934   0.26657   0.54099   0.00000  Uiso   1.00
C168   C     0.26639   0.47057   0.45902   0.00000  Uiso   1.00
H169   H     0.12026   0.42658   0.20370   0.00000  Uiso   1.00
H170   H     0.37976   0.42659   0.20373   0.00000  Uiso   1.00
H171   H     0.07340   0.37977   0.79625   0.00000  Uiso   1.00
H172   H     0.42660   0.12023   0.20375   0.00000  Uiso   1.00
H173   H     0.37976   0.42659   0.79627   0.00000  Uiso   1.00
H174   H     0.12024   0.07341   0.20373   0.00000  Uiso   1.00
H175   H     0.42660   0.12023   0.79625   0.00000  Uiso   1.00
H176   H     0.07340   0.37977   0.20375   0.00000  Uiso   1.00
H177   H     0.37026   0.17657   0.70370   0.00000  Uiso   1.00
H178   H     0.12974   0.32342   0.29630   0.00000  Uiso   1.00
H179   H     0.32344   0.37027   0.70369   0.00000  Uiso   1.00
H180   H     0.37974   0.07343   0.79630   0.00000  Uiso   1.00
H181   H     0.17656   0.12973   0.29631   0.00000  Uiso   1.00
H182   H     0.12974   0.32343   0.70370   0.00000  Uiso   1.00
H183   H     0.37026   0.17658   0.29630   0.00000  Uiso   1.00
H184   H     0.17656   0.12973   0.70369   0.00000  Uiso   1.00
H185   H     0.32344   0.37027   0.29631   0.00000  Uiso   1.00
H186   H     0.37024   0.32341   0.29627   0.00000  Uiso   1.00
H187   H     0.12976   0.17659   0.70373   0.00000  Uiso   1.00
H188   H     0.32340   0.12977   0.29625   0.00000  Uiso   1.00
H189   H     0.17660   0.37023   0.70375   0.00000  Uiso   1.00
H190   H     0.12976   0.17659   0.29627   0.00000  Uiso   1.00
H191   H     0.07344   0.12027   0.20369   0.00000  Uiso   1.00
H192   H     0.37024   0.32341   0.70373   0.00000  Uiso   1.00
H193   H     0.17660   0.37023   0.29625   0.00000  Uiso   1.00
H194   H     0.32340   0.12977   0.70375   0.00000  Uiso   1.00
H195   H     0.03271   0.33891   0.42336   0.00000  Uiso   1.00
H196   H     0.01013   0.32613   0.37819   0.00000  Uiso   1.00
H197   H     0.05587   0.34346   0.37784   0.00000  Uiso   1.00
H198   H     0.48986   0.17387   0.62183   0.00000  Uiso   1.00
H199   H     0.46730   0.16108   0.57665   0.00000  Uiso   1.00
H200   H     0.44413   0.15653   0.62217   0.00000  Uiso   1.00
H201   H     0.16126   0.03317   0.42340   0.00000  Uiso   1.00
H202   H     0.42656   0.37973   0.79631   0.00000  Uiso   1.00
H203   H     0.17391   0.01051   0.37823   0.00000  Uiso   1.00
H204   H     0.15681   0.05633   0.37787   0.00000  Uiso   1.00
H205   H     0.32610   0.48950   0.62172   0.00000  Uiso   1.00
H206   H     0.33873   0.46680   0.57656   0.00000  Uiso   1.00
H207   H     0.34319   0.44367   0.62211   0.00000  Uiso   1.00
H208   H     0.46729   0.16108   0.42335   0.00000  Uiso   1.00
H209   H     0.48989   0.17387   0.37819   0.00000  Uiso   1.00
H210   H     0.44416   0.15653   0.37781   0.00000  Uiso   1.00
H211   H     0.01013   0.32612   0.62183   0.00000  Uiso   1.00
H212   H     0.03269   0.33891   0.57664   0.00000  Uiso   1.00
H213   H     0.37974   0.07342   0.20370   0.00000  Uiso   1.00
H214   H     0.05586   0.34347   0.62215   0.00000  Uiso   1.00
H215   H     0.33873   0.46678   0.42344   0.00000  Uiso   1.00
H216   H     0.32610   0.48948   0.37829   0.00000  Uiso   1.00
H217   H     0.34318   0.44365   0.37789   0.00000  Uiso   1.00
H218   H     0.17391   0.01050   0.62177   0.00000  Uiso   1.00
H219   H     0.16126   0.03315   0.57659   0.00000  Uiso   1.00
H220   H     0.15680   0.05632   0.62212   0.00000  Uiso   1.00
H221   H     0.28223   0.08909   0.92328   0.00000  Uiso   1.00
H222   H     0.25976   0.07615   0.87809   0.00000  Uiso   1.00
H223   H     0.30540   0.09373   0.87777   0.00000  Uiso   1.00
H224   H     0.12026   0.42658   0.79630   0.00000  Uiso   1.00
H225   H     0.24028   0.42386   0.12190   0.00000  Uiso   1.00
H226   H     0.21782   0.41092   0.07670   0.00000  Uiso   1.00
H227   H     0.19465   0.40625   0.12220   0.00000  Uiso   1.00
H228   H     0.41115   0.28287   0.92337   0.00000  Uiso   1.00
H229   H     0.42389   0.26027   0.87819   0.00000  Uiso   1.00
H230   H     0.40663   0.30604   0.87785   0.00000  Uiso   1.00
H231   H     0.07612   0.23972   0.12177   0.00000  Uiso   1.00
H232   H     0.08885   0.21706   0.07662   0.00000  Uiso   1.00
H233   H     0.09335   0.19394   0.12217   0.00000  Uiso   1.00
H234   H     0.21774   0.41092   0.92332   0.00000  Uiso   1.00
H235   H     0.42656   0.37973   0.20369   0.00000  Uiso   1.00
H236   H     0.24025   0.42384   0.87815   0.00000  Uiso   1.00
H237   H     0.19460   0.40628   0.87780   0.00000  Uiso   1.00
H238   H     0.25971   0.07614   0.12193   0.00000  Uiso   1.00
H239   H     0.28216   0.08911   0.07674   0.00000  Uiso   1.00
H240   H     0.30534   0.09376   0.12224   0.00000  Uiso   1.00
H241   H     0.08886   0.21713   0.92338   0.00000  Uiso   1.00
H242   H     0.07611   0.23975   0.87821   0.00000  Uiso   1.00
H243   H     0.09337   0.19398   0.87784   0.00000  Uiso   1.00
H244   H     0.42389   0.26028   0.12180   0.00000  Uiso   1.00
H245   H     0.41115   0.28289   0.07662   0.00000  Uiso   1.00
H246   H     0.07344   0.12027   0.79631   0.00000  Uiso   1.00
H247   H     0.40664   0.30604   0.12215   0.00000  Uiso   1.00
H248   H     0.12024   0.07341   0.79627   0.00000  Uiso   1.00
N249   N     0.38061   0.19919   0.44406   0.00000  Uiso   1.00
N250   N     0.36905   0.05161   0.05593   0.00000  Uiso   1.00
N251   N     0.05053   0.13050   0.94406   0.00000  Uiso   1.00
N252   N     0.44950   0.36951   0.05594   0.00000  Uiso   1.00
N253   N     0.36909   0.05153   0.94407   0.00000  Uiso   1.00
N254   N     0.13091   0.44850   0.05594   0.00000  Uiso   1.00
N255   N     0.44947   0.36950   0.94406   0.00000  Uiso   1.00
N256   N     0.05050   0.13049   0.05594   0.00000  Uiso   1.00
N257   N     0.11940   0.30078   0.55594   0.00000  Uiso   1.00
N258   N     0.29998   0.38029   0.44406   0.00000  Uiso   1.00
N259   N     0.19995   0.11969   0.55595   0.00000  Uiso   1.00
N260   N     0.11940   0.30076   0.44406   0.00000  Uiso   1.00
N261   N     0.38061   0.19920   0.55594   0.00000  Uiso   1.00
N262   N     0.19993   0.11968   0.44406   0.00000  Uiso   1.00
N263   N     0.29999   0.38029   0.55595   0.00000  Uiso   1.00
N264   N     0.13088   0.44855   0.94407   0.00000  Uiso   1.00
O265   O     0.25000  -0.00000   0.25000   0.00000  Uiso   1.00
O266   O     0.25000   0.46964   0.66245   0.00000  Uiso   1.00
O267   O     0.46963   0.25000   0.33755   0.00000  Uiso   1.00
O268   O     0.03036   0.25000   0.66245   0.00000  Uiso   1.00
O269   O     0.00000   0.21964   0.83755   0.00000  Uiso   1.00
O270   O    -0.00000   0.28037   0.16245   0.00000  Uiso   1.00
O271   O     0.28036  -0.00000   0.83755   0.00000  Uiso   1.00
O272   O     0.21963  -0.00000   0.16245   0.00000  Uiso   1.00
O273   O     0.00000   0.28037   0.83755   0.00000  Uiso   1.00
O274   O    -0.00000   0.21964   0.16245   0.00000  Uiso   1.00
O275   O     0.21963  -0.00000   0.83755   0.00000  Uiso   1.00
O276   O     0.25000  -0.00000   0.75000   0.00000  Uiso   1.00
O277   O     0.28036  -0.00000   0.16245   0.00000  Uiso   1.00
O278   O     0.20724   0.07308   0.27302   0.00000  Uiso   1.00
O279   O     0.29275   0.42693   0.72698   0.00000  Uiso   1.00
O280   O     0.42692   0.20725   0.27302   0.00000  Uiso   1.00
O281   O     0.07307   0.29276   0.72698   0.00000  Uiso   1.00
O282   O     0.29275   0.42693   0.27302   0.00000  Uiso   1.00
O283   O     0.20724   0.07308   0.72698   0.00000  Uiso   1.00
O284   O     0.07307   0.29276   0.27302   0.00000  Uiso   1.00
O285   O     0.42692   0.20725   0.72698   0.00000  Uiso   1.00
O286   O     0.20724   0.42693   0.72698   0.00000  Uiso   1.00
O287   O    -0.00000   0.25000   0.25000   0.00000  Uiso   1.00
O288   O     0.29275   0.07308   0.27302   0.00000  Uiso   1.00
O289   O     0.42692   0.29276   0.72698   0.00000  Uiso   1.00
O290   O     0.07307   0.20725   0.27302   0.00000  Uiso   1.00
O291   O     0.29275   0.07308   0.72698   0.00000  Uiso   1.00
O292   O     0.20724   0.42693   0.27302   0.00000  Uiso   1.00
O293   O     0.07307   0.20725   0.72698   0.00000  Uiso   1.00
O294   O     0.42692   0.29276   0.27302   0.00000  Uiso   1.00
O295   O     0.45724   0.32308   0.77302   0.00000  Uiso   1.00
O296   O     0.04275   0.17693   0.22698   0.00000  Uiso   1.00
O297   O     0.17692   0.45725   0.77302   0.00000  Uiso   1.00
O298   O    -0.00000   0.25000   0.75000   0.00000  Uiso   1.00
O299   O     0.32307   0.04276   0.22698   0.00000  Uiso   1.00
O300   O     0.04275   0.17693   0.77302   0.00000  Uiso   1.00
O301   O     0.45724   0.32308   0.22698   0.00000  Uiso   1.00
O302   O     0.32307   0.04276   0.77302   0.00000  Uiso   1.00
O303   O     0.17692   0.45725   0.22698   0.00000  Uiso   1.00
O304   O     0.45724   0.17693   0.22698   0.00000  Uiso   1.00
O305   O     0.04275   0.32308   0.77302   0.00000  Uiso   1.00
O306   O     0.17692   0.04276   0.22698   0.00000  Uiso   1.00
O307   O     0.32307   0.45725   0.77302   0.00000  Uiso   1.00
O308   O     0.04275   0.32308   0.22698   0.00000  Uiso   1.00
O309   O     0.25000   0.46964   0.33755   0.00000  Uiso   1.00
O310   O     0.45724   0.17693   0.77302   0.00000  Uiso   1.00
O311   O     0.32307   0.45725   0.22698   0.00000  Uiso   1.00
O312   O     0.17692   0.04276   0.77302   0.00000  Uiso   1.00
O313   O     0.05113   0.29076   0.39736   0.00000  Uiso   1.00
O314   O     0.44887   0.20923   0.60264   0.00000  Uiso   1.00
O315   O     0.20948   0.05133   0.39738   0.00000  Uiso   1.00
O316   O     0.29051   0.44867   0.60262   0.00000  Uiso   1.00
O317   O     0.44888   0.20922   0.39736   0.00000  Uiso   1.00
O318   O     0.05113   0.29077   0.60264   0.00000  Uiso   1.00
O319   O     0.29050   0.44866   0.39738   0.00000  Uiso   1.00
O320   O     0.25000   0.03037   0.66245   0.00000  Uiso   1.00
O321   O     0.20948   0.05133   0.60262   0.00000  Uiso   1.00
O322   O     0.30092   0.04102   0.89734   0.00000  Uiso   1.00
O323   O     0.19909   0.45897   0.10265   0.00000  Uiso   1.00
O324   O     0.45932   0.30121   0.89737   0.00000  Uiso   1.00
O325   O     0.04066   0.19879   0.10263   0.00000  Uiso   1.00
O326   O     0.19907   0.45899   0.89735   0.00000  Uiso   1.00
O327   O     0.30090   0.04105   0.10266   0.00000  Uiso   1.00
O328   O     0.04068   0.19880   0.89737   0.00000  Uiso   1.00
O329   O     0.45933   0.30121   0.10263   0.00000  Uiso   1.00
O330   O     0.03036   0.25000   0.33755   0.00000  Uiso   1.00
O331   O     0.46963   0.25000   0.66245   0.00000  Uiso   1.00
O332   O     0.25000   0.03037   0.33755   0.00000  Uiso   1.00
Zn333  Zn    0.20659  -0.00000   0.21735   0.00000  Uiso   1.00
Zn334  Zn    0.04340   0.25000   0.28265   0.00000  Uiso   1.00
Zn335  Zn    0.25000   0.45660   0.71735   0.00000  Uiso   1.00
Zn336  Zn    0.25000   0.04341   0.28265   0.00000  Uiso   1.00
Zn337  Zn    0.04340   0.25000   0.71735   0.00000  Uiso   1.00
Zn338  Zn    0.45659   0.25000   0.28265   0.00000  Uiso   1.00
Zn339  Zn    0.25000   0.04341   0.71735   0.00000  Uiso   1.00
Zn340  Zn    0.25000   0.45660   0.28265   0.00000  Uiso   1.00
Zn341  Zn    0.29340  -0.00000   0.78265   0.00000  Uiso   1.00
Zn342  Zn    0.00000   0.20660   0.21735   0.00000  Uiso   1.00
Zn343  Zn    0.00000   0.29341   0.78265   0.00000  Uiso   1.00
Zn344  Zn    0.29340  -0.00000   0.21735   0.00000  Uiso   1.00
Zn345  Zn    0.20659  -0.00000   0.78265   0.00000  Uiso   1.00
Zn346  Zn    0.00000   0.29341   0.21735   0.00000  Uiso   1.00
Zn347  Zn   -0.00000   0.20660   0.78265   0.00000  Uiso   1.00
Zn348  Zn    0.45659   0.25000   0.71735   0.00000  Uiso   1.00
C349   C     0.52697   0.26937   0.41823   0.00000  Uiso   1.00
C350   C     0.72314   0.48049   0.08177   0.00000  Uiso   1.00
C351   C     0.73358   0.02942   0.54099   0.00000  Uiso   1.00
C352   C     0.52934   0.26656   0.45901   0.00000  Uiso   1.00
C353   C     0.97066   0.23342   0.54099   0.00000  Uiso   1.00
C354   C     0.73358   0.02942   0.45901   0.00000  Uiso   1.00
C355   C     0.76639   0.47057   0.54099   0.00000  Uiso   1.00
C356   C     0.72075   0.48328   0.95901   0.00000  Uiso   1.00
C357   C     0.77923   0.01676   0.04099   0.00000  Uiso   1.00
C358   C     0.51651   0.22063   0.95901   0.00000  Uiso   1.00
C359   C     0.98349   0.27937   0.04099   0.00000  Uiso   1.00
C360   C     0.77924   0.01675   0.95901   0.00000  Uiso   1.00
C361   C     0.98067   0.27701   0.91823   0.00000  Uiso   1.00
C362   C     0.72075   0.48328   0.04099   0.00000  Uiso   1.00
C363   C     0.98349   0.27937   0.95901   0.00000  Uiso   1.00
C364   C     0.51651   0.22063   0.04099   0.00000  Uiso   1.00
C365   C     0.59812   0.34814   0.25002   0.00000  Uiso   1.00
C366   C     0.90188   0.15186   0.74998   0.00000  Uiso   1.00
C367   C     0.65186   0.09812   0.25002   0.00000  Uiso   1.00
C368   C     0.84814   0.40188   0.74998   0.00000  Uiso   1.00
C369   C     0.90188   0.15186   0.25002   0.00000  Uiso   1.00
C370   C     0.59812   0.34814   0.74998   0.00000  Uiso   1.00
C371   C     0.84814   0.40188   0.25002   0.00000  Uiso   1.00
C372   C     0.51932   0.22299   0.08177   0.00000  Uiso   1.00
C373   C     0.65186   0.09812   0.74998   0.00000  Uiso   1.00
C374   C     0.59814   0.15188   0.75002   0.00000  Uiso   1.00
C375   C     0.90186   0.34812   0.24998   0.00000  Uiso   1.00
C376   C     0.65188   0.40186   0.75002   0.00000  Uiso   1.00
C377   C     0.84812   0.09814   0.24998   0.00000  Uiso   1.00
C378   C     0.90186   0.34812   0.75002   0.00000  Uiso   1.00
C379   C     0.59814   0.15188   0.24998   0.00000  Uiso   1.00
C380   C     0.84812   0.09814   0.75002   0.00000  Uiso   1.00
C381   C     0.65188   0.40186   0.24998   0.00000  Uiso   1.00
C382   C     0.50000   0.24999   0.47953   0.00000  Uiso   1.00
C383   C     0.72313   0.48050   0.91823   0.00000  Uiso   1.00
C384   C     0.50000   0.24999   0.52048   0.00000  Uiso   1.00
C385   C     0.74998  -0.00000   0.47953   0.00000  Uiso   1.00
C386   C     0.74999  -0.00000   0.52047   0.00000  Uiso   1.00
C387   C     0.74999   0.00002   0.97952   0.00000  Uiso   1.00
C388   C     0.74999   0.00002   0.02048   0.00000  Uiso   1.00
C389   C     0.50000   0.25000   0.97953   0.00000  Uiso   1.00
C390   C     0.50000   0.25000   0.02047   0.00000  Uiso   1.00
C391   C     0.90694   0.20850   0.45973   0.00000  Uiso   1.00
C392   C     0.59307   0.29147   0.54027   0.00000  Uiso   1.00
C393   C     0.79087   0.40668   0.45973   0.00000  Uiso   1.00
C394   C     0.77686   0.01953   0.08178   0.00000  Uiso   1.00
C395   C     0.70907   0.09330   0.54027   0.00000  Uiso   1.00
C396   C     0.59307   0.29146   0.45974   0.00000  Uiso   1.00
C397   C     0.90694   0.20851   0.54026   0.00000  Uiso   1.00
C398   C     0.70906   0.09330   0.45973   0.00000  Uiso   1.00
C399   C     0.79087   0.40668   0.54027   0.00000  Uiso   1.00
C400   C     0.65716   0.45801   0.95974   0.00000  Uiso   1.00
C401   C     0.84279   0.04211   0.04026   0.00000  Uiso   1.00
C402   C     0.54128   0.15685   0.95973   0.00000  Uiso   1.00
C403   C     0.95873   0.34316   0.04027   0.00000  Uiso   1.00
C404   C     0.84281   0.04206   0.95974   0.00000  Uiso   1.00
C405   C     0.51933   0.22300   0.91823   0.00000  Uiso   1.00
C406   C     0.65718   0.45798   0.04027   0.00000  Uiso   1.00
C407   C     0.95872   0.34315   0.95974   0.00000  Uiso   1.00
C408   C     0.54126   0.15684   0.04026   0.00000  Uiso   1.00
C409   C     0.53643   0.32623   0.39432   0.00000  Uiso   1.00
C410   C     0.96357   0.17377   0.60569   0.00000  Uiso   1.00
C411   C     0.67395   0.03681   0.39435   0.00000  Uiso   1.00
C412   C     0.82605   0.46319   0.60562   0.00000  Uiso   1.00
C413   C     0.96359   0.17377   0.39431   0.00000  Uiso   1.00
C414   C     0.53642   0.32623   0.60568   0.00000  Uiso   1.00
C415   C     0.82604   0.46317   0.39439   0.00000  Uiso   1.00
C416   C     0.98068   0.27701   0.08177   0.00000  Uiso   1.00
C417   C     0.67394   0.03680   0.60564   0.00000  Uiso   1.00
C418   C     0.78604   0.07640   0.89425   0.00000  Uiso   1.00
C419   C     0.71400   0.42360   0.10573   0.00000  Uiso   1.00
C420   C     0.92384   0.28657   0.89433   0.00000  Uiso   1.00
C421   C     0.57616   0.21341   0.10566   0.00000  Uiso   1.00
C422   C     0.71395   0.42360   0.89429   0.00000  Uiso   1.00
C423   C     0.78599   0.07642   0.10576   0.00000  Uiso   1.00
C424   C     0.57617   0.21344   0.89433   0.00000  Uiso   1.00
C425   C     0.92384   0.28657   0.10567   0.00000  Uiso   1.00
C426   C     0.50000   0.25000   0.39821   0.00000  Uiso   1.00
C427   C     0.50000   0.25000   0.60179   0.00000  Uiso   1.00
C428   C     0.74999  -0.00000   0.39822   0.00000  Uiso   1.00
C429   C     0.97303   0.23062   0.58177   0.00000  Uiso   1.00
C430   C     0.75000  -0.00000   0.60178   0.00000  Uiso   1.00
C431   C     0.75000   0.00001   0.89821   0.00000  Uiso   1.00
C432   C     0.75000   0.00001   0.10179   0.00000  Uiso   1.00
C433   C     0.50000   0.25000   0.89821   0.00000  Uiso   1.00
C434   C     0.50000   0.25000   0.10179   0.00000  Uiso   1.00
C435   C     0.93992   0.22022   0.47966   0.00000  Uiso   1.00
C436   C     0.56009   0.27976   0.52034   0.00000  Uiso   1.00
C437   C     0.77939   0.43974   0.47967   0.00000  Uiso   1.00
C438   C     0.72056   0.06025   0.52034   0.00000  Uiso   1.00
C439   C     0.56009   0.27976   0.47967   0.00000  Uiso   1.00
C440   C     0.73076   0.02707   0.41824   0.00000  Uiso   1.00
C441   C     0.93992   0.22022   0.52033   0.00000  Uiso   1.00
C442   C     0.72056   0.06025   0.47967   0.00000  Uiso   1.00
C443   C     0.77939   0.43974   0.52034   0.00000  Uiso   1.00
C444   C     0.69008   0.46990   0.97967   0.00000  Uiso   1.00
C445   C     0.80990   0.03016   0.02034   0.00000  Uiso   1.00
C446   C     0.52965   0.18985   0.97966   0.00000  Uiso   1.00
C447   C     0.97036   0.31015   0.02033   0.00000  Uiso   1.00
C448   C     0.80990   0.03015   0.97967   0.00000  Uiso   1.00
C449   C     0.69008   0.46989   0.02034   0.00000  Uiso   1.00
C450   C     0.97035   0.31015   0.97967   0.00000  Uiso   1.00
C451   C     0.76923   0.47293   0.58176   0.00000  Uiso   1.00
C452   C     0.52964   0.18985   0.02033   0.00000  Uiso   1.00
C453   C     0.75000   0.00000   0.35584   0.00000  Uiso   1.00
C454   C     0.75000   0.00000   0.64416   0.00000  Uiso   1.00
C455   C     0.50000   0.25000   0.35584   0.00000  Uiso   1.00
C456   C     0.50000   0.25000   0.64416   0.00000  Uiso   1.00
C457   C     0.50000   0.25000   0.85584   0.00000  Uiso   1.00
C458   C     0.50000   0.25000   0.14416   0.00000  Uiso   1.00
C459   C     0.75000  -0.00000   0.85584   0.00000  Uiso   1.00
C460   C     0.75000   0.00000   0.14416   0.00000  Uiso   1.00
C461   C     0.67994   0.07005   0.25001   0.00000  Uiso   1.00
C462   C     0.97303   0.23062   0.41823   0.00000  Uiso   1.00
C463   C     0.82006   0.42995   0.74999   0.00000  Uiso   1.00
C464   C     0.92995   0.17994   0.25001   0.00000  Uiso   1.00
C465   C     0.57005   0.32006   0.74999   0.00000  Uiso   1.00
C466   C     0.82006   0.42995   0.25001   0.00000  Uiso   1.00
C467   C     0.67994   0.07005   0.74999   0.00000  Uiso   1.00
C468   C     0.57005   0.32006   0.25001   0.00000  Uiso   1.00
C469   C     0.92995   0.17994   0.74999   0.00000  Uiso   1.00
C470   C     0.67995   0.42994   0.75001   0.00000  Uiso   1.00
C471   C     0.82005   0.07006   0.24999   0.00000  Uiso   1.00
C472   C     0.92994   0.32005   0.75001   0.00000  Uiso   1.00
C473   C     0.52697   0.26937   0.58177   0.00000  Uiso   1.00
C474   C     0.57006   0.17995   0.24999   0.00000  Uiso   1.00
C475   C     0.82005   0.07006   0.75001   0.00000  Uiso   1.00
C476   C     0.67995   0.42994   0.24999   0.00000  Uiso   1.00
C477   C     0.57006   0.17995   0.75001   0.00000  Uiso   1.00
C478   C     0.92994   0.32005   0.24999   0.00000  Uiso   1.00
C479   C     0.62255   0.40419   0.22404   0.00000  Uiso   1.00
C480   C     0.87744   0.09582   0.77596   0.00000  Uiso   1.00
C481   C     0.59582   0.12256   0.22403   0.00000  Uiso   1.00
C482   C     0.90418   0.37744   0.77597   0.00000  Uiso   1.00
C483   C     0.87744   0.09582   0.22404   0.00000  Uiso   1.00
C484   C     0.76922   0.47293   0.41824   0.00000  Uiso   1.00
C485   C     0.62255   0.40419   0.77596   0.00000  Uiso   1.00
C486   C     0.90418   0.37744   0.22403   0.00000  Uiso   1.00
C487   C     0.59582   0.12256   0.77597   0.00000  Uiso   1.00
C488   C     0.62254   0.09581   0.77595   0.00000  Uiso   1.00
C489   C     0.87746   0.40419   0.22406   0.00000  Uiso   1.00
C490   C     0.59580   0.37746   0.77594   0.00000  Uiso   1.00
C491   C     0.90420   0.12254   0.22406   0.00000  Uiso   1.00
C492   C     0.87746   0.40419   0.77595   0.00000  Uiso   1.00
C493   C     0.62254   0.09581   0.22405   0.00000  Uiso   1.00
C494   C     0.90420   0.12254   0.77594   0.00000  Uiso   1.00
C495   C     0.73076   0.02707   0.58176   0.00000  Uiso   1.00
C496   C     0.59580   0.37746   0.22406   0.00000  Uiso   1.00
C497   C     0.87256   0.15418   0.72404   0.00000  Uiso   1.00
C498   C     0.62744   0.34582   0.27596   0.00000  Uiso   1.00
C499   C     0.84582   0.37256   0.72403   0.00000  Uiso   1.00
C500   C     0.65418   0.12744   0.27597   0.00000  Uiso   1.00
C501   C     0.62744   0.34582   0.72404   0.00000  Uiso   1.00
C502   C     0.87256   0.15418   0.27596   0.00000  Uiso   1.00
C503   C     0.65418   0.12744   0.72403   0.00000  Uiso   1.00
C504   C     0.84582   0.37256   0.27597   0.00000  Uiso   1.00
C505   C     0.87254   0.34581   0.27595   0.00000  Uiso   1.00
C506   C     0.77687   0.01952   0.91822   0.00000  Uiso   1.00
C507   C     0.62746   0.15419   0.72406   0.00000  Uiso   1.00
C508   C     0.84580   0.12746   0.27594   0.00000  Uiso   1.00
C509   C     0.65420   0.37254   0.72406   0.00000  Uiso   1.00
C510   C     0.62746   0.15419   0.27595   0.00000  Uiso   1.00
C511   C     0.87254   0.34581   0.72406   0.00000  Uiso   1.00
C512   C     0.65420   0.37254   0.27594   0.00000  Uiso   1.00
C513   C     0.84580   0.12746   0.72406   0.00000  Uiso   1.00
C514   C     0.97067   0.23342   0.45901   0.00000  Uiso   1.00
C515   C     0.52934   0.26657   0.54099   0.00000  Uiso   1.00
C516   C     0.76639   0.47057   0.45902   0.00000  Uiso   1.00
H517   H     0.62026   0.42658   0.20370   0.00000  Uiso   1.00
H518   H     0.87976   0.42659   0.20373   0.00000  Uiso   1.00
H519   H     0.57340   0.37977   0.79625   0.00000  Uiso   1.00
H520   H     0.92660   0.12023   0.20375   0.00000  Uiso   1.00
H521   H     0.87976   0.42659   0.79627   0.00000  Uiso   1.00
H522   H     0.62024   0.07341   0.20373   0.00000  Uiso   1.00
H523   H     0.92660   0.12023   0.79625   0.00000  Uiso   1.00
H524   H     0.57340   0.37977   0.20375   0.00000  Uiso   1.00
H525   H     0.87026   0.17657   0.70370   0.00000  Uiso   1.00
H526   H     0.62974   0.32342   0.29630   0.00000  Uiso   1.00
H527   H     0.82344   0.37027   0.70369   0.00000  Uiso   1.00
H528   H     0.87974   0.07343   0.79630   0.00000  Uiso   1.00
H529   H     0.67656   0.12973   0.29631   0.00000  Uiso   1.00
H530   H     0.62974   0.32343   0.70370   0.00000  Uiso   1.00
H531   H     0.87026   0.17658   0.29630   0.00000  Uiso   1.00
H532   H     0.67656   0.12973   0.70369   0.00000  Uiso   1.00
H533   H     0.82344   0.37027   0.29631   0.00000  Uiso   1.00
H534   H     0.87024   0.32341   0.29627   0.00000  Uiso   1.00
H535   H     0.62976   0.17659   0.70373   0.00000  Uiso   1.00
H536   H     0.82340   0.12977   0.29625   0.00000  Uiso   1.00
H537   H     0.67660   0.37023   0.70375   0.00000  Uiso   1.00
H538   H     0.62976   0.17659   0.29627   0.00000  Uiso   1.00
H539   H     0.57344   0.12027   0.20369   0.00000  Uiso   1.00
H540   H     0.87024   0.32341   0.70373   0.00000  Uiso   1.00
H541   H     0.67660   0.37023   0.29625   0.00000  Uiso   1.00
H542   H     0.82340   0.12977   0.70375   0.00000  Uiso   1.00
H543   H     0.53271   0.33891   0.42336   0.00000  Uiso   1.00
H544   H     0.51013   0.32613   0.37819   0.00000  Uiso   1.00
H545   H     0.55587   0.34346   0.37784   0.00000  Uiso   1.00
H546   H     0.98986   0.17387   0.62183   0.00000  Uiso   1.00
H547   H     0.96730   0.16108   0.57665   0.00000  Uiso   1.00
H548   H     0.94413   0.15653   0.62217   0.00000  Uiso   1.00
H549   H     0.66126   0.03317   0.42340   0.00000  Uiso   1.00
H550   H     0.92656   0.37973   0.79631   0.00000  Uiso   1.00
H551   H     0.67391   0.01051   0.37823   0.00000  Uiso   1.00
H552   H     0.65681   0.05633   0.37787   0.00000  Uiso   1.00
H553   H     0.82610   0.48950   0.62172   0.00000  Uiso   1.00
H554   H     0.83873   0.46680   0.57656   0.00000  Uiso   1.00
H555   H     0.84319   0.44367   0.62211   0.00000  Uiso   1.00
H556   H     0.96729   0.16108   0.42335   0.00000  Uiso   1.00
H557   H     0.98989   0.17387   0.37819   0.00000  Uiso   1.00
H558   H     0.94416   0.15653   0.37781   0.00000  Uiso   1.00
H559   H     0.51013   0.32612   0.62183   0.00000  Uiso   1.00
H560   H     0.53269   0.33891   0.57664   0.00000  Uiso   1.00
H561   H     0.87974   0.07342   0.20370   0.00000  Uiso   1.00
H562   H     0.55586   0.34347   0.62215   0.00000  Uiso   1.00
H563   H     0.83873   0.46678   0.42344   0.00000  Uiso   1.00
H564   H     0.82610   0.48948   0.37829   0.00000  Uiso   1.00
H565   H     0.84318   0.44365   0.37789   0.00000  Uiso   1.00
H566   H     0.67391   0.01050   0.62177   0.00000  Uiso   1.00
H567   H     0.66126   0.03315   0.57659   0.00000  Uiso   1.00
H568   H     0.65680   0.05632   0.62212   0.00000  Uiso   1.00
H569   H     0.78223   0.08909   0.92328   0.00000  Uiso   1.00
H570   H     0.75976   0.07615   0.87809   0.00000  Uiso   1.00
H571   H     0.80540   0.09373   0.87777   0.00000  Uiso   1.00
H572   H     0.62026   0.42658   0.79630   0.00000  Uiso   1.00
H573   H     0.74028   0.42386   0.12190   0.00000  Uiso   1.00
H574   H     0.71782   0.41092   0.07670   0.00000  Uiso   1.00
H575   H     0.69465   0.40625   0.12220   0.00000  Uiso   1.00
H576   H     0.91115   0.28287   0.92337   0.00000  Uiso   1.00
H577   H     0.92389   0.26027   0.87819   0.00000  Uiso   1.00
H578   H     0.90663   0.30604   0.87785   0.00000  Uiso   1.00
H579   H     0.57612   0.23972   0.12177   0.00000  Uiso   1.00
H580   H     0.58885   0.21706   0.07662   0.00000  Uiso   1.00
H581   H     0.59335   0.19394   0.12217   0.00000  Uiso   1.00
H582   H     0.71774   0.41092   0.92332   0.00000  Uiso   1.00
H583   H     0.92656   0.37973   0.20369   0.00000  Uiso   1.00
H584   H     0.74025   0.42384   0.87815   0.00000  Uiso   1.00
H585   H     0.69460   0.40628   0.87780   0.00000  Uiso   1.00
H586   H     0.75971   0.07614   0.12193   0.00000  Uiso   1.00
H587   H     0.78216   0.08911   0.07674   0.00000  Uiso   1.00
H588   H     0.80534   0.09376   0.12224   0.00000  Uiso   1.00
H589   H     0.58886   0.21713   0.92338   0.00000  Uiso   1.00
H590   H     0.57611   0.23975   0.87821   0.00000  Uiso   1.00
H591   H     0.59337   0.19398   0.87784   0.00000  Uiso   1.00
H592   H     0.92389   0.26028   0.12180   0.00000  Uiso   1.00
H593   H     0.91115   0.28289   0.07662   0.00000  Uiso   1.00
H594   H     0.57344   0.12027   0.79631   0.00000  Uiso   1.00
H595   H     0.90664   0.30604   0.12215   0.00000  Uiso   1.00
H596   H     0.62024   0.07341   0.79627   0.00000  Uiso   1.00
N597   N     0.88061   0.19919   0.44406   0.00000  Uiso   1.00
N598   N     0.86905   0.05161   0.05593   0.00000  Uiso   1.00
N599   N     0.55053   0.13050   0.94406   0.00000  Uiso   1.00
N600   N     0.94950   0.36951   0.05594   0.00000  Uiso   1.00
N601   N     0.86909   0.05153   0.94407   0.00000  Uiso   1.00
N602   N     0.63091   0.44850   0.05594   0.00000  Uiso   1.00
N603   N     0.94947   0.36950   0.94406   0.00000  Uiso   1.00
N604   N     0.55050   0.13049   0.05594   0.00000  Uiso   1.00
N605   N     0.61940   0.30078   0.55594   0.00000  Uiso   1.00
N606   N     0.79998   0.38029   0.44406   0.00000  Uiso   1.00
N607   N     0.69995   0.11969   0.55595   0.00000  Uiso   1.00
N608   N     0.61940   0.30076   0.44406   0.00000  Uiso   1.00
N609   N     0.88061   0.19920   0.55594   0.00000  Uiso   1.00
N610   N     0.69993   0.11968   0.44406   0.00000  Uiso   1.00
N611   N     0.79999   0.38029   0.55595   0.00000  Uiso   1.00
N612   N     0.63088   0.44855   0.94407   0.00000  Uiso   1.00
O613   O     0.75000  -0.00000   0.25000   0.00000  Uiso   1.00
O614   O     0.75000   0.46964   0.66245   0.00000  Uiso   1.00
O615   O     0.96963   0.25000   0.33755   0.00000  Uiso   1.00
O616   O     0.53036   0.25000   0.66245   0.00000  Uiso   1.00
O617   O     0.50000   0.21964   0.83755   0.00000  Uiso   1.00
O618   O     0.50000   0.28037   0.16245   0.00000  Uiso   1.00
O619   O     0.78036  -0.00000   0.83755   0.00000  Uiso   1.00
O620   O     0.71963  -0.00000   0.16245   0.00000  Uiso   1.00
O621   O     0.50000   0.28037   0.83755   0.00000  Uiso   1.00
O622   O     0.50000   0.21964   0.16245   0.00000  Uiso   1.00
O623   O     0.71963  -0.00000   0.83755   0.00000  Uiso   1.00
O624   O     0.75000  -0.00000   0.75000   0.00000  Uiso   1.00
O625   O     0.78036  -0.00000   0.16245   0.00000  Uiso   1.00
O626   O     0.70724   0.07308   0.27302   0.00000  Uiso   1.00
O627   O     0.79275   0.42693   0.72698   0.00000  Uiso   1.00
O628   O     0.92692   0.20725   0.27302   0.00000  Uiso   1.00
O629   O     0.57307   0.29276   0.72698   0.00000  Uiso   1.00
O630   O     0.79275   0.42693   0.27302   0.00000  Uiso   1.00
O631   O     0.70724   0.07308   0.72698   0.00000  Uiso   1.00
O632   O     0.57307   0.29276   0.27302   0.00000  Uiso   1.00
O633   O     0.92692   0.20725   0.72698   0.00000  Uiso   1.00
O634   O     0.70724   0.42693   0.72698   0.00000  Uiso   1.00
O635   O     0.50000   0.25000   0.25000   0.00000  Uiso   1.00
O636   O     0.79275   0.07308   0.27302   0.00000  Uiso   1.00
O637   O     0.92692   0.29276   0.72698   0.00000  Uiso   1.00
O638   O     0.57307   0.20725   0.27302   0.00000  Uiso   1.00
O639   O     0.79275   0.07308   0.72698   0.00000  Uiso   1.00
O640   O     0.70724   0.42693   0.27302   0.00000  Uiso   1.00
O641   O     0.57307   0.20725   0.72698   0.00000  Uiso   1.00
O642   O     0.92692   0.29276   0.27302   0.00000  Uiso   1.00
O643   O     0.95724   0.32308   0.77302   0.00000  Uiso   1.00
O644   O     0.54275   0.17693   0.22698   0.00000  Uiso   1.00
O645   O     0.67692   0.45725   0.77302   0.00000  Uiso   1.00
O646   O     0.50000   0.25000   0.75000   0.00000  Uiso   1.00
O647   O     0.82307   0.04276   0.22698   0.00000  Uiso   1.00
O648   O     0.54275   0.17693   0.77302   0.00000  Uiso   1.00
O649   O     0.95724   0.32308   0.22698   0.00000  Uiso   1.00
O650   O     0.82307   0.04276   0.77302   0.00000  Uiso   1.00
O651   O     0.67692   0.45725   0.22698   0.00000  Uiso   1.00
O652   O     0.95724   0.17693   0.22698   0.00000  Uiso   1.00
O653   O     0.54275   0.32308   0.77302   0.00000  Uiso   1.00
O654   O     0.67692   0.04276   0.22698   0.00000  Uiso   1.00
O655   O     0.82307   0.45725   0.77302   0.00000  Uiso   1.00
O656   O     0.54275   0.32308   0.22698   0.00000  Uiso   1.00
O657   O     0.75000   0.46964   0.33755   0.00000  Uiso   1.00
O658   O     0.95724   0.17693   0.77302   0.00000  Uiso   1.00
O659   O     0.82307   0.45725   0.22698   0.00000  Uiso   1.00
O660   O     0.67692   0.04276   0.77302   0.00000  Uiso   1.00
O661   O     0.55113   0.29076   0.39736   0.00000  Uiso   1.00
O662   O     0.94887   0.20923   0.60264   0.00000  Uiso   1.00
O663   O     0.70948   0.05133   0.39738   0.00000  Uiso   1.00
O664   O     0.79051   0.44867   0.60262   0.00000  Uiso   1.00
O665   O     0.94888   0.20922   0.39736   0.00000  Uiso   1.00
O666   O     0.55113   0.29077   0.60264   0.00000  Uiso   1.00
O667   O     0.79050   0.44866   0.39738   0.00000  Uiso   1.00
O668   O     0.75000   0.03037   0.66245   0.00000  Uiso   1.00
O669   O     0.70948   0.05133   0.60262   0.00000  Uiso   1.00
O670   O     0.80092   0.04102   0.89734   0.00000  Uiso   1.00
O671   O     0.69909   0.45897   0.10265   0.00000  Uiso   1.00
O672   O     0.95932   0.30121   0.89737   0.00000  Uiso   1.00
O673   O     0.54066   0.19879   0.10263   0.00000  Uiso   1.00
O674   O     0.69907   0.45899   0.89735   0.00000  Uiso   1.00
O675   O     0.80090   0.04105   0.10266   0.00000  Uiso   1.00
O676   O     0.54068   0.19880   0.89737   0.00000  Uiso   1.00
O677   O     0.95933   0.30121   0.10263   0.00000  Uiso   1.00
O678   O     0.53036   0.25000   0.33755   0.00000  Uiso   1.00
O679   O     0.96963   0.25000   0.66245   0.00000  Uiso   1.00
O680   O     0.75000   0.03037   0.33755   0.00000  Uiso   1.00
Zn681  Zn    0.70659  -0.00000   0.21735   0.00000  Uiso   1.00
Zn682  Zn    0.54340   0.25000   0.28265   0.00000  Uiso   1.00
Zn683  Zn    0.75000   0.45660   0.71735   0.00000  Uiso   1.00
Zn684  Zn    0.75000   0.04341   0.28265   0.00000  Uiso   1.00
Zn685  Zn    0.54340   0.25000   0.71735   0.00000  Uiso   1.00
Zn686  Zn    0.95659   0.25000   0.28265   0.00000  Uiso   1.00
Zn687  Zn    0.75000   0.04341   0.71735   0.00000  Uiso   1.00
Zn688  Zn    0.75000   0.45660   0.28265   0.00000  Uiso   1.00
Zn689  Zn    0.79340  -0.00000   0.78265   0.00000  Uiso   1.00
Zn690  Zn    0.50000   0.20660   0.21735   0.00000  Uiso   1.00
Zn691  Zn    0.50000   0.29341   0.78265   0.00000  Uiso   1.00
Zn692  Zn    0.79340  -0.00000   0.21735   0.00000  Uiso   1.00
Zn693  Zn    0.70659  -0.00000   0.78265   0.00000  Uiso   1.00
Zn694  Zn    0.50000   0.29341   0.21735   0.00000  Uiso   1.00
Zn695  Zn    0.50000   0.20660   0.78265   0.00000  Uiso   1.00
Zn696  Zn    0.95659   0.25000   0.71735   0.00000  Uiso   1.00
C697   C     0.02697   0.76937   0.41823   0.00000  Uiso   1.00
C698   C     0.22314   0.98049   0.08177   0.00000  Uiso   1.00
C699   C     0.23358   0.52942   0.54099   0.00000  Uiso   1.00
C700   C     0.02934   0.76656   0.45901   0.00000  Uiso   1.00
C701   C     0.47066   0.73342   0.54099   0.00000  Uiso   1.00
C702   C     0.23358   0.52942   0.45901   0.00000  Uiso   1.00
C703   C     0.26639   0.97057   0.54099   0.00000  Uiso   1.00
C704   C     0.22075   0.98328   0.95901   0.00000  Uiso   1.00
C705   C     0.27923   0.51676   0.04099   0.00000  Uiso   1.00
C706   C     0.01651   0.72063   0.95901   0.00000  Uiso   1.00
C707   C     0.48349   0.77937   0.04099   0.00000  Uiso   1.00
C708   C     0.27924   0.51675   0.95901   0.00000  Uiso   1.00
C709   C     0.48067   0.77701   0.91823   0.00000  Uiso   1.00
C710   C     0.22075   0.98328   0.04099   0.00000  Uiso   1.00
C711   C     0.48349   0.77937   0.95901   0.00000  Uiso   1.00
C712   C     0.01651   0.72063   0.04099   0.00000  Uiso   1.00
C713   C     0.09812   0.84814   0.25002   0.00000  Uiso   1.00
C714   C     0.40188   0.65186   0.74998   0.00000  Uiso   1.00
C715   C     0.15186   0.59812   0.25002   0.00000  Uiso   1.00
C716   C     0.34814   0.90188   0.74998   0.00000  Uiso   1.00
C717   C     0.40188   0.65186   0.25002   0.00000  Uiso   1.00
C718   C     0.09812   0.84814   0.74998   0.00000  Uiso   1.00
C719   C     0.34814   0.90188   0.25002   0.00000  Uiso   1.00
C720   C     0.01932   0.72299   0.08177   0.00000  Uiso   1.00
C721   C     0.15186   0.59812   0.74998   0.00000  Uiso   1.00
C722   C     0.09814   0.65188   0.75002   0.00000  Uiso   1.00
C723   C     0.40186   0.84812   0.24998   0.00000  Uiso   1.00
C724   C     0.15188   0.90186   0.75002   0.00000  Uiso   1.00
C725   C     0.34812   0.59814   0.24998   0.00000  Uiso   1.00
C726   C     0.40186   0.84812   0.75002   0.00000  Uiso   1.00
C727   C     0.09814   0.65188   0.24998   0.00000  Uiso   1.00
C728   C     0.34812   0.59814   0.75002   0.00000  Uiso   1.00
C729   C     0.15188   0.90186   0.24998   0.00000  Uiso   1.00
C730   C     0.00000   0.74999   0.47953   0.00000  Uiso   1.00
C731   C     0.22313   0.98050   0.91823   0.00000  Uiso   1.00
C732   C     0.00000   0.74999   0.52048   0.00000  Uiso   1.00
C733   C     0.24998   0.50000   0.47953   0.00000  Uiso   1.00
C734   C     0.24999   0.50000   0.52047   0.00000  Uiso   1.00
C735   C     0.24999   0.50002   0.97952   0.00000  Uiso   1.00
C736   C     0.24999   0.50002   0.02048   0.00000  Uiso   1.00
C737   C    -0.00000   0.75000   0.97953   0.00000  Uiso   1.00
C738   C     0.00000   0.75000   0.02047   0.00000  Uiso   1.00
C739   C     0.40694   0.70850   0.45973   0.00000  Uiso   1.00
C740   C     0.09307   0.79147   0.54027   0.00000  Uiso   1.00
C741   C     0.29087   0.90668   0.45973   0.00000  Uiso   1.00
C742   C     0.27686   0.51953   0.08178   0.00000  Uiso   1.00
C743   C     0.20907   0.59330   0.54027   0.00000  Uiso   1.00
C744   C     0.09307   0.79146   0.45974   0.00000  Uiso   1.00
C745   C     0.40694   0.70851   0.54026   0.00000  Uiso   1.00
C746   C     0.20906   0.59330   0.45973   0.00000  Uiso   1.00
C747   C     0.29087   0.90668   0.54027   0.00000  Uiso   1.00
C748   C     0.15716   0.95801   0.95974   0.00000  Uiso   1.00
C749   C     0.34279   0.54211   0.04026   0.00000  Uiso   1.00
C750   C     0.04128   0.65685   0.95973   0.00000  Uiso   1.00
C751   C     0.45873   0.84316   0.04027   0.00000  Uiso   1.00
C752   C     0.34281   0.54206   0.95974   0.00000  Uiso   1.00
C753   C     0.01933   0.72300   0.91823   0.00000  Uiso   1.00
C754   C     0.15718   0.95798   0.04027   0.00000  Uiso   1.00
C755   C     0.45872   0.84315   0.95974   0.00000  Uiso   1.00
C756   C     0.04126   0.65684   0.04026   0.00000  Uiso   1.00
C757   C     0.03643   0.82623   0.39432   0.00000  Uiso   1.00
C758   C     0.46357   0.67377   0.60569   0.00000  Uiso   1.00
C759   C     0.17395   0.53681   0.39435   0.00000  Uiso   1.00
C760   C     0.32605   0.96319   0.60562   0.00000  Uiso   1.00
C761   C     0.46359   0.67377   0.39431   0.00000  Uiso   1.00
C762   C     0.03642   0.82623   0.60568   0.00000  Uiso   1.00
C763   C     0.32604   0.96317   0.39439   0.00000  Uiso   1.00
C764   C     0.48068   0.77701   0.08177   0.00000  Uiso   1.00
C765   C     0.17394   0.53680   0.60564   0.00000  Uiso   1.00
C766   C     0.28604   0.57640   0.89425   0.00000  Uiso   1.00
C767   C     0.21400   0.92360   0.10573   0.00000  Uiso   1.00
C768   C     0.42384   0.78657   0.89433   0.00000  Uiso   1.00
C769   C     0.07616   0.71341   0.10566   0.00000  Uiso   1.00
C770   C     0.21395   0.92360   0.89429   0.00000  Uiso   1.00
C771   C     0.28599   0.57642   0.10576   0.00000  Uiso   1.00
C772   C     0.07617   0.71344   0.89433   0.00000  Uiso   1.00
C773   C     0.42384   0.78657   0.10567   0.00000  Uiso   1.00
C774   C     0.00000   0.75000   0.39821   0.00000  Uiso   1.00
C775   C    -0.00000   0.75000   0.60179   0.00000  Uiso   1.00
C776   C     0.24999   0.50000   0.39822   0.00000  Uiso   1.00
C777   C     0.47303   0.73062   0.58177   0.00000  Uiso   1.00
C778   C     0.25000   0.50000   0.60178   0.00000  Uiso   1.00
C779   C     0.25000   0.50001   0.89821   0.00000  Uiso   1.00
C780   C     0.25000   0.50001   0.10179   0.00000  Uiso   1.00
C781   C    -0.00000   0.75000   0.89821   0.00000  Uiso   1.00
C782   C     0.00000   0.75000   0.10179   0.00000  Uiso   1.00
C783   C     0.43992   0.72022   0.47966   0.00000  Uiso   1.00
C784   C     0.06009   0.77976   0.52034   0.00000  Uiso   1.00
C785   C     0.27939   0.93974   0.47967   0.00000  Uiso   1.00
C786   C     0.22056   0.56025   0.52034   0.00000  Uiso   1.00
C787   C     0.06009   0.77976   0.47967   0.00000  Uiso   1.00
C788   C     0.23076   0.52707   0.41824   0.00000  Uiso   1.00
C789   C     0.43992   0.72022   0.52033   0.00000  Uiso   1.00
C790   C     0.22056   0.56025   0.47967   0.00000  Uiso   1.00
C791   C     0.27939   0.93974   0.52034   0.00000  Uiso   1.00
C792   C     0.19008   0.96990   0.97967   0.00000  Uiso   1.00
C793   C     0.30990   0.53016   0.02034   0.00000  Uiso   1.00
C794   C     0.02965   0.68985   0.97966   0.00000  Uiso   1.00
C795   C     0.47036   0.81015   0.02033   0.00000  Uiso   1.00
C796   C     0.30990   0.53015   0.97967   0.00000  Uiso   1.00
C797   C     0.19008   0.96989   0.02034   0.00000  Uiso   1.00
C798   C     0.47035   0.81015   0.97967   0.00000  Uiso   1.00
C799   C     0.26923   0.97293   0.58176   0.00000  Uiso   1.00
C800   C     0.02964   0.68985   0.02033   0.00000  Uiso   1.00
C801   C     0.25000   0.50000   0.35584   0.00000  Uiso   1.00
C802   C     0.25000   0.50000   0.64416   0.00000  Uiso   1.00
C803   C     0.00000   0.75000   0.35584   0.00000  Uiso   1.00
C804   C    -0.00000   0.75000   0.64416   0.00000  Uiso   1.00
C805   C    -0.00000   0.75000   0.85584   0.00000  Uiso   1.00
C806   C     0.00000   0.75000   0.14416   0.00000  Uiso   1.00
C807   C     0.25000   0.50000   0.85584   0.00000  Uiso   1.00
C808   C     0.25000   0.50000   0.14416   0.00000  Uiso   1.00
C809   C     0.17994   0.57005   0.25001   0.00000  Uiso   1.00
C810   C     0.47303   0.73062   0.41823   0.00000  Uiso   1.00
C811   C     0.32006   0.92995   0.74999   0.00000  Uiso   1.00
C812   C     0.42995   0.67994   0.25001   0.00000  Uiso   1.00
C813   C     0.07005   0.82006   0.74999   0.00000  Uiso   1.00
C814   C     0.32006   0.92995   0.25001   0.00000  Uiso   1.00
C815   C     0.17994   0.57005   0.74999   0.00000  Uiso   1.00
C816   C     0.07005   0.82006   0.25001   0.00000  Uiso   1.00
C817   C     0.42995   0.67994   0.74999   0.00000  Uiso   1.00
C818   C     0.17995   0.92994   0.75001   0.00000  Uiso   1.00
C819   C     0.32005   0.57006   0.24999   0.00000  Uiso   1.00
C820   C     0.42994   0.82005   0.75001   0.00000  Uiso   1.00
C821   C     0.02697   0.76937   0.58177   0.00000  Uiso   1.00
C822   C     0.07006   0.67995   0.24999   0.00000  Uiso   1.00
C823   C     0.32005   0.57006   0.75001   0.00000  Uiso   1.00
C824   C     0.17995   0.92994   0.24999   0.00000  Uiso   1.00
C825   C     0.07006   0.67995   0.75001   0.00000  Uiso   1.00
C826   C     0.42994   0.82005   0.24999   0.00000  Uiso   1.00
C827   C     0.12255   0.90419   0.22404   0.00000  Uiso   1.00
C828   C     0.37744   0.59582   0.77596   0.00000  Uiso   1.00
C829   C     0.09582   0.62256   0.22403   0.00000  Uiso   1.00
C830   C     0.40418   0.87744   0.77597   0.00000  Uiso   1.00
C831   C     0.37744   0.59582   0.22404   0.00000  Uiso   1.00
C832   C     0.26922   0.97293   0.41824   0.00000  Uiso   1.00
C833   C     0.12255   0.90419   0.77596   0.00000  Uiso   1.00
C834   C     0.40418   0.87744   0.22403   0.00000  Uiso   1.00
C835   C     0.09582   0.62256   0.77597   0.00000  Uiso   1.00
C836   C     0.12254   0.59581   0.77595   0.00000  Uiso   1.00
C837   C     0.37746   0.90419   0.22406   0.00000  Uiso   1.00
C838   C     0.09580   0.87746   0.77594   0.00000  Uiso   1.00
C839   C     0.40420   0.62254   0.22406   0.00000  Uiso   1.00
C840   C     0.37746   0.90419   0.77595   0.00000  Uiso   1.00
C841   C     0.12254   0.59581   0.22405   0.00000  Uiso   1.00
C842   C     0.40420   0.62254   0.77594   0.00000  Uiso   1.00
C843   C     0.23076   0.52707   0.58176   0.00000  Uiso   1.00
C844   C     0.09580   0.87746   0.22406   0.00000  Uiso   1.00
C845   C     0.37256   0.65418   0.72404   0.00000  Uiso   1.00
C846   C     0.12744   0.84582   0.27596   0.00000  Uiso   1.00
C847   C     0.34582   0.87256   0.72403   0.00000  Uiso   1.00
C848   C     0.15418   0.62744   0.27597   0.00000  Uiso   1.00
C849   C     0.12744   0.84582   0.72404   0.00000  Uiso   1.00
C850   C     0.37256   0.65418   0.27596   0.00000  Uiso   1.00
C851   C     0.15418   0.62744   0.72403   0.00000  Uiso   1.00
C852   C     0.34582   0.87256   0.27597   0.00000  Uiso   1.00
C853   C     0.37254   0.84581   0.27595   0.00000  Uiso   1.00
C854   C     0.27687   0.51952   0.91822   0.00000  Uiso   1.00
C855   C     0.12746   0.65419   0.72406   0.00000  Uiso   1.00
C856   C     0.34580   0.62746   0.27594   0.00000  Uiso   1.00
C857   C     0.15420   0.87254   0.72406   0.00000  Uiso   1.00
C858   C     0.12746   0.65419   0.27595   0.00000  Uiso   1.00
C859   C     0.37254   0.84581   0.72406   0.00000  Uiso   1.00
C860   C     0.15420   0.87254   0.27594   0.00000  Uiso   1.00
C861   C     0.34580   0.62746   0.72406   0.00000  Uiso   1.00
C862   C     0.47067   0.73342   0.45901   0.00000  Uiso   1.00
C863   C     0.02934   0.76657   0.54099   0.00000  Uiso   1.00
C864   C     0.26639   0.97057   0.45902   0.00000  Uiso   1.00
H865   H     0.12026   0.92658   0.20370   0.00000  Uiso   1.00
H866   H     0.37976   0.92659   0.20373   0.00000  Uiso   1.00
H867   H     0.07340   0.87977   0.79625   0.00000  Uiso   1.00
H868   H     0.42660   0.62023   0.20375   0.00000  Uiso   1.00
H869   H     0.37976   0.92659   0.79627   0.00000  Uiso   1.00
H870   H     0.12024   0.57341   0.20373   0.00000  Uiso   1.00
H871   H     0.42660   0.62023   0.79625   0.00000  Uiso   1.00
H872   H     0.07340   0.87977   0.20375   0.00000  Uiso   1.00
H873   H     0.37026   0.67657   0.70370   0.00000  Uiso   1.00
H874   H     0.12974   0.82342   0.29630   0.00000  Uiso   1.00
H875   H     0.32344   0.87027   0.70369   0.00000  Uiso   1.00
H876   H     0.37974   0.57343   0.79630   0.00000  Uiso   1.00
H877   H     0.17656   0.62973   0.29631   0.00000  Uiso   1.00
H878   H     0.12974   0.82343   0.70370   0.00000  Uiso   1.00
H879   H     0.37026   0.67658   0.29630   0.00000  Uiso   1.00
H880   H     0.17656   0.62973   0.70369   0.00000  Uiso   1.00
H881   H     0.32344   0.87027   0.29631   0.00000  Uiso   1.00
H882   H     0.37024   0.82341   0.29627   0.00000  Uiso   1.00
H883   H     0.12976   0.67659   0.70373   0.00000  Uiso   1.00
H884   H     0.32340   0.62977   0.29625   0.00000  Uiso   1.00
H885   H     0.17660   0.87023   0.70375   0.00000  Uiso   1.00
H886   H     0.12976   0.67659   0.29627   0.00000  Uiso   1.00
H887   H     0.07344   0.62027   0.20369   0.00000  Uiso   1.00
H888   H     0.37024   0.82341   0.70373   0.00000  Uiso   1.00
H889   H     0.17660   0.87023   0.29625   0.00000  Uiso   1.00
H890   H     0.32340   0.62977   0.70375   0.00000  Uiso   1.00
H891   H     0.03271   0.83891   0.42336   0.00000  Uiso   1.00
H892   H     0.01013   0.82613   0.37819   0.00000  Uiso   1.00
H893   H     0.05587   0.84346   0.37784   0.00000  Uiso   1.00
H894   H     0.48986   0.67387   0.62183   0.00000  Uiso   1.00
H895   H     0.46730   0.66108   0.57665   0.00000  Uiso   1.00
H896   H     0.44413   0.65653   0.62217   0.00000  Uiso   1.00
H897   H     0.16126   0.53317   0.42340   0.00000  Uiso   1.00
H898   H     0.42656   0.87973   0.79631   0.00000  Uiso   1.00
H899   H     0.17391   0.51051   0.37823   0.00000  Uiso   1.00
H900   H     0.15681   0.55633   0.37787   0.00000  Uiso   1.00
H901   H     0.32610   0.98950   0.62172   0.00000  Uiso   1.00
H902   H     0.33873   0.96680   0.57656   0.00000  Uiso   1.00
H903   H     0.34319   0.94367   0.62211   0.00000  Uiso   1.00
H904   H     0.46729   0.66108   0.42335   0.00000  Uiso   1.00
H905   H     0.48989   0.67387   0.37819   0.00000  Uiso   1.00
H906   H     0.44416   0.65653   0.37781   0.00000  Uiso   1.00
H907   H     0.01013   0.82612   0.62183   0.00000  Uiso   1.00
H908   H     0.03269   0.83891   0.57664   0.00000  Uiso   1.00
H909   H     0.37974   0.57342   0.20370   0.00000  Uiso   1.00
H910   H     0.05586   0.84347   0.62215   0.00000  Uiso   1.00
H911   H     0.33873   0.96678   0.42344   0.00000  Uiso   1.00
H912   H     0.32610   0.98948   0.37829   0.00000  Uiso   1.00
H913   H     0.34318   0.94365   0.37789   0.00000  Uiso   1.00
H914   H     0.17391   0.51050   0.62177   0.00000  Uiso   1.00
H915   H     0.16126   0.53315   0.57659   0.00000  Uiso   1.00
H916   H     0.15680   0.55632   0.62212   0.00000  Uiso   1.00
H917   H     0.28223   0.58909   0.92328   0.00000  Uiso   1.00
H918   H     0.25976   0.57615   0.87809   0.00000  Uiso   1.00
H919   H     0.30540   0.59373   0.87777   0.00000  Uiso   1.00
H920   H     0.12026   0.92658   0.79630   0.00000  Uiso   1.00
H921   H     0.24028   0.92386   0.12190   0.00000  Uiso   1.00
H922   H     0.21782   0.91092   0.07670   0.00000  Uiso   1.00
H923   H     0.19465   0.90625   0.12220   0.00000  Uiso   1.00
H924   H     0.41115   0.78287   0.92337   0.00000  Uiso   1.00
H925   H     0.42389   0.76027   0.87819   0.00000  Uiso   1.00
H926   H     0.40663   0.80604   0.87785   0.00000  Uiso   1.00
H927   H     0.07612   0.73972   0.12177   0.00000  Uiso   1.00
H928   H     0.08885   0.71706   0.07662   0.00000  Uiso   1.00
H929   H     0.09335   0.69394   0.12217   0.00000  Uiso   1.00
H930   H     0.21774   0.91092   0.92332   0.00000  Uiso   1.00
H931   H     0.42656   0.87973   0.20369   0.00000  Uiso   1.00
H932   H     0.24025   0.92384   0.87815   0.00000  Uiso   1.00
H933   H     0.19460   0.90628   0.87780   0.00000  Uiso   1.00
H934   H     0.25971   0.57614   0.12193   0.00000  Uiso   1.00
H935   H     0.28216   0.58911   0.07674   0.00000  Uiso   1.00
H936   H     0.30534   0.59376   0.12224   0.00000  Uiso   1.00
H937   H     0.08886   0.71713   0.92338   0.00000  Uiso   1.00
H938   H     0.07611   0.73975   0.87821   0.00000  Uiso   1.00
H939   H     0.09337   0.69398   0.87784   0.00000  Uiso   1.00
H940   H     0.42389   0.76028   0.12180   0.00000  Uiso   1.00
H941   H     0.41115   0.78289   0.07662   0.00000  Uiso   1.00
H942   H     0.07344   0.62027   0.79631   0.00000  Uiso   1.00
H943   H     0.40664   0.80604   0.12215   0.00000  Uiso   1.00
H944   H     0.12024   0.57341   0.79627   0.00000  Uiso   1.00
N945   N     0.38061   0.69919   0.44406   0.00000  Uiso   1.00
N946   N     0.36905   0.55161   0.05593   0.00000  Uiso   1.00
N947   N     0.05053   0.63050   0.94406   0.00000  Uiso   1.00
N948   N     0.44950   0.86951   0.05594   0.00000  Uiso   1.00
N949   N     0.36909   0.55153   0.94407   0.00000  Uiso   1.00
N950   N     0.13091   0.94850   0.05594   0.00000  Uiso   1.00
N951   N     0.44947   0.86950   0.94406   0.00000  Uiso   1.00
N952   N     0.05050   0.63049   0.05594   0.00000  Uiso   1.00
N953   N     0.11940   0.80078   0.55594   0.00000  Uiso   1.00
N954   N     0.29998   0.88029   0.44406   0.00000  Uiso   1.00
N955   N     0.19995   0.61969   0.55595   0.00000  Uiso   1.00
N956   N     0.11940   0.80076   0.44406   0.00000  Uiso   1.00
N957   N     0.38061   0.69920   0.55594   0.00000  Uiso   1.00
N958   N     0.19993   0.61968   0.44406   0.00000  Uiso   1.00
N959   N     0.29999   0.88029   0.55595   0.00000  Uiso   1.00
N960   N     0.13088   0.94855   0.94407   0.00000  Uiso   1.00
O961   O     0.25000   0.50000   0.25000   0.00000  Uiso   1.00
O962   O     0.25000   0.96964   0.66245   0.00000  Uiso   1.00
O963   O     0.46963   0.75000   0.33755   0.00000  Uiso   1.00
O964   O     0.03036   0.75000   0.66245   0.00000  Uiso   1.00
O965   O     0.00000   0.71964   0.83755   0.00000  Uiso   1.00
O966   O    -0.00000   0.78037   0.16245   0.00000  Uiso   1.00
O967   O     0.28036   0.50000   0.83755   0.00000  Uiso   1.00
O968   O     0.21963   0.50000   0.16245   0.00000  Uiso   1.00
O969   O     0.00000   0.78037   0.83755   0.00000  Uiso   1.00
O970   O    -0.00000   0.71964   0.16245   0.00000  Uiso   1.00
O971   O     0.21963   0.50000   0.83755   0.00000  Uiso   1.00
O972   O     0.25000   0.50000   0.75000   0.00000  Uiso   1.00
O973   O     0.28036   0.50000   0.16245   0.00000  Uiso   1.00
O974   O     0.20724   0.57308   0.27302   0.00000  Uiso   1.00
O975   O     0.29275   0.92693   0.72698   0.00000  Uiso   1.00
O976   O     0.42692   0.70725   0.27302   0.00000  Uiso   1.00
O977   O     0.07307   0.79276   0.72698   0.00000  Uiso   1.00
O978   O     0.29275   0.92693   0.27302   0.00000  Uiso   1.00
O979   O     0.20724   0.57308   0.72698   0.00000  Uiso   1.00
O980   O     0.07307   0.79276   0.27302   0.00000  Uiso   1.00
O981   O     0.42692   0.70725   0.72698   0.00000  Uiso   1.00
O982   O     0.20724   0.92693   0.72698   0.00000  Uiso   1.00
O983   O    -0.00000   0.75000   0.25000   0.00000  Uiso   1.00
O984   O     0.29275   0.57308   0.27302   0.00000  Uiso   1.00
O985   O     0.42692   0.79276   0.72698   0.00000  Uiso   1.00
O986   O     0.07307   0.70725   0.27302   0.00000  Uiso   1.00
O987   O     0.29275   0.57308   0.72698   0.00000  Uiso   1.00
O988   O     0.20724   0.92693   0.27302   0.00000  Uiso   1.00
O989   O     0.07307   0.70725   0.72698   0.00000  Uiso   1.00
O990   O     0.42692   0.79276   0.27302   0.00000  Uiso   1.00
O991   O     0.45724   0.82308   0.77302   0.00000  Uiso   1.00
O992   O     0.04275   0.67693   0.22698   0.00000  Uiso   1.00
O993   O     0.17692   0.95725   0.77302   0.00000  Uiso   1.00
O994   O    -0.00000   0.75000   0.75000   0.00000  Uiso   1.00
O995   O     0.32307   0.54276   0.22698   0.00000  Uiso   1.00
O996   O     0.04275   0.67693   0.77302   0.00000  Uiso   1.00
O997   O     0.45724   0.82308   0.22698   0.00000  Uiso   1.00
O998   O     0.32307   0.54276   0.77302   0.00000  Uiso   1.00
O999   O     0.17692   0.95725   0.22698   0.00000  Uiso   1.00
O1000  O     0.45724   0.67693   0.22698   0.00000  Uiso   1.00
O1001  O     0.04275   0.82308   0.77302   0.00000  Uiso   1.00
O1002  O     0.17692   0.54276   0.22698   0.00000  Uiso   1.00
O1003  O     0.32307   0.95725   0.77302   0.00000  Uiso   1.00
O1004  O     0.04275   0.82308   0.22698   0.00000  Uiso   1.00
O1005  O     0.25000   0.96964   0.33755   0.00000  Uiso   1.00
O1006  O     0.45724   0.67693   0.77302   0.00000  Uiso   1.00
O1007  O     0.32307   0.95725   0.22698   0.00000  Uiso   1.00
O1008  O     0.17692   0.54276   0.77302   0.00000  Uiso   1.00
O1009  O     0.05113   0.79076   0.39736   0.00000  Uiso   1.00
O1010  O     0.44887   0.70923   0.60264   0.00000  Uiso   1.00
O1011  O     0.20948   0.55133   0.39738   0.00000  Uiso   1.00
O1012  O     0.29051   0.94867   0.60262   0.00000  Uiso   1.00
O1013  O     0.44888   0.70922   0.39736   0.00000  Uiso   1.00
O1014  O     0.05113   0.79077   0.60264   0.00000  Uiso   1.00
O1015  O     0.29050   0.94866   0.39738   0.00000  Uiso   1.00
O1016  O     0.25000   0.53037   0.66245   0.00000  Uiso   1.00
O1017  O     0.20948   0.55133   0.60262   0.00000  Uiso   1.00
O1018  O     0.30092   0.54102   0.89734   0.00000  Uiso   1.00
O1019  O     0.19909   0.95897   0.10265   0.00000  Uiso   1.00
O1020  O     0.45932   0.80121   0.89737   0.00000  Uiso   1.00
O1021  O     0.04066   0.69879   0.10263   0.00000  Uiso   1.00
O1022  O     0.19907   0.95899   0.89735   0.00000  Uiso   1.00
O1023  O     0.30090   0.54105   0.10266   0.00000  Uiso   1.00
O1024  O     0.04068   0.69880   0.89737   0.00000  Uiso   1.00
O1025  O     0.45933   0.80121   0.10263   0.00000  Uiso   1.00
O1026  O     0.03036   0.75000   0.33755   0.00000  Uiso   1.00
O1027  O     0.46963   0.75000   0.66245   0.00000  Uiso   1.00
O1028  O     0.25000   0.53037   0.33755   0.00000  Uiso   1.00
Zn1029 Zn    0.20659   0.50000   0.21735   0.00000  Uiso   1.00
Zn1030 Zn    0.04340   0.75000   0.28265   0.00000  Uiso   1.00
Zn1031 Zn    0.25000   0.95660   0.71735   0.00000  Uiso   1.00
Zn1032 Zn    0.25000   0.54341   0.28265   0.00000  Uiso   1.00
Zn1033 Zn    0.04340   0.75000   0.71735   0.00000  Uiso   1.00
Zn1034 Zn    0.45659   0.75000   0.28265   0.00000  Uiso   1.00
Zn1035 Zn    0.25000   0.54341   0.71735   0.00000  Uiso   1.00
Zn1036 Zn    0.25000   0.95660   0.28265   0.00000  Uiso   1.00
Zn1037 Zn    0.29340   0.50000   0.78265   0.00000  Uiso   1.00
Zn1038 Zn    0.00000   0.70660   0.21735   0.00000  Uiso   1.00
Zn1039 Zn    0.00000   0.79341   0.78265   0.00000  Uiso   1.00
Zn1040 Zn    0.29340   0.50000   0.21735   0.00000  Uiso   1.00
Zn1041 Zn    0.20659   0.50000   0.78265   0.00000  Uiso   1.00
Zn1042 Zn    0.00000   0.79341   0.21735   0.00000  Uiso   1.00
Zn1043 Zn   -0.00000   0.70660   0.78265   0.00000  Uiso   1.00
Zn1044 Zn    0.45659   0.75000   0.71735   0.00000  Uiso   1.00
C1045  C     0.52697   0.76937   0.41823   0.00000  Uiso   1.00
C1046  C     0.72314   0.98049   0.08177   0.00000  Uiso   1.00
C1047  C     0.73358   0.52942   0.54099   0.00000  Uiso   1.00
C1048  C     0.52934   0.76656   0.45901   0.00000  Uiso   1.00
C1049  C     0.97066   0.73342   0.54099   0.00000  Uiso   1.00
C1050  C     0.73358   0.52942   0.45901   0.00000  Uiso   1.00
C1051  C     0.76639   0.97057   0.54099   0.00000  Uiso   1.00
C1052  C     0.72075   0.98328   0.95901   0.00000  Uiso   1.00
C1053  C     0.77923   0.51676   0.04099   0.00000  Uiso   1.00
C1054  C     0.51651   0.72063   0.95901   0.00000  Uiso   1.00
C1055  C     0.98349   0.77937   0.04099   0.00000  Uiso   1.00
C1056  C     0.77924   0.51675   0.95901   0.00000  Uiso   1.00
C1057  C     0.98067   0.77701   0.91823   0.00000  Uiso   1.00
C1058  C     0.72075   0.98328   0.04099   0.00000  Uiso   1.00
C1059  C     0.98349   0.77937   0.95901   0.00000  Uiso   1.00
C1060  C     0.51651   0.72063   0.04099   0.00000  Uiso   1.00
C1061  C     0.59812   0.84814   0.25002   0.00000  Uiso   1.00
C1062  C     0.90188   0.65186   0.74998   0.00000  Uiso   1.00
C1063  C     0.65186   0.59812   0.25002   0.00000  Uiso   1.00
C1064  C     0.84814   0.90188   0.74998   0.00000  Uiso   1.00
C1065  C     0.90188   0.65186   0.25002   0.00000  Uiso   1.00
C1066  C     0.59812   0.84814   0.74998   0.00000  Uiso   1.00
C1067  C     0.84814   0.90188   0.25002   0.00000  Uiso   1.00
C1068  C     0.51932   0.72299   0.08177   0.00000  Uiso   1.00
C1069  C     0.65186   0.59812   0.74998   0.00000  Uiso   1.00
C1070  C     0.59814   0.65188   0.75002   0.00000  Uiso   1.00
C1071  C     0.90186   0.84812   0.24998   0.00000  Uiso   1.00
C1072  C     0.65188   0.90186   0.75002   0.00000  Uiso   1.00
C1073  C     0.84812   0.59814   0.24998   0.00000  Uiso   1.00
C1074  C     0.90186   0.84812   0.75002   0.00000  Uiso   1.00
C1075  C     0.59814   0.65188   0.24998   0.00000  Uiso   1.00
C1076  C     0.84812   0.59814   0.75002   0.00000  Uiso   1.00
C1077  C     0.65188   0.90186   0.24998   0.00000  Uiso   1.00
C1078  C     0.50000   0.74999   0.47953   0.00000  Uiso   1.00
C1079  C     0.72313   0.98050   0.91823   0.00000  Uiso   1.00
C1080  C     0.50000   0.74999   0.52048   0.00000  Uiso   1.00
C1081  C     0.74998   0.50000   0.47953   0.00000  Uiso   1.00
C1082  C     0.74999   0.50000   0.52047   0.00000  Uiso   1.00
C1083  C     0.74999   0.50002   0.97952   0.00000  Uiso   1.00
C1084  C     0.74999   0.50002   0.02048   0.00000  Uiso   1.00
C1085  C     0.50000   0.75000   0.97953   0.00000  Uiso   1.00
C1086  C     0.50000   0.75000   0.02047   0.00000  Uiso   1.00
C1087  C     0.90694   0.70850   0.45973   0.00000  Uiso   1.00
C1088  C     0.59307   0.79147   0.54027   0.00000  Uiso   1.00
C1089  C     0.79087   0.90668   0.45973   0.00000  Uiso   1.00
C1090  C     0.77686   0.51953   0.08178   0.00000  Uiso   1.00
C1091  C     0.70907   0.59330   0.54027   0.00000  Uiso   1.00
C1092  C     0.59307   0.79146   0.45974   0.00000  Uiso   1.00
C1093  C     0.90694   0.70851   0.54026   0.00000  Uiso   1.00
C1094  C     0.70906   0.59330   0.45973   0.00000  Uiso   1.00
C1095  C     0.79087   0.90668   0.54027   0.00000  Uiso   1.00
C1096  C     0.65716   0.95801   0.95974   0.00000  Uiso   1.00
C1097  C     0.84279   0.54211   0.04026   0.00000  Uiso   1.00
C1098  C     0.54128   0.65685   0.95973   0.00000  Uiso   1.00
C1099  C     0.95873   0.84316   0.04027   0.00000  Uiso   1.00
C1100  C     0.84281   0.54206   0.95974   0.00000  Uiso   1.00
C1101  C     0.51933   0.72300   0.91823   0.00000  Uiso   1.00
C1102  C     0.65718   0.95798   0.04027   0.00000  Uiso   1.00
C1103  C     0.95872   0.84315   0.95974   0.00000  Uiso   1.00
C1104  C     0.54126   0.65684   0.04026   0.00000  Uiso   1.00
C1105  C     0.53643   0.82623   0.39432   0.00000  Uiso   1.00
C1106  C     0.96357   0.67377   0.60569   0.00000  Uiso   1.00
C1107  C     0.67395   0.53681   0.39435   0.00000  Uiso   1.00
C1108  C     0.82605   0.96319   0.60562   0.00000  Uiso   1.00
C1109  C     0.96359   0.67377   0.39431   0.00000  Uiso   1.00
C1110  C     0.53642   0.82623   0.60568   0.00000  Uiso   1.00
C1111  C     0.82604   0.96317   0.39439   0.00000  Uiso   1.00
C1112  C     0.98068   0.77701   0.08177   0.00000  Uiso   1.00
C1113  C     0.67394   0.53680   0.60564   0.00000  Uiso   1.00
C1114  C     0.78604   0.57640   0.89425   0.00000  Uiso   1.00
C1115  C     0.71400   0.92360   0.10573   0.00000  Uiso   1.00
C1116  C     0.92384   0.78657   0.89433   0.00000  Uiso   1.00
C1117  C     0.57616   0.71341   0.10566   0.00000  Uiso   1.00
C1118  C     0.71395   0.92360   0.89429   0.00000  Uiso   1.00
C1119  C     0.78599   0.57642   0.10576   0.00000  Uiso   1.00
C1120  C     0.57617   0.71344   0.89433   0.00000  Uiso   1.00
C1121  C     0.92384   0.78657   0.10567   0.00000  Uiso   1.00
C1122  C     0.50000   0.75000   0.39821   0.00000  Uiso   1.00
C1123  C     0.50000   0.75000   0.60179   0.00000  Uiso   1.00
C1124  C     0.74999   0.50000   0.39822   0.00000  Uiso   1.00
C1125  C     0.97303   0.73062   0.58177   0.00000  Uiso   1.00
C1126  C     0.75000   0.50000   0.60178   0.00000  Uiso   1.00
C1127  C     0.75000   0.50001   0.89821   0.00000  Uiso   1.00
C1128  C     0.75000   0.50001   0.10179   0.00000  Uiso   1.00
C1129  C     0.50000   0.75000   0.89821   0.00000  Uiso   1.00
C1130  C     0.50000   0.75000   0.10179   0.00000  Uiso   1.00
C1131  C     0.93992   0.72022   0.47966   0.00000  Uiso   1.00
C1132  C     0.56009   0.77976   0.52034   0.00000  Uiso   1.00
C1133  C     0.77939   0.93974   0.47967   0.00000  Uiso   1.00
C1134  C     0.72056   0.56025   0.52034   0.00000  Uiso   1.00
C1135  C     0.56009   0.77976   0.47967   0.00000  Uiso   1.00
C1136  C     0.73076   0.52707   0.41824   0.00000  Uiso   1.00
C1137  C     0.93992   0.72022   0.52033   0.00000  Uiso   1.00
C1138  C     0.72056   0.56025   0.47967   0.00000  Uiso   1.00
C1139  C     0.77939   0.93974   0.52034   0.00000  Uiso   1.00
C1140  C     0.69008   0.96990   0.97967   0.00000  Uiso   1.00
C1141  C     0.80990   0.53016   0.02034   0.00000  Uiso   1.00
C1142  C     0.52965   0.68985   0.97966   0.00000  Uiso   1.00
C1143  C     0.97036   0.81015   0.02033   0.00000  Uiso   1.00
C1144  C     0.80990   0.53015   0.97967   0.00000  Uiso   1.00
C1145  C     0.69008   0.96989   0.02034   0.00000  Uiso   1.00
C1146  C     0.97035   0.81015   0.97967   0.00000  Uiso   1.00
C1147  C     0.76923   0.97293   0.58176   0.00000  Uiso   1.00
C1148  C     0.52964   0.68985   0.02033   0.00000  Uiso   1.00
C1149  C     0.75000   0.50000   0.35584   0.00000  Uiso   1.00
C1150  C     0.75000   0.50000   0.64416   0.00000  Uiso   1.00
C1151  C     0.50000   0.75000   0.35584   0.00000  Uiso   1.00
C1152  C     0.50000   0.75000   0.64416   0.00000  Uiso   1.00
C1153  C     0.50000   0.75000   0.85584   0.00000  Uiso   1.00
C1154  C     0.50000   0.75000   0.14416   0.00000  Uiso   1.00
C1155  C     0.75000   0.50000   0.85584   0.00000  Uiso   1.00
C1156  C     0.75000   0.50000   0.14416   0.00000  Uiso   1.00
C1157  C     0.67994   0.57005   0.25001   0.00000  Uiso   1.00
C1158  C     0.97303   0.73062   0.41823   0.00000  Uiso   1.00
C1159  C     0.82006   0.92995   0.74999   0.00000  Uiso   1.00
C1160  C     0.92995   0.67994   0.25001   0.00000  Uiso   1.00
C1161  C     0.57005   0.82006   0.74999   0.00000  Uiso   1.00
C1162  C     0.82006   0.92995   0.25001   0.00000  Uiso   1.00
C1163  C     0.67994   0.57005   0.74999   0.00000  Uiso   1.00
C1164  C     0.57005   0.82006   0.25001   0.00000  Uiso   1.00
C1165  C     0.92995   0.67994   0.74999   0.00000  Uiso   1.00
C1166  C     0.67995   0.92994   0.75001   0.00000  Uiso   1.00
C1167  C     0.82005   0.57006   0.24999   0.00000  Uiso   1.00
C1168  C     0.92994   0.82005   0.75001   0.00000  Uiso   1.00
C1169  C     0.52697   0.76937   0.58177   0.00000  Uiso   1.00
C1170  C     0.57006   0.67995   0.24999   0.00000  Uiso   1.00
C1171  C     0.82005   0.57006   0.75001   0.00000  Uiso   1.00
C1172  C     0.67995   0.92994   0.24999   0.00000  Uiso   1.00
C1173  C     0.57006   0.67995   0.75001   0.00000  Uiso   1.00
C1174  C     0.92994   0.82005   0.24999   0.00000  Uiso   1.00
C1175  C     0.62255   0.90419   0.22404   0.00000  Uiso   1.00
C1176  C     0.87744   0.59582   0.77596   0.00000  Uiso   1.00
C1177  C     0.59582   0.62256   0.22403   0.00000  Uiso   1.00
C1178  C     0.90418   0.87744   0.77597   0.00000  Uiso   1.00
C1179  C     0.87744   0.59582   0.22404   0.00000  Uiso   1.00
C1180  C     0.76922   0.97293   0.41824   0.00000  Uiso   1.00
C1181  C     0.62255   0.90419   0.77596   0.00000  Uiso   1.00
C1182  C     0.90418   0.87744   0.22403   0.00000  Uiso   1.00
C1183  C     0.59582   0.62256   0.77597   0.00000  Uiso   1.00
C1184  C     0.62254   0.59581   0.77595   0.00000  Uiso   1.00
C1185  C     0.87746   0.90419   0.22406   0.00000  Uiso   1.00
C1186  C     0.59580   0.87746   0.77594   0.00000  Uiso   1.00
C1187  C     0.90420   0.62254   0.22406   0.00000  Uiso   1.00
C1188  C     0.87746   0.90419   0.77595   0.00000  Uiso   1.00
C1189  C     0.62254   0.59581   0.22405   0.00000  Uiso   1.00
C1190  C     0.90420   0.62254   0.77594   0.00000  Uiso   1.00
C1191  C     0.73076   0.52707   0.58176   0.00000  Uiso   1.00
C1192  C     0.59580   0.87746   0.22406   0.00000  Uiso   1.00
C1193  C     0.87256   0.65418   0.72404   0.00000  Uiso   1.00
C1194  C     0.62744   0.84582   0.27596   0.00000  Uiso   1.00
C1195  C     0.84582   0.87256   0.72403   0.00000  Uiso   1.00
C1196  C     0.65418   0.62744   0.27597   0.00000  Uiso   1.00
C1197  C     0.62744   0.84582   0.72404   0.00000  Uiso   1.00
C1198  C     0.87256   0.65418   0.27596   0.00000  Uiso   1.00
C1199  C     0.65418   0.62744   0.72403   0.00000  Uiso   1.00
C1200  C     0.84582   0.87256   0.27597   0.00000  Uiso   1.00
C1201  C     0.87254   0.84581   0.27595   0.00000  Uiso   1.00
C1202  C     0.77687   0.51952   0.91822   0.00000  Uiso   1.00
C1203  C     0.62746   0.65419   0.72406   0.00000  Uiso   1.00
C1204  C     0.84580   0.62746   0.27594   0.00000  Uiso   1.00
C1205  C     0.65420   0.87254   0.72406   0.00000  Uiso   1.00
C1206  C     0.62746   0.65419   0.27595   0.00000  Uiso   1.00
C1207  C     0.87254   0.84581   0.72406   0.00000  Uiso   1.00
C1208  C     0.65420   0.87254   0.27594   0.00000  Uiso   1.00
C1209  C     0.84580   0.62746   0.72406   0.00000  Uiso   1.00
C1210  C     0.97067   0.73342   0.45901   0.00000  Uiso   1.00
C1211  C     0.52934   0.76657   0.54099   0.00000  Uiso   1.00
C1212  C     0.76639   0.97057   0.45902   0.00000  Uiso   1.00
H1213  H     0.62026   0.92658   0.20370   0.00000  Uiso   1.00
H1214  H     0.87976   0.92659   0.20373   0.00000  Uiso   1.00
H1215  H     0.57340   0.87977   0.79625   0.00000  Uiso   1.00
H1216  H     0.92660   0.62023   0.20375   0.00000  Uiso   1.00
H1217  H     0.87976   0.92659   0.79627   0.00000  Uiso   1.00
H1218  H     0.62024   0.57341   0.20373   0.00000  Uiso   1.00
H1219  H     0.92660   0.62023   0.79625   0.00000  Uiso   1.00
H1220  H     0.57340   0.87977   0.20375   0.00000  Uiso   1.00
H1221  H     0.87026   0.67657   0.70370   0.00000  Uiso   1.00
H1222  H     0.62974   0.82342   0.29630   0.00000  Uiso   1.00
H1223  H     0.82344   0.87027   0.70369   0.00000  Uiso   1.00
H1224  H     0.87974   0.57343   0.79630   0.00000  Uiso   1.00
H1225  H     0.67656   0.62973   0.29631   0.00000  Uiso   1.00
H1226  H     0.62974   0.82343   0.70370   0.00000  Uiso   1.00
H1227  H     0.87026   0.67658   0.29630   0.00000  Uiso   1.00
H1228  H     0.67656   0.62973   0.70369   0.00000  Uiso   1.00
H1229  H     0.82344   0.87027   0.29631   0.00000  Uiso   1.00
H1230  H     0.87024   0.82341   0.29627   0.00000  Uiso   1.00
H1231  H     0.62976   0.67659   0.70373   0.00000  Uiso   1.00
H1232  H     0.82340   0.62977   0.29625   0.00000  Uiso   1.00
H1233  H     0.67660   0.87023   0.70375   0.00000  Uiso   1.00
H1234  H     0.62976   0.67659   0.29627   0.00000  Uiso   1.00
H1235  H     0.57344   0.62027   0.20369   0.00000  Uiso   1.00
H1236  H     0.87024   0.82341   0.70373   0.00000  Uiso   1.00
H1237  H     0.67660   0.87023   0.29625   0.00000  Uiso   1.00
H1238  H     0.82340   0.62977   0.70375   0.00000  Uiso   1.00
H1239  H     0.53271   0.83891   0.42336   0.00000  Uiso   1.00
H1240  H     0.51013   0.82613   0.37819   0.00000  Uiso   1.00
H1241  H     0.55587   0.84346   0.37784   0.00000  Uiso   1.00
H1242  H     0.98986   0.67387   0.62183   0.00000  Uiso   1.00
H1243  H     0.96730   0.66108   0.57665   0.00000  Uiso   1.00
H1244  H     0.94413   0.65653   0.62217   0.00000  Uiso   1.00
H1245  H     0.66126   0.53317   0.42340   0.00000  Uiso   1.00
H1246  H     0.92656   0.87973   0.79631   0.00000  Uiso   1.00
H1247  H     0.67391   0.51051   0.37823   0.00000  Uiso   1.00
H1248  H     0.65681   0.55633   0.37787   0.00000  Uiso   1.00
H1249  H     0.82610   0.98950   0.62172   0.00000  Uiso   1.00
H1250  H     0.83873   0.96680   0.57656   0.00000  Uiso   1.00
H1251  H     0.84319   0.94367   0.62211   0.00000  Uiso   1.00
H1252  H     0.96729   0.66108   0.42335   0.00000  Uiso   1.00
H1253  H     0.98989   0.67387   0.37819   0.00000  Uiso   1.00
H1254  H     0.94416   0.65653   0.37781   0.00000  Uiso   1.00
H1255  H     0.51013   0.82612   0.62183   0.00000  Uiso   1.00
H1256  H     0.53269   0.83891   0.57664   0.00000  Uiso   1.00
H1257  H     0.87974   0.57342   0.20370   0.00000  Uiso   1.00
H1258  H     0.55586   0.84347   0.62215   0.00000  Uiso   1.00
H1259  H     0.83873   0.96678   0.42344   0.00000  Uiso   1.00
H1260  H     0.82610   0.98948   0.37829   0.00000  Uiso   1.00
H1261  H     0.84318   0.94365   0.37789   0.00000  Uiso   1.00
H1262  H     0.67391   0.51050   0.62177   0.00000  Uiso   1.00
H1263  H     0.66126   0.53315   0.57659   0.00000  Uiso   1.00
H1264  H     0.65680   0.55632   0.62212   0.00000  Uiso   1.00
H1265  H     0.78223   0.58909   0.92328   0.00000  Uiso   1.00
H1266  H     0.75976   0.57615   0.87809   0.00000  Uiso   1.00
H1267  H     0.80540   0.59373   0.87777   0.00000  Uiso   1.00
H1268  H     0.62026   0.92658   0.79630   0.00000  Uiso   1.00
H1269  H     0.74028   0.92386   0.12190   0.00000  Uiso   1.00
H1270  H     0.71782   0.91092   0.07670   0.00000  Uiso   1.00
H1271  H     0.69465   0.90625   0.12220   0.00000  Uiso   1.00
H1272  H     0.91115   0.78287   0.92337   0.00000  Uiso   1.00
H1273  H     0.92389   0.76027   0.87819   0.00000  Uiso   1.00
H1274  H     0.90663   0.80604   0.87785   0.00000  Uiso   1.00
H1275  H     0.57612   0.73972   0.12177   0.00000  Uiso   1.00
H1276  H     0.58885   0.71706   0.07662   0.00000  Uiso   1.00
H1277  H     0.59335   0.69394   0.12217   0.00000  Uiso   1.00
H1278  H     0.71774   0.91092   0.92332   0.00000  Uiso   1.00
H1279  H     0.92656   0.87973   0.20369   0.00000  Uiso   1.00
H1280  H     0.74025   0.92384   0.87815   0.00000  Uiso   1.00
H1281  H     0.69460   0.90628   0.87780   0.00000  Uiso   1.00
H1282  H     0.75971   0.57614   0.12193   0.00000  Uiso   1.00
H1283  H     0.78216   0.58911   0.07674   0.00000  Uiso   1.00
H1284  H     0.80534   0.59376   0.12224   0.00000  Uiso   1.00
H1285  H     0.58886   0.71713   0.92338   0.00000  Uiso   1.00
H1286  H     0.57611   0.73975   0.87821   0.00000  Uiso   1.00
H1287  H     0.59337   0.69398   0.87784   0.00000  Uiso   1.00
H1288  H     0.92389   0.76028   0.12180   0.00000  Uiso   1.00
H1289  H     0.91115   0.78289   0.07662   0.00000  Uiso   1.00
H1290  H     0.57344   0.62027   0.79631   0.00000  Uiso   1.00
H1291  H     0.90664   0.80604   0.12215   0.00000  Uiso   1.00
H1292  H     0.62024   0.57341   0.79627   0.00000  Uiso   1.00
N1293  N     0.88061   0.69919   0.44406   0.00000  Uiso   1.00
N1294  N     0.86905   0.55161   0.05593   0.00000  Uiso   1.00
N1295  N     0.55053   0.63050   0.94406   0.00000  Uiso   1.00
N1296  N     0.94950   0.86951   0.05594   0.00000  Uiso   1.00
N1297  N     0.86909   0.55153   0.94407   0.00000  Uiso   1.00
N1298  N     0.63091   0.94850   0.05594   0.00000  Uiso   1.00
N1299  N     0.94947   0.86950   0.94406   0.00000  Uiso   1.00
N1300  N     0.55050   0.63049   0.05594   0.00000  Uiso   1.00
N1301  N     0.61940   0.80078   0.55594   0.00000  Uiso   1.00
N1302  N     0.79998   0.88029   0.44406   0.00000  Uiso   1.00
N1303  N     0.69995   0.61969   0.55595   0.00000  Uiso   1.00
N1304  N     0.61940   0.80076   0.44406   0.00000  Uiso   1.00
N1305  N     0.88061   0.69920   0.55594   0.00000  Uiso   1.00
N1306  N     0.69993   0.61968   0.44406   0.00000  Uiso   1.00
N1307  N     0.79999   0.88029   0.55595   0.00000  Uiso   1.00
N1308  N     0.63088   0.94855   0.94407   0.00000  Uiso   1.00
O1309  O     0.75000   0.50000   0.25000   0.00000  Uiso   1.00
O1310  O     0.75000   0.96964   0.66245   0.00000  Uiso   1.00
O1311  O     0.96963   0.75000   0.33755   0.00000  Uiso   1.00
O1312  O     0.53036   0.75000   0.66245   0.00000  Uiso   1.00
O1313  O     0.50000   0.71964   0.83755   0.00000  Uiso   1.00
O1314  O     0.50000   0.78037   0.16245   0.00000  Uiso   1.00
O1315  O     0.78036   0.50000   0.83755   0.00000  Uiso   1.00
O1316  O     0.71963   0.50000   0.16245   0.00000  Uiso   1.00
O1317  O     0.50000   0.78037   0.83755   0.00000  Uiso   1.00
O1318  O     0.50000   0.71964   0.16245   0.00000  Uiso   1.00
O1319  O     0.71963   0.50000   0.83755   0.00000  Uiso   1.00
O1320  O     0.75000   0.50000   0.75000   0.00000  Uiso   1.00
O1321  O     0.78036   0.50000   0.16245   0.00000  Uiso   1.00
O1322  O     0.70724   0.57308   0.27302   0.00000  Uiso   1.00
O1323  O     0.79275   0.92693   0.72698   0.00000  Uiso   1.00
O1324  O     0.92692   0.70725   0.27302   0.00000  Uiso   1.00
O1325  O     0.57307   0.79276   0.72698   0.00000  Uiso   1.00
O1326  O     0.79275   0.92693   0.27302   0.00000  Uiso   1.00
O1327  O     0.70724   0.57308   0.72698   0.00000  Uiso   1.00
O1328  O     0.57307   0.79276   0.27302   0.00000  Uiso   1.00
O1329  O     0.92692   0.70725   0.72698   0.00000  Uiso   1.00
O1330  O     0.70724   0.92693   0.72698   0.00000  Uiso   1.00
O1331  O     0.50000   0.75000   0.25000   0.00000  Uiso   1.00
O1332  O     0.79275   0.57308   0.27302   0.00000  Uiso   1.00
O1333  O     0.92692   0.79276   0.72698   0.00000  Uiso   1.00
O1334  O     0.57307   0.70725   0.27302   0.00000  Uiso   1.00
O1335  O     0.79275   0.57308   0.72698   0.00000  Uiso   1.00
O1336  O     0.70724   0.92693   0.27302   0.00000  Uiso   1.00
O1337  O     0.57307   0.70725   0.72698   0.00000  Uiso   1.00
O1338  O     0.92692   0.79276   0.27302   0.00000  Uiso   1.00
O1339  O     0.95724   0.82308   0.77302   0.00000  Uiso   1.00
O1340  O     0.54275   0.67693   0.22698   0.00000  Uiso   1.00
O1341  O     0.67692   0.95725   0.77302   0.00000  Uiso   1.00
O1342  O     0.50000   0.75000   0.75000   0.00000  Uiso   1.00
O1343  O     0.82307   0.54276   0.22698   0.00000  Uiso   1.00
O1344  O     0.54275   0.67693   0.77302   0.00000  Uiso   1.00
O1345  O     0.95724   0.82308   0.22698   0.00000  Uiso   1.00
O1346  O     0.82307   0.54276   0.77302   0.00000  Uiso   1.00
O1347  O     0.67692   0.95725   0.22698   0.00000  Uiso   1.00
O1348  O     0.95724   0.67693   0.22698   0.00000  Uiso   1.00
O1349  O     0.54275   0.82308   0.77302   0.00000  Uiso   1.00
O1350  O     0.67692   0.54276   0.22698   0.00000  Uiso   1.00
O1351  O     0.82307   0.95725   0.77302   0.00000  Uiso   1.00
O1352  O     0.54275   0.82308   0.22698   0.00000  Uiso   1.00
O1353  O     0.75000   0.96964   0.33755   0.00000  Uiso   1.00
O1354  O     0.95724   0.67693   0.77302   0.00000  Uiso   1.00
O1355  O     0.82307   0.95725   0.22698   0.00000  Uiso   1.00
O1356  O     0.67692   0.54276   0.77302   0.00000  Uiso   1.00
O1357  O     0.55113   0.79076   0.39736   0.00000  Uiso   1.00
O1358  O     0.94887   0.70923   0.60264   0.00000  Uiso   1.00
O1359  O     0.70948   0.55133   0.39738   0.00000  Uiso   1.00
O1360  O     0.79051   0.94867   0.60262   0.00000  Uiso   1.00
O1361  O     0.94888   0.70922   0.39736   0.00000  Uiso   1.00
O1362  O     0.55113   0.79077   0.60264   0.00000  Uiso   1.00
O1363  O     0.79050   0.94866   0.39738   0.00000  Uiso   1.00
O1364  O     0.75000   0.53037   0.66245   0.00000  Uiso   1.00
O1365  O     0.70948   0.55133   0.60262   0.00000  Uiso   1.00
O1366  O     0.80092   0.54102   0.89734   0.00000  Uiso   1.00
O1367  O     0.69909   0.95897   0.10265   0.00000  Uiso   1.00
O1368  O     0.95932   0.80121   0.89737   0.00000  Uiso   1.00
O1369  O     0.54066   0.69879   0.10263   0.00000  Uiso   1.00
O1370  O     0.69907   0.95899   0.89735   0.00000  Uiso   1.00
O1371  O     0.80090   0.54105   0.10266   0.00000  Uiso   1.00
O1372  O     0.54068   0.69880   0.89737   0.00000  Uiso   1.00
O1373  O     0.95933   0.80121   0.10263   0.00000  Uiso   1.00
O1374  O     0.53036   0.75000   0.33755   0.00000  Uiso   1.00
O1375  O     0.96963   0.75000   0.66245   0.00000  Uiso   1.00
O1376  O     0.75000   0.53037   0.33755   0.00000  Uiso   1.00
Zn1377 Zn    0.70659   0.50000   0.21735   0.00000  Uiso   1.00
Zn1378 Zn    0.54340   0.75000   0.28265   0.00000  Uiso   1.00
Zn1379 Zn    0.75000   0.95660   0.71735   0.00000  Uiso   1.00
Zn1380 Zn    0.75000   0.54341   0.28265   0.00000  Uiso   1.00
Zn1381 Zn    0.54340   0.75000   0.71735   0.00000  Uiso   1.00
Zn1382 Zn    0.95659   0.75000   0.28265   0.00000  Uiso   1.00
Zn1383 Zn    0.75000   0.54341   0.71735   0.00000  Uiso   1.00
Zn1384 Zn    0.75000   0.95660   0.28265   0.00000  Uiso   1.00
Zn1385 Zn    0.79340   0.50000   0.78265   0.00000  Uiso   1.00
Zn1386 Zn    0.50000   0.70660   0.21735   0.00000  Uiso   1.00
Zn1387 Zn    0.50000   0.79341   0.78265   0.00000  Uiso   1.00
Zn1388 Zn    0.79340   0.50000   0.21735   0.00000  Uiso   1.00
Zn1389 Zn    0.70659   0.50000   0.78265   0.00000  Uiso   1.00
Zn1390 Zn    0.50000   0.79341   0.21735   0.00000  Uiso   1.00
Zn1391 Zn    0.50000   0.70660   0.78265   0.00000  Uiso   1.00
Zn1392 Zn    0.95659   0.75000   0.71735   0.00000  Uiso   1.00
loop_
_geom_bond_atom_site_label_1
_geom_bond_atom_site_label_2
_geom_bond_distance
_geom_bond_site_symmetry_2
_ccdc_geom_bond_type
C1     C78     1.400   .     A
C1     O313    1.385   .     S
C1     C4      1.414   .     A
C2     C14     1.414   .     A
C2     O323    1.385   .     S
C2     C780    1.399   .     S
C3     C147    1.414   .     A
C3     C90     1.418   .     A
C3     C38     1.423   .     S
C4     C91     1.419   .     A
C4     C34     1.424   .     A
C5     C81     1.414   .     A
C5     C93     1.419   .     A
C5     C384    1.424   .     S
C6     C94     1.418   .     A
C6     C92     1.414   .     A
C6     C37     1.423   .     S
C7     C103    1.414   .     A
C7     C95     1.418   .     A
C7     C734    1.423   .     A
C8     C35     1.414   .     A
C8     C96     1.419   .     A
C8     C735    1.424   .     S
C9     C97     1.419   .     A
C9     C46     1.414   .     A
C9     C40     1.424   .     A
C10    C57     1.414   .     A
C10    C98     1.419   .     A
C10    C41     1.423   .     S
C11    C99     1.419   .     A
C11    C68     1.414   .     A
C11    C390    1.423   .     S
C12    C158    1.414   .     A
C12    C39     1.424   .     A
C12    C100    1.419   .     A
C13    C433    1.400   .     A
C13    O324    1.385   .     S
C13    C15     1.414   .     A
C14    C101    1.419   .     A
C14    C736    1.424   .     S
C15    C389    1.424   .     A
C15    C102    1.419   .     A
C16    C104    1.419   .     A
C16    C24     1.414   .     A
C16    C42     1.423   .     A
C17    C120    1.455   .     S
C17    C150    1.402   .     A
C17    C148    1.402   .     A
C18    C121    1.455   .     S
C18    C149    1.402   .     A
C18    C146    1.402   .     A
C19    C113    1.455   .     S
C19    C145    1.402   .     A
C19    C152    1.402   .     A
C20    C144    1.402   .     A
C20    C151    1.402   .     A
C20    C115    1.455   .     S
C21    C116    1.455   .     S
C21    C143    1.402   .     A
C21    C154    1.402   .     A
C22    C142    1.402   .     A
C22    C153    1.402   .     A
C22    C117    1.455   .     S
C23    C118    1.455   .     S
C23    C156    1.402   .     A
C23    C141    1.402   .     A
C24    O325    1.385   .     S
C24    C86     1.400   .     A
C25    C119    1.455   .     S
C25    C140    1.402   .     A
C25    C155    1.402   .     A
C26    C139    1.402   .     A
C26    C159    1.402   .     A
C26    C129    1.455   .     S
C27    C138    1.402   .     A
C27    C157    1.402   .     A
C27    C130    1.455   .     S
C28    C137    1.402   .     A
C28    C122    1.455   .     S
C28    C161    1.402   .     A
C29    C135    1.402   .     A
C29    C160    1.402   .     A
C29    C123    1.455   .     S
C30    C134    1.402   .     A
C30    C163    1.402   .     A
C30    C124    1.455   .     S
C31    C133    1.402   .     A
C31    C162    1.402   .     A
C31    C126    1.455   .     S
C32    C127    1.455   .     S
C32    C165    1.402   .     A
C32    C132    1.402   .     A
C33    C131    1.402   .     A
C33    C164    1.402   .     A
C33    C128    1.455   .     S
C34    C36     1.413   .     A
C34    C514    1.424   1_455 S
C35    O326    1.385   .     S
C35    C779    1.399   .     S
C36    C167    1.424   .     A
C36    C353    1.424   1_455 S
C37    C864    1.423   1_545 A
C37    C38     1.413   .     A
C38    C703    1.423   1_545 A
C39    C704    1.424   1_545 S
C39    C40     1.413   1_556 S
C40    C710    1.424   1_545 S
C40    C39     1.413   1_554 S
C41    C363    1.424   1_455 A
C41    C42     1.413   1_556 S
C42    C359    1.423   1_455 S
C42    C41     1.413   1_554 S
C43    N249    1.158   .     T
C43    C87     1.456   .     S
C44    N257    1.158   .     T
C44    C88     1.456   .     S
C45    N258    1.158   .     T
C45    C89     1.455   .     S
C46    C84     1.399   .     A
C46    O327    1.385   .     S
C47    C90     1.455   .     S
C47    N259    1.158   .     T
C48    N260    1.158   .     T
C48    C91     1.456   .     S
C49    C93     1.456   .     S
C49    N261    1.158   .     T
C50    C94     1.455   .     S
C50    N262    1.158   .     T
C51    C95     1.455   .     S
C51    N263    1.158   .     T
C52    N264    1.158   .     T
C52    C96     1.456   .     S
C53    N250    1.158   .     T
C53    C97     1.456   .     S
C54    N251    1.158   .     T
C54    C98     1.456   .     S
C55    C99     1.456   .     S
C55    N252    1.158   .     T
C56    N253    1.158   .     T
C56    C100    1.456   .     S
C57    O328    1.385   .     S
C57    C85     1.400   .     S
C58    C101    1.456   .     S
C58    N254    1.158   .     T
C59    N255    1.158   .     T
C59    C102    1.456   .     S
C60    N256    1.158   .     T
C60    C104    1.456   .     S
C61    H197    1.109   .     S
C61    H196    1.113   .     S
C61    H195    1.113   .     S
C61    O313    1.411   .     S
C62    O314    1.411   .     S
C62    H199    1.113   .     S
C62    H200    1.109   .     S
C62    H198    1.113   .     S
C63    O315    1.411   .     S
C63    H203    1.113   .     S
C63    H201    1.113   .     S
C63    H204    1.109   .     S
C64    H205    1.113   .     S
C64    H207    1.109   .     S
C64    H206    1.113   .     S
C64    O316    1.411   .     S
C65    H208    1.113   .     S
C65    H210    1.109   .     S
C65    O317    1.411   .     S
C65    H209    1.113   .     S
C66    H212    1.113   .     S
C66    H211    1.113   .     S
C66    H214    1.109   .     S
C66    O318    1.411   .     S
C67    H216    1.113   .     S
C67    O319    1.411   .     S
C67    H217    1.109   .     S
C67    H215    1.113   .     S
C68    O329    1.385   .     S
C68    C434    1.400   .     S
C69    H218    1.113   .     S
C69    H220    1.109   .     S
C69    O321    1.411   .     S
C69    H219    1.113   .     S
C70    H223    1.109   .     S
C70    H221    1.113   .     S
C70    H222    1.113   .     S
C70    O322    1.411   .     S
C71    H225    1.113   .     S
C71    O323    1.411   .     S
C71    H226    1.113   .     S
C71    H227    1.109   .     S
C72    O324    1.411   .     S
C72    H229    1.113   .     S
C72    H230    1.109   .     S
C72    H228    1.113   .     S
C73    O325    1.411   .     S
C73    H231    1.113   .     S
C73    H233    1.109   .     S
C73    H232    1.113   .     S
C74    H234    1.113   .     S
C74    O326    1.411   .     S
C74    H236    1.113   .     S
C74    H237    1.109   .     S
C75    O327    1.411   .     S
C75    H240    1.109   .     S
C75    H238    1.113   .     S
C75    H239    1.113   .     S
C76    H241    1.113   .     S
C76    H243    1.109   .     S
C76    O328    1.411   .     S
C76    H242    1.113   .     S
C77    H244    1.113   .     S
C77    H247    1.109   .     S
C77    O329    1.411   .     S
C77    H245    1.113   .     S
C78    C107    1.462   .     S
C78    C462    1.400   1_455 S
C79    C108    1.462   .     S
C79    C429    1.400   1_455 A
C79    C125    1.400   .     S
C80    C832    1.400   1_545 A
C80    C105    1.463   .     S
C80    C92     1.400   .     S
C81    O314    1.385   .     S
C81    C427    1.400   .     A
C82    C106    1.463   .     S
C82    C799    1.400   1_545 A
C82    C147    1.400   .     S
C83    C111    1.462   .     S
C83    C158    1.400   .     A
C83    C731    1.399   1_545 S
C84    C112    1.462   .     S
C84    C698    1.399   1_545 S
C85    C361    1.400   1_455 A
C85    C109    1.463   .     S
C86    C110    1.463   .     S
C86    C416    1.400   1_455 S
C87    C93     1.404   .     A
C87    C166    1.419   .     A
C88    C91     1.404   .     A
C88    C167    1.419   .     A
C89    C95     1.404   .     A
C89    C168    1.418   .     A
C90    C94     1.404   .     A
C92    O315    1.385   .     S
C96    C101    1.404   1_556 S
C97    C100    1.404   1_554 S
C98    C104    1.404   1_556 S
C99    C102    1.404   1_554 S
C100   C97     1.404   1_556 S
C101   C96     1.404   1_554 S
C102   C99     1.404   1_556 S
C103   O316    1.385   .     S
C103   C778    1.400   .     A
C104   C98     1.404   1_554 S
C105   O1005   1.280   1_545 A
C105   O332    1.280   .     S
C106   O962    1.280   1_545 A
C106   O320    1.280   .     S
C107   O330    1.280   .     A
C107   O615    1.280   1_455 S
C108   O679    1.280   1_455 A
C108   O268    1.280   .     S
C109   O269    1.280   .     S
C109   O273    1.280   .     S
C110   O270    1.280   .     S
C110   O274    1.280   .     S
C111   O271    1.280   .     A
C111   O275    1.280   .     A
C112   O272    1.279   .     A
C112   O277    1.279   .     A
C113   O278    1.282   .     A
C113   O306    1.283   .     A
C114   C166    1.414   .     A
C114   O317    1.385   .     S
C114   C426    1.400   .     S
C115   O307    1.283   .     A
C115   O279    1.282   .     A
C116   O304    1.283   .     A
C116   O280    1.282   .     A
C117   O305    1.283   .     A
C117   O281    1.282   .     A
C118   O282    1.282   .     A
C118   O311    1.283   .     A
C119   O283    1.282   .     A
C119   O312    1.283   .     A
C120   O284    1.282   .     A
C120   O308    1.283   .     A
C121   O310    1.283   .     A
C121   O285    1.282   .     A
C122   O297    1.282   .     A
C122   O286    1.283   .     A
C123   O299    1.282   .     A
C123   O288    1.283   .     A
C124   O295    1.282   .     A
C124   O289    1.283   .     A
C125   C167    1.414   .     A
C125   O318    1.385   .     S
C126   O296    1.282   .     A
C126   O290    1.283   .     A
C127   O291    1.283   .     A
C127   O302    1.282   .     A
C128   O303    1.282   .     A
C128   O292    1.283   .     A
C129   O293    1.283   .     A
C129   O300    1.282   .     A
C130   O301    1.282   .     A
C130   O294    1.283   .     A
C131   H169    1.083   .     S
C131   C148    1.386   .     A
C132   H180    1.083   .     S
C132   C146    1.386   .     A
C133   C145    1.386   .     A
C133   H191    1.083   .     S
C134   C144    1.386   .     A
C134   H202    1.083   .     S
C135   H213    1.083   .     S
C135   C143    1.386   .     A
C136   O319    1.385   .     S
C136   C776    1.400   .     A
C136   C168    1.414   .     A
C137   C142    1.386   .     A
C137   H224    1.083   .     S
C138   C141    1.386   .     A
C138   H235    1.083   .     S
C139   C140    1.386   .     A
C139   H246    1.083   .     S
C140   H248    1.083   .     S
C141   H170    1.083   .     S
C142   H171    1.083   .     S
C143   H172    1.083   .     S
C144   H173    1.083   .     S
C145   H174    1.083   .     S
C146   H175    1.083   .     S
C147   O321    1.385   .     S
C148   H176    1.083   .     S
C149   C165    1.386   .     A
C149   H177    1.083   .     S
C150   C164    1.386   .     A
C150   H178    1.083   .     S
C151   H179    1.083   .     S
C151   C163    1.386   .     A
C152   H181    1.083   .     S
C152   C162    1.386   .     A
C153   C161    1.386   .     A
C153   H182    1.083   .     S
C154   H183    1.083   .     S
C154   C160    1.386   .     A
C155   C159    1.386   .     A
C155   H184    1.083   .     S
C156   H185    1.083   .     S
C156   C157    1.386   .     A
C157   H186    1.083   .     S
C158   O322    1.385   .     S
C159   H187    1.083   .     S
C160   H188    1.083   .     S
C161   H189    1.083   .     S
C162   H190    1.083   .     S
C163   H192    1.083   .     S
C164   H193    1.083   .     S
C165   H194    1.083   .     S
C166   C382    1.424   .     S
C168   C733    1.423   .     A
O265   Zn336   1.950   .     S
O265   Zn344   1.950   .     S
O265   Zn333   1.950   .     S
O265   Zn1036  1.950   1_545 S
O266   C802    1.280   .     A
O266   Zn335   1.954   .     S
O267   Zn338   1.954   .     S
O267   C455    1.280   .     S
O268   Zn337   1.954   .     S
O269   Zn347   1.954   .     S
O270   Zn346   1.954   .     S
O271   Zn341   1.954   .     S
O272   Zn333   1.954   .     S
O273   Zn343   1.954   .     S
O274   Zn342   1.954   .     S
O275   Zn345   1.954   .     S
O276   Zn339   1.950   .     S
O276   Zn341   1.950   .     S
O276   Zn345   1.950   .     S
O276   Zn1031  1.950   1_545 S
O277   Zn344   1.954   .     S
O278   Zn336   1.936   .     S
O279   Zn335   1.936   .     S
O280   Zn338   1.936   .     S
O281   Zn337   1.936   .     S
O282   Zn340   1.936   .     S
O283   Zn339   1.936   .     S
O284   Zn334   1.936   .     S
O285   Zn348   1.936   .     S
O286   Zn335   1.936   .     S
O287   Zn686   1.950   1_455 S
O287   Zn334   1.950   .     S
O287   Zn342   1.950   .     S
O287   Zn346   1.950   .     S
O288   Zn336   1.936   .     S
O289   Zn348   1.936   .     S
O290   Zn334   1.936   .     S
O291   Zn339   1.936   .     S
O292   Zn340   1.936   .     S
O293   Zn337   1.936   .     S
O294   Zn338   1.936   .     S
O295   Zn691   1.936   .     S
O296   Zn342   1.936   .     S
O297   Zn1041  1.936   .     S
O298   Zn347   1.950   .     S
O298   Zn696   1.950   1_455 S
O298   Zn337   1.950   .     S
O298   Zn343   1.950   .     S
O299   Zn344   1.936   .     S
O300   Zn347   1.936   .     S
O301   Zn694   1.936   .     S
O302   Zn341   1.936   .     S
O303   Zn1029  1.936   .     S
O304   Zn690   1.936   .     S
O305   Zn343   1.936   .     S
O306   Zn333   1.936   .     S
O307   Zn1037  1.936   .     S
O308   Zn346   1.936   .     S
O309   C801    1.280   .     A
O309   Zn340   1.954   .     S
O310   Zn695   1.936   .     S
O311   Zn1040  1.936   .     S
O312   Zn345   1.936   .     S
O320   Zn339   1.954   .     S
O330   Zn334   1.954   .     S
O331   Zn348   1.954   .     S
O331   C456    1.280   .     A
O332   Zn336   1.954   .     S
Zn333  O999    1.936   1_545 S
Zn335  O972    1.950   .     S
Zn338  O635    1.950   .     S
Zn340  O961    1.950   .     S
Zn341  O1003   1.936   1_545 S
Zn342  O652    1.936   1_455 S
Zn343  O643    1.936   1_455 S
Zn344  O1007   1.936   1_545 S
Zn345  O993    1.936   1_545 S
Zn346  O649    1.936   1_455 S
Zn347  O658    1.936   1_455 S
Zn348  O646    1.950   .     S
C349   C426    1.400   .     A
C349   O661    1.385   .     S
C349   C352    1.414   .     A
C350   C362    1.414   .     A
C350   O671    1.385   .     S
C350   C1128   1.399   .     S
C351   C495    1.414   .     A
C351   C438    1.418   .     A
C351   C386    1.423   .     S
C352   C439    1.419   .     A
C352   C382    1.424   .     A
C353   C429    1.414   .     A
C353   C441    1.419   .     A
C353   C36     1.424   1_655 S
C354   C442    1.418   .     A
C354   C440    1.414   .     A
C354   C385    1.423   .     S
C355   C451    1.414   .     A
C355   C443    1.418   .     A
C355   C1082   1.423   .     A
C356   C383    1.414   .     A
C356   C444    1.419   .     A
C356   C1083   1.424   .     S
C357   C445    1.419   .     A
C357   C394    1.414   .     A
C357   C388    1.424   .     A
C358   C405    1.414   .     A
C358   C446    1.419   .     A
C358   C389    1.423   .     S
C359   C447    1.419   .     A
C359   C416    1.414   .     A
C359   C42     1.423   1_655 S
C360   C506    1.414   .     A
C360   C387    1.424   .     A
C360   C448    1.419   .     A
C361   C85     1.400   1_655 A
C361   O672    1.385   .     S
C361   C363    1.414   .     A
C362   C449    1.419   .     A
C362   C1084   1.424   .     S
C363   C41     1.424   1_655 A
C363   C450    1.419   .     A
C364   C452    1.419   .     A
C364   C372    1.414   .     A
C364   C390    1.423   .     A
C365   C468    1.455   .     S
C365   C498    1.402   .     A
C365   C496    1.402   .     A
C366   C469    1.455   .     S
C366   C497    1.402   .     A
C366   C494    1.402   .     A
C367   C461    1.455   .     S
C367   C493    1.402   .     A
C367   C500    1.402   .     A
C368   C492    1.402   .     A
C368   C499    1.402   .     A
C368   C463    1.455   .     S
C369   C464    1.455   .     S
C369   C491    1.402   .     A
C369   C502    1.402   .     A
C370   C490    1.402   .     A
C370   C501    1.402   .     A
C370   C465    1.455   .     S
C371   C466    1.455   .     S
C371   C504    1.402   .     A
C371   C489    1.402   .     A
C372   O673    1.385   .     S
C372   C434    1.400   .     A
C373   C467    1.455   .     S
C373   C488    1.402   .     A
C373   C503    1.402   .     A
C374   C487    1.402   .     A
C374   C507    1.402   .     A
C374   C477    1.455   .     S
C375   C486    1.402   .     A
C375   C505    1.402   .     A
C375   C478    1.455   .     S
C376   C485    1.402   .     A
C376   C470    1.455   .     S
C376   C509    1.402   .     A
C377   C483    1.402   .     A
C377   C508    1.402   .     A
C377   C471    1.455   .     S
C378   C482    1.402   .     A
C378   C511    1.402   .     A
C378   C472    1.455   .     S
C379   C481    1.402   .     A
C379   C510    1.402   .     A
C379   C474    1.455   .     S
C380   C475    1.455   .     S
C380   C513    1.402   .     A
C380   C480    1.402   .     A
C381   C479    1.402   .     A
C381   C512    1.402   .     A
C381   C476    1.455   .     S
C382   C384    1.413   .     A
C383   O674    1.385   .     S
C383   C1127   1.399   .     S
C384   C515    1.424   .     A
C385   C1212   1.423   1_545 A
C385   C386    1.413   .     A
C386   C1051   1.423   1_545 A
C387   C1052   1.424   1_545 S
C387   C388    1.413   1_556 S
C388   C1058   1.424   1_545 S
C388   C387    1.413   1_554 S
C389   C390    1.413   1_556 S
C390   C389    1.413   1_554 S
C391   N597    1.158   .     T
C391   C435    1.456   .     S
C392   N605    1.158   .     T
C392   C436    1.456   .     S
C393   N606    1.158   .     T
C393   C437    1.455   .     S
C394   C432    1.399   .     A
C394   O675    1.385   .     S
C395   C438    1.455   .     S
C395   N607    1.158   .     T
C396   N608    1.158   .     T
C396   C439    1.456   .     S
C397   C441    1.456   .     S
C397   N609    1.158   .     T
C398   C442    1.455   .     S
C398   N610    1.158   .     T
C399   C443    1.455   .     S
C399   N611    1.158   .     T
C400   N612    1.158   .     T
C400   C444    1.456   .     S
C401   N598    1.158   .     T
C401   C445    1.456   .     S
C402   N599    1.158   .     T
C402   C446    1.456   .     S
C403   C447    1.456   .     S
C403   N600    1.158   .     T
C404   N601    1.158   .     T
C404   C448    1.456   .     S
C405   O676    1.385   .     S
C405   C433    1.400   .     S
C406   C449    1.456   .     S
C406   N602    1.158   .     T
C407   N603    1.158   .     T
C407   C450    1.456   .     S
C408   N604    1.158   .     T
C408   C452    1.456   .     S
C409   H545    1.109   .     S
C409   H544    1.113   .     S
C409   H543    1.113   .     S
C409   O661    1.411   .     S
C410   O662    1.411   .     S
C410   H547    1.113   .     S
C410   H548    1.109   .     S
C410   H546    1.113   .     S
C411   O663    1.411   .     S
C411   H551    1.113   .     S
C411   H549    1.113   .     S
C411   H552    1.109   .     S
C412   H553    1.113   .     S
C412   H555    1.109   .     S
C412   H554    1.113   .     S
C412   O664    1.411   .     S
C413   H556    1.113   .     S
C413   H558    1.109   .     S
C413   O665    1.411   .     S
C413   H557    1.113   .     S
C414   H560    1.113   .     S
C414   H559    1.113   .     S
C414   H562    1.109   .     S
C414   O666    1.411   .     S
C415   H564    1.113   .     S
C415   O667    1.411   .     S
C415   H565    1.109   .     S
C415   H563    1.113   .     S
C416   O677    1.385   .     S
C416   C86     1.400   1_655 S
C417   H566    1.113   .     S
C417   H568    1.109   .     S
C417   O669    1.411   .     S
C417   H567    1.113   .     S
C418   H571    1.109   .     S
C418   H569    1.113   .     S
C418   H570    1.113   .     S
C418   O670    1.411   .     S
C419   H573    1.113   .     S
C419   O671    1.411   .     S
C419   H574    1.113   .     S
C419   H575    1.109   .     S
C420   O672    1.411   .     S
C420   H577    1.113   .     S
C420   H578    1.109   .     S
C420   H576    1.113   .     S
C421   O673    1.411   .     S
C421   H579    1.113   .     S
C421   H581    1.109   .     S
C421   H580    1.113   .     S
C422   H582    1.113   .     S
C422   O674    1.411   .     S
C422   H584    1.113   .     S
C422   H585    1.109   .     S
C423   O675    1.411   .     S
C423   H588    1.109   .     S
C423   H586    1.113   .     S
C423   H587    1.113   .     S
C424   H589    1.113   .     S
C424   H591    1.109   .     S
C424   O676    1.411   .     S
C424   H590    1.113   .     S
C425   H592    1.113   .     S
C425   H595    1.109   .     S
C425   O677    1.411   .     S
C425   H593    1.113   .     S
C426   C455    1.462   .     S
C427   C456    1.462   .     S
C427   C473    1.400   .     S
C428   C1180   1.400   1_545 A
C428   C453    1.463   .     S
C428   C440    1.400   .     S
C429   O662    1.385   .     S
C429   C79     1.400   1_655 A
C430   C454    1.463   .     S
C430   C1147   1.400   1_545 A
C430   C495    1.400   .     S
C431   C459    1.462   .     S
C431   C506    1.400   .     A
C431   C1079   1.399   1_545 S
C432   C460    1.462   .     S
C432   C1046   1.399   1_545 S
C433   C457    1.463   .     S
C434   C458    1.463   .     S
C435   C441    1.404   .     A
C435   C514    1.419   .     A
C436   C439    1.404   .     A
C436   C515    1.419   .     A
C437   C443    1.404   .     A
C437   C516    1.418   .     A
C438   C442    1.404   .     A
C440   O663    1.385   .     S
C444   C449    1.404   1_556 S
C445   C448    1.404   1_554 S
C446   C452    1.404   1_556 S
C447   C450    1.404   1_554 S
C448   C445    1.404   1_556 S
C449   C444    1.404   1_554 S
C450   C447    1.404   1_556 S
C451   O664    1.385   .     S
C451   C1126   1.400   .     A
C452   C446    1.404   1_554 S
C453   O1353   1.280   1_545 A
C453   O680    1.280   .     S
C454   O1310   1.280   1_545 A
C454   O668    1.280   .     S
C455   O678    1.280   .     A
C456   O616    1.280   .     S
C457   O617    1.280   .     S
C457   O621    1.280   .     S
C458   O618    1.280   .     S
C458   O622    1.280   .     S
C459   O619    1.280   .     A
C459   O623    1.280   .     A
C460   O620    1.279   .     A
C460   O625    1.279   .     A
C461   O626    1.282   .     A
C461   O654    1.283   .     A
C462   C514    1.414   .     A
C462   O665    1.385   .     S
C462   C78     1.400   1_655 S
C463   O655    1.283   .     A
C463   O627    1.282   .     A
C464   O652    1.283   .     A
C464   O628    1.282   .     A
C465   O653    1.283   .     A
C465   O629    1.282   .     A
C466   O630    1.282   .     A
C466   O659    1.283   .     A
C467   O631    1.282   .     A
C467   O660    1.283   .     A
C468   O632    1.282   .     A
C468   O656    1.283   .     A
C469   O658    1.283   .     A
C469   O633    1.282   .     A
C470   O645    1.282   .     A
C470   O634    1.283   .     A
C471   O647    1.282   .     A
C471   O636    1.283   .     A
C472   O643    1.282   .     A
C472   O637    1.283   .     A
C473   C515    1.414   .     A
C473   O666    1.385   .     S
C474   O644    1.282   .     A
C474   O638    1.283   .     A
C475   O639    1.283   .     A
C475   O650    1.282   .     A
C476   O651    1.282   .     A
C476   O640    1.283   .     A
C477   O641    1.283   .     A
C477   O648    1.282   .     A
C478   O649    1.282   .     A
C478   O642    1.283   .     A
C479   H517    1.083   .     S
C479   C496    1.386   .     A
C480   H528    1.083   .     S
C480   C494    1.386   .     A
C481   C493    1.386   .     A
C481   H539    1.083   .     S
C482   C492    1.386   .     A
C482   H550    1.083   .     S
C483   H561    1.083   .     S
C483   C491    1.386   .     A
C484   O667    1.385   .     S
C484   C1124   1.400   .     A
C484   C516    1.414   .     A
C485   C490    1.386   .     A
C485   H572    1.083   .     S
C486   C489    1.386   .     A
C486   H583    1.083   .     S
C487   C488    1.386   .     A
C487   H594    1.083   .     S
C488   H596    1.083   .     S
C489   H518    1.083   .     S
C490   H519    1.083   .     S
C491   H520    1.083   .     S
C492   H521    1.083   .     S
C493   H522    1.083   .     S
C494   H523    1.083   .     S
C495   O669    1.385   .     S
C496   H524    1.083   .     S
C497   C513    1.386   .     A
C497   H525    1.083   .     S
C498   C512    1.386   .     A
C498   H526    1.083   .     S
C499   H527    1.083   .     S
C499   C511    1.386   .     A
C500   H529    1.083   .     S
C500   C510    1.386   .     A
C501   C509    1.386   .     A
C501   H530    1.083   .     S
C502   H531    1.083   .     S
C502   C508    1.386   .     A
C503   C507    1.386   .     A
C503   H532    1.083   .     S
C504   H533    1.083   .     S
C504   C505    1.386   .     A
C505   H534    1.083   .     S
C506   O670    1.385   .     S
C507   H535    1.083   .     S
C508   H536    1.083   .     S
C509   H537    1.083   .     S
C510   H538    1.083   .     S
C511   H540    1.083   .     S
C512   H541    1.083   .     S
C513   H542    1.083   .     S
C514   C34     1.424   1_655 S
C516   C1081   1.423   .     A
O613   Zn684   1.950   .     S
O613   Zn692   1.950   .     S
O613   Zn681   1.950   .     S
O613   Zn1384  1.950   1_545 S
O614   C1150   1.280   .     A
O614   Zn683   1.954   .     S
O615   Zn686   1.954   .     S
O615   C107    1.280   1_655 S
O616   Zn685   1.954   .     S
O617   Zn695   1.954   .     S
O618   Zn694   1.954   .     S
O619   Zn689   1.954   .     S
O620   Zn681   1.954   .     S
O621   Zn691   1.954   .     S
O622   Zn690   1.954   .     S
O623   Zn693   1.954   .     S
O624   Zn687   1.950   .     S
O624   Zn689   1.950   .     S
O624   Zn693   1.950   .     S
O624   Zn1379  1.950   1_545 S
O625   Zn692   1.954   .     S
O626   Zn684   1.936   .     S
O627   Zn683   1.936   .     S
O628   Zn686   1.936   .     S
O629   Zn685   1.936   .     S
O630   Zn688   1.936   .     S
O631   Zn687   1.936   .     S
O632   Zn682   1.936   .     S
O633   Zn696   1.936   .     S
O634   Zn683   1.936   .     S
O635   Zn682   1.950   .     S
O635   Zn690   1.950   .     S
O635   Zn694   1.950   .     S
O636   Zn684   1.936   .     S
O637   Zn696   1.936   .     S
O638   Zn682   1.936   .     S
O639   Zn687   1.936   .     S
O640   Zn688   1.936   .     S
O641   Zn685   1.936   .     S
O642   Zn686   1.936   .     S
O643   Zn343   1.936   1_655 S
O644   Zn690   1.936   .     S
O645   Zn1389  1.936   .     S
O646   Zn695   1.950   .     S
O646   Zn685   1.950   .     S
O646   Zn691   1.950   .     S
O647   Zn692   1.936   .     S
O648   Zn695   1.936   .     S
O649   Zn346   1.936   1_655 S
O650   Zn689   1.936   .     S
O651   Zn1377  1.936   .     S
O652   Zn342   1.936   1_655 S
O653   Zn691   1.936   .     S
O654   Zn681   1.936   .     S
O655   Zn1385  1.936   .     S
O656   Zn694   1.936   .     S
O657   C1149   1.280   .     A
O657   Zn688   1.954   .     S
O658   Zn347   1.936   1_655 S
O659   Zn1388  1.936   .     S
O660   Zn693   1.936   .     S
O668   Zn687   1.954   .     S
O678   Zn682   1.954   .     S
O679   Zn696   1.954   .     S
O679   C108    1.280   1_655 A
O680   Zn684   1.954   .     S
Zn681  O1347   1.936   1_545 S
Zn683  O1320   1.950   .     S
Zn686  O287    1.950   1_655 S
Zn688  O1309   1.950   .     S
Zn689  O1351   1.936   1_545 S
Zn692  O1355   1.936   1_545 S
Zn693  O1341   1.936   1_545 S
Zn696  O298    1.950   1_655 S
C697   C774    1.400   .     A
C697   O1009   1.385   .     S
C697   C700    1.414   .     A
C698   C710    1.414   .     A
C698   O1019   1.385   .     S
C698   C84     1.399   1_565 S
C699   C843    1.414   .     A
C699   C786    1.418   .     A
C699   C734    1.423   .     S
C700   C787    1.419   .     A
C700   C730    1.424   .     A
C701   C777    1.414   .     A
C701   C789    1.419   .     A
C701   C1080   1.424   .     S
C702   C790    1.418   .     A
C702   C788    1.414   .     A
C702   C733    1.423   .     S
C703   C799    1.414   .     A
C703   C791    1.418   .     A
C703   C38     1.423   1_565 A
C704   C731    1.414   .     A
C704   C792    1.419   .     A
C704   C39     1.424   1_565 S
C705   C793    1.419   .     A
C705   C742    1.414   .     A
C705   C736    1.424   .     A
C706   C753    1.414   .     A
C706   C794    1.419   .     A
C706   C737    1.423   .     S
C707   C795    1.419   .     A
C707   C764    1.414   .     A
C707   C1086   1.423   .     S
C708   C854    1.414   .     A
C708   C735    1.424   .     A
C708   C796    1.419   .     A
C709   C1129   1.400   .     A
C709   O1020   1.385   .     S
C709   C711    1.414   .     A
C710   C797    1.419   .     A
C710   C40     1.424   1_565 S
C711   C1085   1.424   .     A
C711   C798    1.419   .     A
C712   C800    1.419   .     A
C712   C720    1.414   .     A
C712   C738    1.423   .     A
C713   C816    1.455   .     S
C713   C846    1.402   .     A
C713   C844    1.402   .     A
C714   C817    1.455   .     S
C714   C845    1.402   .     A
C714   C842    1.402   .     A
C715   C809    1.455   .     S
C715   C841    1.402   .     A
C715   C848    1.402   .     A
C716   C840    1.402   .     A
C716   C847    1.402   .     A
C716   C811    1.455   .     S
C717   C812    1.455   .     S
C717   C839    1.402   .     A
C717   C850    1.402   .     A
C718   C838    1.402   .     A
C718   C849    1.402   .     A
C718   C813    1.455   .     S
C719   C814    1.455   .     S
C719   C852    1.402   .     A
C719   C837    1.402   .     A
C720   O1021   1.385   .     S
C720   C782    1.400   .     A
C721   C815    1.455   .     S
C721   C836    1.402   .     A
C721   C851    1.402   .     A
C722   C835    1.402   .     A
C722   C855    1.402   .     A
C722   C825    1.455   .     S
C723   C834    1.402   .     A
C723   C853    1.402   .     A
C723   C826    1.455   .     S
C724   C833    1.402   .     A
C724   C818    1.455   .     S
C724   C857    1.402   .     A
C725   C831    1.402   .     A
C725   C856    1.402   .     A
C725   C819    1.455   .     S
C726   C830    1.402   .     A
C726   C859    1.402   .     A
C726   C820    1.455   .     S
C727   C829    1.402   .     A
C727   C858    1.402   .     A
C727   C822    1.455   .     S
C728   C823    1.455   .     S
C728   C861    1.402   .     A
C728   C828    1.402   .     A
C729   C827    1.402   .     A
C729   C860    1.402   .     A
C729   C824    1.455   .     S
C730   C732    1.413   .     A
C730   C1210   1.424   1_455 S
C731   O1022   1.385   .     S
C731   C83     1.399   1_565 S
C732   C863    1.424   .     A
C732   C1049   1.424   1_455 S
C733   C734    1.413   .     A
C735   C736    1.413   1_556 S
C736   C735    1.413   1_554 S
C737   C1059   1.424   1_455 A
C737   C738    1.413   1_556 S
C738   C1055   1.423   1_455 S
C738   C737    1.413   1_554 S
C739   N945    1.158   .     T
C739   C783    1.456   .     S
C740   N953    1.158   .     T
C740   C784    1.456   .     S
C741   N954    1.158   .     T
C741   C785    1.455   .     S
C742   C780    1.399   .     A
C742   O1023   1.385   .     S
C743   C786    1.455   .     S
C743   N955    1.158   .     T
C744   N956    1.158   .     T
C744   C787    1.456   .     S
C745   C789    1.456   .     S
C745   N957    1.158   .     T
C746   C790    1.455   .     S
C746   N958    1.158   .     T
C747   C791    1.455   .     S
C747   N959    1.158   .     T
C748   N960    1.158   .     T
C748   C792    1.456   .     S
C749   N946    1.158   .     T
C749   C793    1.456   .     S
C750   N947    1.158   .     T
C750   C794    1.456   .     S
C751   C795    1.456   .     S
C751   N948    1.158   .     T
C752   N949    1.158   .     T
C752   C796    1.456   .     S
C753   O1024   1.385   .     S
C753   C781    1.400   .     S
C754   C797    1.456   .     S
C754   N950    1.158   .     T
C755   N951    1.158   .     T
C755   C798    1.456   .     S
C756   N952    1.158   .     T
C756   C800    1.456   .     S
C757   H893    1.109   .     S
C757   H892    1.113   .     S
C757   H891    1.113   .     S
C757   O1009   1.411   .     S
C758   O1010   1.411   .     S
C758   H895    1.113   .     S
C758   H896    1.109   .     S
C758   H894    1.113   .     S
C759   O1011   1.411   .     S
C759   H899    1.113   .     S
C759   H897    1.113   .     S
C759   H900    1.109   .     S
C760   H901    1.113   .     S
C760   H903    1.109   .     S
C760   H902    1.113   .     S
C760   O1012   1.411   .     S
C761   H904    1.113   .     S
C761   H906    1.109   .     S
C761   O1013   1.411   .     S
C761   H905    1.113   .     S
C762   H908    1.113   .     S
C762   H907    1.113   .     S
C762   H910    1.109   .     S
C762   O1014   1.411   .     S
C763   H912    1.113   .     S
C763   O1015   1.411   .     S
C763   H913    1.109   .     S
C763   H911    1.113   .     S
C764   O1025   1.385   .     S
C764   C1130   1.400   .     S
C765   H914    1.113   .     S
C765   H916    1.109   .     S
C765   O1017   1.411   .     S
C765   H915    1.113   .     S
C766   H919    1.109   .     S
C766   H917    1.113   .     S
C766   H918    1.113   .     S
C766   O1018   1.411   .     S
C767   H921    1.113   .     S
C767   O1019   1.411   .     S
C767   H922    1.113   .     S
C767   H923    1.109   .     S
C768   O1020   1.411   .     S
C768   H925    1.113   .     S
C768   H926    1.109   .     S
C768   H924    1.113   .     S
C769   O1021   1.411   .     S
C769   H927    1.113   .     S
C769   H929    1.109   .     S
C769   H928    1.113   .     S
C770   H930    1.113   .     S
C770   O1022   1.411   .     S
C770   H932    1.113   .     S
C770   H933    1.109   .     S
C771   O1023   1.411   .     S
C771   H936    1.109   .     S
C771   H934    1.113   .     S
C771   H935    1.113   .     S
C772   H937    1.113   .     S
C772   H939    1.109   .     S
C772   O1024   1.411   .     S
C772   H938    1.113   .     S
C773   H940    1.113   .     S
C773   H943    1.109   .     S
C773   O1025   1.411   .     S
C773   H941    1.113   .     S
C774   C803    1.462   .     S
C774   C1158   1.400   1_455 S
C775   C804    1.462   .     S
C775   C1125   1.400   1_455 A
C775   C821    1.400   .     S
C776   C801    1.463   .     S
C776   C788    1.400   .     S
C777   O1010   1.385   .     S
C777   C1123   1.400   .     A
C778   C802    1.463   .     S
C778   C843    1.400   .     S
C779   C807    1.462   .     S
C779   C854    1.400   .     A
C780   C808    1.462   .     S
C781   C1057   1.400   1_455 A
C781   C805    1.463   .     S
C782   C806    1.463   .     S
C782   C1112   1.400   1_455 S
C783   C789    1.404   .     A
C783   C862    1.419   .     A
C784   C787    1.404   .     A
C784   C863    1.419   .     A
C785   C791    1.404   .     A
C785   C864    1.418   .     A
C786   C790    1.404   .     A
C788   O1011   1.385   .     S
C792   C797    1.404   1_556 S
C793   C796    1.404   1_554 S
C794   C800    1.404   1_556 S
C795   C798    1.404   1_554 S
C796   C793    1.404   1_556 S
C797   C792    1.404   1_554 S
C798   C795    1.404   1_556 S
C799   O1012   1.385   .     S
C799   C82     1.400   1_565 A
C800   C794    1.404   1_554 S
C801   O1028   1.280   .     S
C802   O1016   1.280   .     S
C803   O1026   1.280   .     A
C803   O1311   1.280   1_455 S
C804   O1375   1.280   1_455 A
C804   O964    1.280   .     S
C805   O965    1.280   .     S
C805   O969    1.280   .     S
C806   O966    1.280   .     S
C806   O970    1.280   .     S
C807   O967    1.280   .     A
C807   O971    1.280   .     A
C808   O968    1.279   .     A
C808   O973    1.279   .     A
C809   O974    1.282   .     A
C809   O1002   1.283   .     A
C810   C862    1.414   .     A
C810   O1013   1.385   .     S
C810   C1122   1.400   .     S
C811   O1003   1.283   .     A
C811   O975    1.282   .     A
C812   O1000   1.283   .     A
C812   O976    1.282   .     A
C813   O1001   1.283   .     A
C813   O977    1.282   .     A
C814   O978    1.282   .     A
C814   O1007   1.283   .     A
C815   O979    1.282   .     A
C815   O1008   1.283   .     A
C816   O980    1.282   .     A
C816   O1004   1.283   .     A
C817   O1006   1.283   .     A
C817   O981    1.282   .     A
C818   O993    1.282   .     A
C818   O982    1.283   .     A
C819   O995    1.282   .     A
C819   O984    1.283   .     A
C820   O991    1.282   .     A
C820   O985    1.283   .     A
C821   C863    1.414   .     A
C821   O1014   1.385   .     S
C822   O992    1.282   .     A
C822   O986    1.283   .     A
C823   O987    1.283   .     A
C823   O998    1.282   .     A
C824   O999    1.282   .     A
C824   O988    1.283   .     A
C825   O989    1.283   .     A
C825   O996    1.282   .     A
C826   O997    1.282   .     A
C826   O990    1.283   .     A
C827   H865    1.083   .     S
C827   C844    1.386   .     A
C828   H876    1.083   .     S
C828   C842    1.386   .     A
C829   C841    1.386   .     A
C829   H887    1.083   .     S
C830   C840    1.386   .     A
C830   H898    1.083   .     S
C831   H909    1.083   .     S
C831   C839    1.386   .     A
C832   O1015   1.385   .     S
C832   C80     1.400   1_565 A
C832   C864    1.414   .     A
C833   C838    1.386   .     A
C833   H920    1.083   .     S
C834   C837    1.386   .     A
C834   H931    1.083   .     S
C835   C836    1.386   .     A
C835   H942    1.083   .     S
C836   H944    1.083   .     S
C837   H866    1.083   .     S
C838   H867    1.083   .     S
C839   H868    1.083   .     S
C840   H869    1.083   .     S
C841   H870    1.083   .     S
C842   H871    1.083   .     S
C843   O1017   1.385   .     S
C844   H872    1.083   .     S
C845   C861    1.386   .     A
C845   H873    1.083   .     S
C846   C860    1.386   .     A
C846   H874    1.083   .     S
C847   H875    1.083   .     S
C847   C859    1.386   .     A
C848   H877    1.083   .     S
C848   C858    1.386   .     A
C849   C857    1.386   .     A
C849   H878    1.083   .     S
C850   H879    1.083   .     S
C850   C856    1.386   .     A
C851   C855    1.386   .     A
C851   H880    1.083   .     S
C852   H881    1.083   .     S
C852   C853    1.386   .     A
C853   H882    1.083   .     S
C854   O1018   1.385   .     S
C855   H883    1.083   .     S
C856   H884    1.083   .     S
C857   H885    1.083   .     S
C858   H886    1.083   .     S
C859   H888    1.083   .     S
C860   H889    1.083   .     S
C861   H890    1.083   .     S
C862   C1078   1.424   .     S
C864   C37     1.423   1_565 A
O961   Zn1032  1.950   .     S
O961   Zn1040  1.950   .     S
O961   Zn1029  1.950   .     S
O962   C106    1.280   1_565 A
O962   Zn1031  1.954   .     S
O963   Zn1034  1.954   .     S
O963   C1151   1.280   .     S
O964   Zn1033  1.954   .     S
O965   Zn1043  1.954   .     S
O966   Zn1042  1.954   .     S
O967   Zn1037  1.954   .     S
O968   Zn1029  1.954   .     S
O969   Zn1039  1.954   .     S
O970   Zn1038  1.954   .     S
O971   Zn1041  1.954   .     S
O972   Zn1035  1.950   .     S
O972   Zn1037  1.950   .     S
O972   Zn1041  1.950   .     S
O973   Zn1040  1.954   .     S
O974   Zn1032  1.936   .     S
O975   Zn1031  1.936   .     S
O976   Zn1034  1.936   .     S
O977   Zn1033  1.936   .     S
O978   Zn1036  1.936   .     S
O979   Zn1035  1.936   .     S
O980   Zn1030  1.936   .     S
O981   Zn1044  1.936   .     S
O982   Zn1031  1.936   .     S
O983   Zn1382  1.950   1_455 S
O983   Zn1030  1.950   .     S
O983   Zn1038  1.950   .     S
O983   Zn1042  1.950   .     S
O984   Zn1032  1.936   .     S
O985   Zn1044  1.936   .     S
O986   Zn1030  1.936   .     S
O987   Zn1035  1.936   .     S
O988   Zn1036  1.936   .     S
O989   Zn1033  1.936   .     S
O990   Zn1034  1.936   .     S
O991   Zn1387  1.936   .     S
O992   Zn1038  1.936   .     S
O993   Zn345   1.936   1_565 S
O994   Zn1043  1.950   .     S
O994   Zn1392  1.950   1_455 S
O994   Zn1033  1.950   .     S
O994   Zn1039  1.950   .     S
O995   Zn1040  1.936   .     S
O996   Zn1043  1.936   .     S
O997   Zn1390  1.936   .     S
O998   Zn1037  1.936   .     S
O999   Zn333   1.936   1_565 S
O1000  Zn1386  1.936   .     S
O1001  Zn1039  1.936   .     S
O1002  Zn1029  1.936   .     S
O1003  Zn341   1.936   1_565 S
O1004  Zn1042  1.936   .     S
O1005  C105    1.280   1_565 A
O1005  Zn1036  1.954   .     S
O1006  Zn1391  1.936   .     S
O1007  Zn344   1.936   1_565 S
O1008  Zn1041  1.936   .     S
O1016  Zn1035  1.954   .     S
O1026  Zn1030  1.954   .     S
O1027  Zn1044  1.954   .     S
O1027  C1152   1.280   .     A
O1028  Zn1032  1.954   .     S
Zn1031 O276    1.950   1_565 S
Zn1034 O1331   1.950   .     S
Zn1036 O265    1.950   1_565 S
Zn1038 O1348   1.936   1_455 S
Zn1039 O1339   1.936   1_455 S
Zn1042 O1345   1.936   1_455 S
Zn1043 O1354   1.936   1_455 S
Zn1044 O1342   1.950   .     S
C1045  C1122   1.400   .     A
C1045  O1357   1.385   .     S
C1045  C1048   1.414   .     A
C1046  C1058   1.414   .     A
C1046  O1367   1.385   .     S
C1046  C432    1.399   1_565 S
C1047  C1191   1.414   .     A
C1047  C1134   1.418   .     A
C1047  C1082   1.423   .     S
C1048  C1135   1.419   .     A
C1048  C1078   1.424   .     A
C1049  C1125   1.414   .     A
C1049  C1137   1.419   .     A
C1049  C732    1.424   1_655 S
C1050  C1138   1.418   .     A
C1050  C1136   1.414   .     A
C1050  C1081   1.423   .     S
C1051  C1147   1.414   .     A
C1051  C1139   1.418   .     A
C1051  C386    1.423   1_565 A
C1052  C1079   1.414   .     A
C1052  C1140   1.419   .     A
C1052  C387    1.424   1_565 S
C1053  C1141   1.419   .     A
C1053  C1090   1.414   .     A
C1053  C1084   1.424   .     A
C1054  C1101   1.414   .     A
C1054  C1142   1.419   .     A
C1054  C1085   1.423   .     S
C1055  C1143   1.419   .     A
C1055  C1112   1.414   .     A
C1055  C738    1.423   1_655 S
C1056  C1202   1.414   .     A
C1056  C1083   1.424   .     A
C1056  C1144   1.419   .     A
C1057  C781    1.400   1_655 A
C1057  O1368   1.385   .     S
C1057  C1059   1.414   .     A
C1058  C1145   1.419   .     A
C1058  C388    1.424   1_565 S
C1059  C737    1.424   1_655 A
C1059  C1146   1.419   .     A
C1060  C1148   1.419   .     A
C1060  C1068   1.414   .     A
C1060  C1086   1.423   .     A
C1061  C1164   1.455   .     S
C1061  C1194   1.402   .     A
C1061  C1192   1.402   .     A
C1062  C1165   1.455   .     S
C1062  C1193   1.402   .     A
C1062  C1190   1.402   .     A
C1063  C1157   1.455   .     S
C1063  C1189   1.402   .     A
C1063  C1196   1.402   .     A
C1064  C1188   1.402   .     A
C1064  C1195   1.402   .     A
C1064  C1159   1.455   .     S
C1065  C1160   1.455   .     S
C1065  C1187   1.402   .     A
C1065  C1198   1.402   .     A
C1066  C1186   1.402   .     A
C1066  C1197   1.402   .     A
C1066  C1161   1.455   .     S
C1067  C1162   1.455   .     S
C1067  C1200   1.402   .     A
C1067  C1185   1.402   .     A
C1068  O1369   1.385   .     S
C1068  C1130   1.400   .     A
C1069  C1163   1.455   .     S
C1069  C1184   1.402   .     A
C1069  C1199   1.402   .     A
C1070  C1183   1.402   .     A
C1070  C1203   1.402   .     A
C1070  C1173   1.455   .     S
C1071  C1182   1.402   .     A
C1071  C1201   1.402   .     A
C1071  C1174   1.455   .     S
C1072  C1181   1.402   .     A
C1072  C1166   1.455   .     S
C1072  C1205   1.402   .     A
C1073  C1179   1.402   .     A
C1073  C1204   1.402   .     A
C1073  C1167   1.455   .     S
C1074  C1178   1.402   .     A
C1074  C1207   1.402   .     A
C1074  C1168   1.455   .     S
C1075  C1177   1.402   .     A
C1075  C1206   1.402   .     A
C1075  C1170   1.455   .     S
C1076  C1171   1.455   .     S
C1076  C1209   1.402   .     A
C1076  C1176   1.402   .     A
C1077  C1175   1.402   .     A
C1077  C1208   1.402   .     A
C1077  C1172   1.455   .     S
C1078  C1080   1.413   .     A
C1079  O1370   1.385   .     S
C1079  C431    1.399   1_565 S
C1080  C1211   1.424   .     A
C1081  C1082   1.413   .     A
C1083  C1084   1.413   1_556 S
C1084  C1083   1.413   1_554 S
C1085  C1086   1.413   1_556 S
C1086  C1085   1.413   1_554 S
C1087  N1293   1.158   .     T
C1087  C1131   1.456   .     S
C1088  N1301   1.158   .     T
C1088  C1132   1.456   .     S
C1089  N1302   1.158   .     T
C1089  C1133   1.455   .     S
C1090  C1128   1.399   .     A
C1090  O1371   1.385   .     S
C1091  C1134   1.455   .     S
C1091  N1303   1.158   .     T
C1092  N1304   1.158   .     T
C1092  C1135   1.456   .     S
C1093  C1137   1.456   .     S
C1093  N1305   1.158   .     T
C1094  C1138   1.455   .     S
C1094  N1306   1.158   .     T
C1095  C1139   1.455   .     S
C1095  N1307   1.158   .     T
C1096  N1308   1.158   .     T
C1096  C1140   1.456   .     S
C1097  N1294   1.158   .     T
C1097  C1141   1.456   .     S
C1098  N1295   1.158   .     T
C1098  C1142   1.456   .     S
C1099  C1143   1.456   .     S
C1099  N1296   1.158   .     T
C1100  N1297   1.158   .     T
C1100  C1144   1.456   .     S
C1101  O1372   1.385   .     S
C1101  C1129   1.400   .     S
C1102  C1145   1.456   .     S
C1102  N1298   1.158   .     T
C1103  N1299   1.158   .     T
C1103  C1146   1.456   .     S
C1104  N1300   1.158   .     T
C1104  C1148   1.456   .     S
C1105  H1241   1.109   .     S
C1105  H1240   1.113   .     S
C1105  H1239   1.113   .     S
C1105  O1357   1.411   .     S
C1106  O1358   1.411   .     S
C1106  H1243   1.113   .     S
C1106  H1244   1.109   .     S
C1106  H1242   1.113   .     S
C1107  O1359   1.411   .     S
C1107  H1247   1.113   .     S
C1107  H1245   1.113   .     S
C1107  H1248   1.109   .     S
C1108  H1249   1.113   .     S
C1108  H1251   1.109   .     S
C1108  H1250   1.113   .     S
C1108  O1360   1.411   .     S
C1109  H1252   1.113   .     S
C1109  H1254   1.109   .     S
C1109  O1361   1.411   .     S
C1109  H1253   1.113   .     S
C1110  H1256   1.113   .     S
C1110  H1255   1.113   .     S
C1110  H1258   1.109   .     S
C1110  O1362   1.411   .     S
C1111  H1260   1.113   .     S
C1111  O1363   1.411   .     S
C1111  H1261   1.109   .     S
C1111  H1259   1.113   .     S
C1112  O1373   1.385   .     S
C1112  C782    1.400   1_655 S
C1113  H1262   1.113   .     S
C1113  H1264   1.109   .     S
C1113  O1365   1.411   .     S
C1113  H1263   1.113   .     S
C1114  H1267   1.109   .     S
C1114  H1265   1.113   .     S
C1114  H1266   1.113   .     S
C1114  O1366   1.411   .     S
C1115  H1269   1.113   .     S
C1115  O1367   1.411   .     S
C1115  H1270   1.113   .     S
C1115  H1271   1.109   .     S
C1116  O1368   1.411   .     S
C1116  H1273   1.113   .     S
C1116  H1274   1.109   .     S
C1116  H1272   1.113   .     S
C1117  O1369   1.411   .     S
C1117  H1275   1.113   .     S
C1117  H1277   1.109   .     S
C1117  H1276   1.113   .     S
C1118  H1278   1.113   .     S
C1118  O1370   1.411   .     S
C1118  H1280   1.113   .     S
C1118  H1281   1.109   .     S
C1119  O1371   1.411   .     S
C1119  H1284   1.109   .     S
C1119  H1282   1.113   .     S
C1119  H1283   1.113   .     S
C1120  H1285   1.113   .     S
C1120  H1287   1.109   .     S
C1120  O1372   1.411   .     S
C1120  H1286   1.113   .     S
C1121  H1288   1.113   .     S
C1121  H1291   1.109   .     S
C1121  O1373   1.411   .     S
C1121  H1289   1.113   .     S
C1122  C1151   1.462   .     S
C1123  C1152   1.462   .     S
C1123  C1169   1.400   .     S
C1124  C1149   1.463   .     S
C1124  C1136   1.400   .     S
C1125  O1358   1.385   .     S
C1125  C775    1.400   1_655 A
C1126  C1150   1.463   .     S
C1126  C1191   1.400   .     S
C1127  C1155   1.462   .     S
C1127  C1202   1.400   .     A
C1128  C1156   1.462   .     S
C1129  C1153   1.463   .     S
C1130  C1154   1.463   .     S
C1131  C1137   1.404   .     A
C1131  C1210   1.419   .     A
C1132  C1135   1.404   .     A
C1132  C1211   1.419   .     A
C1133  C1139   1.404   .     A
C1133  C1212   1.418   .     A
C1134  C1138   1.404   .     A
C1136  O1359   1.385   .     S
C1140  C1145   1.404   1_556 S
C1141  C1144   1.404   1_554 S
C1142  C1148   1.404   1_556 S
C1143  C1146   1.404   1_554 S
C1144  C1141   1.404   1_556 S
C1145  C1140   1.404   1_554 S
C1146  C1143   1.404   1_556 S
C1147  O1360   1.385   .     S
C1147  C430    1.400   1_565 A
C1148  C1142   1.404   1_554 S
C1149  O1376   1.280   .     S
C1150  O1364   1.280   .     S
C1151  O1374   1.280   .     A
C1152  O1312   1.280   .     S
C1153  O1313   1.280   .     S
C1153  O1317   1.280   .     S
C1154  O1314   1.280   .     S
C1154  O1318   1.280   .     S
C1155  O1315   1.280   .     A
C1155  O1319   1.280   .     A
C1156  O1316   1.279   .     A
C1156  O1321   1.279   .     A
C1157  O1322   1.282   .     A
C1157  O1350   1.283   .     A
C1158  C1210   1.414   .     A
C1158  O1361   1.385   .     S
C1158  C774    1.400   1_655 S
C1159  O1351   1.283   .     A
C1159  O1323   1.282   .     A
C1160  O1348   1.283   .     A
C1160  O1324   1.282   .     A
C1161  O1349   1.283   .     A
C1161  O1325   1.282   .     A
C1162  O1326   1.282   .     A
C1162  O1355   1.283   .     A
C1163  O1327   1.282   .     A
C1163  O1356   1.283   .     A
C1164  O1328   1.282   .     A
C1164  O1352   1.283   .     A
C1165  O1354   1.283   .     A
C1165  O1329   1.282   .     A
C1166  O1341   1.282   .     A
C1166  O1330   1.283   .     A
C1167  O1343   1.282   .     A
C1167  O1332   1.283   .     A
C1168  O1339   1.282   .     A
C1168  O1333   1.283   .     A
C1169  C1211   1.414   .     A
C1169  O1362   1.385   .     S
C1170  O1340   1.282   .     A
C1170  O1334   1.283   .     A
C1171  O1335   1.283   .     A
C1171  O1346   1.282   .     A
C1172  O1347   1.282   .     A
C1172  O1336   1.283   .     A
C1173  O1337   1.283   .     A
C1173  O1344   1.282   .     A
C1174  O1345   1.282   .     A
C1174  O1338   1.283   .     A
C1175  H1213   1.083   .     S
C1175  C1192   1.386   .     A
C1176  H1224   1.083   .     S
C1176  C1190   1.386   .     A
C1177  C1189   1.386   .     A
C1177  H1235   1.083   .     S
C1178  C1188   1.386   .     A
C1178  H1246   1.083   .     S
C1179  H1257   1.083   .     S
C1179  C1187   1.386   .     A
C1180  O1363   1.385   .     S
C1180  C428    1.400   1_565 A
C1180  C1212   1.414   .     A
C1181  C1186   1.386   .     A
C1181  H1268   1.083   .     S
C1182  C1185   1.386   .     A
C1182  H1279   1.083   .     S
C1183  C1184   1.386   .     A
C1183  H1290   1.083   .     S
C1184  H1292   1.083   .     S
C1185  H1214   1.083   .     S
C1186  H1215   1.083   .     S
C1187  H1216   1.083   .     S
C1188  H1217   1.083   .     S
C1189  H1218   1.083   .     S
C1190  H1219   1.083   .     S
C1191  O1365   1.385   .     S
C1192  H1220   1.083   .     S
C1193  C1209   1.386   .     A
C1193  H1221   1.083   .     S
C1194  C1208   1.386   .     A
C1194  H1222   1.083   .     S
C1195  H1223   1.083   .     S
C1195  C1207   1.386   .     A
C1196  H1225   1.083   .     S
C1196  C1206   1.386   .     A
C1197  C1205   1.386   .     A
C1197  H1226   1.083   .     S
C1198  H1227   1.083   .     S
C1198  C1204   1.386   .     A
C1199  C1203   1.386   .     A
C1199  H1228   1.083   .     S
C1200  H1229   1.083   .     S
C1200  C1201   1.386   .     A
C1201  H1230   1.083   .     S
C1202  O1366   1.385   .     S
C1203  H1231   1.083   .     S
C1204  H1232   1.083   .     S
C1205  H1233   1.083   .     S
C1206  H1234   1.083   .     S
C1207  H1236   1.083   .     S
C1208  H1237   1.083   .     S
C1209  H1238   1.083   .     S
C1210  C730    1.424   1_655 S
C1212  C385    1.423   1_565 A
O1309  Zn1380  1.950   .     S
O1309  Zn1388  1.950   .     S
O1309  Zn1377  1.950   .     S
O1310  C454    1.280   1_565 A
O1310  Zn1379  1.954   .     S
O1311  Zn1382  1.954   .     S
O1311  C803    1.280   1_655 S
O1312  Zn1381  1.954   .     S
O1313  Zn1391  1.954   .     S
O1314  Zn1390  1.954   .     S
O1315  Zn1385  1.954   .     S
O1316  Zn1377  1.954   .     S
O1317  Zn1387  1.954   .     S
O1318  Zn1386  1.954   .     S
O1319  Zn1389  1.954   .     S
O1320  Zn1383  1.950   .     S
O1320  Zn1385  1.950   .     S
O1320  Zn1389  1.950   .     S
O1321  Zn1388  1.954   .     S
O1322  Zn1380  1.936   .     S
O1323  Zn1379  1.936   .     S
O1324  Zn1382  1.936   .     S
O1325  Zn1381  1.936   .     S
O1326  Zn1384  1.936   .     S
O1327  Zn1383  1.936   .     S
O1328  Zn1378  1.936   .     S
O1329  Zn1392  1.936   .     S
O1330  Zn1379  1.936   .     S
O1331  Zn1378  1.950   .     S
O1331  Zn1386  1.950   .     S
O1331  Zn1390  1.950   .     S
O1332  Zn1380  1.936   .     S
O1333  Zn1392  1.936   .     S
O1334  Zn1378  1.936   .     S
O1335  Zn1383  1.936   .     S
O1336  Zn1384  1.936   .     S
O1337  Zn1381  1.936   .     S
O1338  Zn1382  1.936   .     S
O1339  Zn1039  1.936   1_655 S
O1340  Zn1386  1.936   .     S
O1341  Zn693   1.936   1_565 S
O1342  Zn1391  1.950   .     S
O1342  Zn1381  1.950   .     S
O1342  Zn1387  1.950   .     S
O1343  Zn1388  1.936   .     S
O1344  Zn1391  1.936   .     S
O1345  Zn1042  1.936   1_655 S
O1346  Zn1385  1.936   .     S
O1347  Zn681   1.936   1_565 S
O1348  Zn1038  1.936   1_655 S
O1349  Zn1387  1.936   .     S
O1350  Zn1377  1.936   .     S
O1351  Zn689   1.936   1_565 S
O1352  Zn1390  1.936   .     S
O1353  C453    1.280   1_565 A
O1353  Zn1384  1.954   .     S
O1354  Zn1043  1.936   1_655 S
O1355  Zn692   1.936   1_565 S
O1356  Zn1389  1.936   .     S
O1364  Zn1383  1.954   .     S
O1374  Zn1378  1.954   .     S
O1375  Zn1392  1.954   .     S
O1375  C804    1.280   1_655 A
O1376  Zn1380  1.954   .     S
Zn1379 O624    1.950   1_565 S
Zn1382 O983    1.950   1_655 S
Zn1384 O613    1.950   1_565 S
Zn1392 O994    1.950   1_655 S
