data_str_m1_o10_o16_pcu_sym.247
_audit_creation_date              2020-01-03
_audit_creation_method            'Materials Studio'
_symmetry_space_group_name_H-M    'P1'
_symmetry_Int_Tables_number       1
_symmetry_cell_setting            triclinic
loop_
_symmetry_equiv_pos_as_xyz
  x,y,z
_cell_length_a                    32.4870
_cell_length_b                    32.6913
_cell_length_c                    31.1569
_cell_angle_alpha                 95.9521
_cell_angle_beta                  74.4677
_cell_angle_gamma                 97.7680
loop_
_atom_site_label
_atom_site_type_symbol
_atom_site_fract_x
_atom_site_fract_y
_atom_site_fract_z
_atom_site_U_iso_or_equiv
_atom_site_adp_type
_atom_site_occupancy
C1     C     0.05304   0.16035   0.25989   0.00000  Uiso   1.00
C2     C     0.16695   0.15522   0.05996   0.00000  Uiso   1.00
C3     C     0.23311   0.12819   0.05769   0.00000  Uiso   1.00
C4     C     0.28078   0.17326   0.23963   0.00000  Uiso   1.00
C5     C     0.14057   0.19126   0.42033   0.00000  Uiso   1.00
C6     C     0.32668   0.17242   0.23301   0.00000  Uiso   1.00
C7     C     0.00787   0.15986   0.26518   0.00000  Uiso   1.00
C8     C     0.17812   0.32213   0.23522   0.00000  Uiso   1.00
C9     C     0.15248   0.01318   0.26627   0.00000  Uiso   1.00
C10    C     0.15640   0.05636   0.26047   0.00000  Uiso   1.00
C11    C     0.17632   0.27795   0.24021   0.00000  Uiso   1.00
C12    C     0.08579   0.20058   0.49010   0.00000  Uiso   1.00
C13    C     0.18538   0.14851   0.12965   0.00000  Uiso   1.00
C14    C     0.14953   0.18546   0.37091   0.00000  Uiso   1.00
C15    C     0.24508   0.12770   0.01152   0.00000  Uiso   1.00
C16    C     0.19429   0.14185   0.08164   0.00000  Uiso   1.00
C17    C     0.10089   0.20478   0.44434   0.00000  Uiso   1.00
C18    C     0.11045   0.18352   0.01252   0.00000  Uiso   1.00
C19    C     0.15182   0.17209   0.49035   0.00000  Uiso   1.00
C20    C     0.16765   0.17750   0.44394   0.00000  Uiso   1.00
C21    C     0.17820   0.15594   0.01310   0.00000  Uiso   1.00
C22    C     0.21788   0.14118   0.48838   0.00000  Uiso   1.00
C23    C     0.23064   0.14356   0.44180   0.00000  Uiso   1.00
C24    C     0.20965   0.16778   0.42226   0.00000  Uiso   1.00
F25    F     0.31530   0.15467   0.30681   0.00000  Uiso   1.00
F26    F     0.28550   0.11872   0.49083   0.00000  Uiso   1.00
F27    F     0.07551   0.21999   0.42293   0.00000  Uiso   1.00
F28    F     0.23226   0.18408   0.38332   0.00000  Uiso   1.00
F29    F     0.02096   0.18398   0.19383   0.00000  Uiso   1.00
H30    H     0.25513   0.11958   0.07503   0.00000  Uiso   1.00
H31    H     0.13872   0.16760   0.08108   0.00000  Uiso   1.00
H32    H     0.09599   0.17910   0.04726   0.00000  Uiso   1.00
H33    H     0.26308   0.32304   0.12874   0.00000  Uiso   1.00
H34    H     0.08258   0.03171   0.37837   0.00000  Uiso   1.00
H35    H     0.27374   0.08152   0.33984   0.00000  Uiso   1.00
H36    H     0.30580   0.21248   0.00609   0.00000  Uiso   1.00
O37    O     0.16667   0.16667   0.25000   0.00000  Uiso   1.00
O38    O     0.15451   0.12637   0.15459   0.00000  Uiso   1.00
O39    O     0.12940   0.20391   0.34968   0.00000  Uiso   1.00
O40    O     0.20824   0.17759   0.14606   0.00000  Uiso   1.00
O41    O     0.17451   0.15880   0.34968   0.00000  Uiso   1.00
O42    O     0.18853   0.02473   0.15866   0.00000  Uiso   1.00
O43    O     0.24307   0.04593   0.20005   0.00000  Uiso   1.00
O44    O     0.24516   0.30821   0.15471   0.00000  Uiso   1.00
O45    O     0.08052   0.30327   0.31257   0.00000  Uiso   1.00
O46    O     0.14331   0.31233   0.34400   0.00000  Uiso   1.00
O47    O     0.10068   0.04180   0.34967   0.00000  Uiso   1.00
O48    O     0.17930   0.08019   0.28214   0.00000  Uiso   1.00
O49    O     0.31281   0.13603   0.39799   0.00000  Uiso   1.00
O50    O     0.26758   0.07242   0.42457   0.00000  Uiso   1.00
O51    O     0.25542   0.10291   0.35631   0.00000  Uiso   1.00
O52    O     0.01802   0.19392   0.06207   0.00000  Uiso   1.00
O53    O     0.03928   0.26144   0.03017   0.00000  Uiso   1.00
O54    O     0.33328   0.20331   0.48751   0.00000  Uiso   1.00
O55    O     0.14632   0.26085   0.27013   0.00000  Uiso   1.00
O56    O     0.07412   0.13291   0.23413   0.00000  Uiso   1.00
O57    O     0.26693   0.19272   0.21361   0.00000  Uiso   1.00
O58    O     0.07071   0.18878   0.28213   0.00000  Uiso   1.00
O59    O     0.25491   0.15226   0.27014   0.00000  Uiso   1.00
O60    O     0.13760   0.06944   0.23413   0.00000  Uiso   1.00
O61    O     0.20345   0.25620   0.21360   0.00000  Uiso   1.00
S62    S     0.21429   0.00986   0.18628   0.00000  Uiso   1.00
S63    S     0.11860   0.33251   0.31915   0.00000  Uiso   1.00
S64    S     0.26849   0.11298   0.40536   0.00000  Uiso   1.00
S65    S     0.03483   0.21543   0.01941   0.00000  Uiso   1.00
Zn66   Zn    0.19338   0.13994   0.28734   0.00000  Uiso   1.00
Zn67   Zn    0.13379   0.12458   0.21876   0.00000  Uiso   1.00
Zn68   Zn    0.21056   0.19775   0.20657   0.00000  Uiso   1.00
Zn69   Zn    0.12893   0.20439   0.28733   0.00000  Uiso   1.00
C70    C     0.38637   0.16035   0.25989   0.00000  Uiso   1.00
C71    C     0.50028   0.15522   0.05996   0.00000  Uiso   1.00
C72    C     0.56644   0.12819   0.05769   0.00000  Uiso   1.00
C73    C     0.61411   0.17326   0.23963   0.00000  Uiso   1.00
C74    C     0.47391   0.19126   0.42033   0.00000  Uiso   1.00
C75    C     0.66002   0.17242   0.23301   0.00000  Uiso   1.00
C76    C     0.34120   0.15986   0.26518   0.00000  Uiso   1.00
C77    C     0.51146   0.32213   0.23522   0.00000  Uiso   1.00
C78    C     0.48581   0.01318   0.26627   0.00000  Uiso   1.00
C79    C     0.48973   0.05636   0.26047   0.00000  Uiso   1.00
C80    C     0.50965   0.27795   0.24021   0.00000  Uiso   1.00
C81    C     0.41913   0.20058   0.49010   0.00000  Uiso   1.00
C82    C     0.51871   0.14851   0.12965   0.00000  Uiso   1.00
C83    C     0.48286   0.18546   0.37091   0.00000  Uiso   1.00
C84    C     0.57841   0.12770   0.01152   0.00000  Uiso   1.00
C85    C     0.52762   0.14185   0.08164   0.00000  Uiso   1.00
C86    C     0.43423   0.20478   0.44434   0.00000  Uiso   1.00
C87    C     0.44379   0.18352   0.01252   0.00000  Uiso   1.00
C88    C     0.48515   0.17209   0.49035   0.00000  Uiso   1.00
C89    C     0.50098   0.17750   0.44394   0.00000  Uiso   1.00
C90    C     0.51153   0.15594   0.01310   0.00000  Uiso   1.00
C91    C     0.55121   0.14118   0.48838   0.00000  Uiso   1.00
C92    C     0.56397   0.14356   0.44180   0.00000  Uiso   1.00
C93    C     0.54298   0.16778   0.42226   0.00000  Uiso   1.00
F94    F     0.64863   0.15467   0.30681   0.00000  Uiso   1.00
F95    F     0.61883   0.11872   0.49083   0.00000  Uiso   1.00
F96    F     0.40884   0.21999   0.42293   0.00000  Uiso   1.00
F97    F     0.56560   0.18408   0.38332   0.00000  Uiso   1.00
F98    F     0.35429   0.18398   0.19383   0.00000  Uiso   1.00
H99    H     0.58846   0.11958   0.07503   0.00000  Uiso   1.00
H100   H     0.47206   0.16760   0.08108   0.00000  Uiso   1.00
H101   H     0.42933   0.17910   0.04726   0.00000  Uiso   1.00
H102   H     0.59641   0.32304   0.12874   0.00000  Uiso   1.00
H103   H     0.41591   0.03171   0.37837   0.00000  Uiso   1.00
H104   H     0.60708   0.08152   0.33984   0.00000  Uiso   1.00
H105   H     0.63914   0.21248   0.00609   0.00000  Uiso   1.00
O106   O     0.50000   0.16667   0.25000   0.00000  Uiso   1.00
O107   O     0.48784   0.12637   0.15459   0.00000  Uiso   1.00
O108   O     0.46274   0.20391   0.34968   0.00000  Uiso   1.00
O109   O     0.54157   0.17759   0.14606   0.00000  Uiso   1.00
O110   O     0.50785   0.15880   0.34968   0.00000  Uiso   1.00
O111   O     0.52186   0.02473   0.15866   0.00000  Uiso   1.00
O112   O     0.57640   0.04593   0.20005   0.00000  Uiso   1.00
O113   O     0.57849   0.30821   0.15471   0.00000  Uiso   1.00
O114   O     0.41386   0.30327   0.31257   0.00000  Uiso   1.00
O115   O     0.47665   0.31233   0.34400   0.00000  Uiso   1.00
O116   O     0.43402   0.04180   0.34967   0.00000  Uiso   1.00
O117   O     0.51264   0.08019   0.28214   0.00000  Uiso   1.00
O118   O     0.64614   0.13603   0.39799   0.00000  Uiso   1.00
O119   O     0.60091   0.07242   0.42457   0.00000  Uiso   1.00
O120   O     0.58875   0.10291   0.35631   0.00000  Uiso   1.00
O121   O     0.35135   0.19392   0.06207   0.00000  Uiso   1.00
O122   O     0.37261   0.26144   0.03017   0.00000  Uiso   1.00
O123   O     0.66661   0.20331   0.48751   0.00000  Uiso   1.00
O124   O     0.47965   0.26085   0.27013   0.00000  Uiso   1.00
O125   O     0.40745   0.13291   0.23413   0.00000  Uiso   1.00
O126   O     0.60026   0.19272   0.21361   0.00000  Uiso   1.00
O127   O     0.40405   0.18878   0.28213   0.00000  Uiso   1.00
O128   O     0.58824   0.15226   0.27014   0.00000  Uiso   1.00
O129   O     0.47093   0.06944   0.23413   0.00000  Uiso   1.00
O130   O     0.53678   0.25620   0.21360   0.00000  Uiso   1.00
S131   S     0.54762   0.00986   0.18628   0.00000  Uiso   1.00
S132   S     0.45193   0.33251   0.31915   0.00000  Uiso   1.00
S133   S     0.60183   0.11298   0.40536   0.00000  Uiso   1.00
S134   S     0.36816   0.21543   0.01941   0.00000  Uiso   1.00
Zn135  Zn    0.52672   0.13994   0.28734   0.00000  Uiso   1.00
Zn136  Zn    0.46713   0.12458   0.21876   0.00000  Uiso   1.00
Zn137  Zn    0.54389   0.19775   0.20657   0.00000  Uiso   1.00
Zn138  Zn    0.46226   0.20439   0.28733   0.00000  Uiso   1.00
C139   C     0.71970   0.16035   0.25989   0.00000  Uiso   1.00
C140   C     0.83362   0.15522   0.05996   0.00000  Uiso   1.00
C141   C     0.89978   0.12819   0.05769   0.00000  Uiso   1.00
C142   C     0.94745   0.17326   0.23963   0.00000  Uiso   1.00
C143   C     0.80724   0.19126   0.42033   0.00000  Uiso   1.00
C144   C     0.99335   0.17242   0.23301   0.00000  Uiso   1.00
C145   C     0.67454   0.15986   0.26518   0.00000  Uiso   1.00
C146   C     0.84479   0.32213   0.23522   0.00000  Uiso   1.00
C147   C     0.81914   0.01318   0.26627   0.00000  Uiso   1.00
C148   C     0.82307   0.05636   0.26047   0.00000  Uiso   1.00
C149   C     0.84299   0.27795   0.24021   0.00000  Uiso   1.00
C150   C     0.75246   0.20058   0.49010   0.00000  Uiso   1.00
C151   C     0.85204   0.14851   0.12965   0.00000  Uiso   1.00
C152   C     0.81620   0.18546   0.37091   0.00000  Uiso   1.00
C153   C     0.91175   0.12770   0.01152   0.00000  Uiso   1.00
C154   C     0.86096   0.14185   0.08164   0.00000  Uiso   1.00
C155   C     0.76756   0.20478   0.44434   0.00000  Uiso   1.00
C156   C     0.77712   0.18352   0.01252   0.00000  Uiso   1.00
C157   C     0.81848   0.17209   0.49035   0.00000  Uiso   1.00
C158   C     0.83431   0.17750   0.44394   0.00000  Uiso   1.00
C159   C     0.84486   0.15594   0.01310   0.00000  Uiso   1.00
C160   C     0.88454   0.14118   0.48838   0.00000  Uiso   1.00
C161   C     0.89731   0.14356   0.44180   0.00000  Uiso   1.00
C162   C     0.87632   0.16778   0.42226   0.00000  Uiso   1.00
F163   F     0.98197   0.15467   0.30681   0.00000  Uiso   1.00
F164   F     0.95216   0.11872   0.49083   0.00000  Uiso   1.00
F165   F     0.74218   0.21999   0.42293   0.00000  Uiso   1.00
F166   F     0.89893   0.18408   0.38332   0.00000  Uiso   1.00
F167   F     0.68763   0.18398   0.19383   0.00000  Uiso   1.00
H168   H     0.92179   0.11958   0.07503   0.00000  Uiso   1.00
H169   H     0.80539   0.16760   0.08108   0.00000  Uiso   1.00
H170   H     0.76266   0.17910   0.04726   0.00000  Uiso   1.00
H171   H     0.92974   0.32304   0.12874   0.00000  Uiso   1.00
H172   H     0.74925   0.03171   0.37837   0.00000  Uiso   1.00
H173   H     0.94041   0.08152   0.33984   0.00000  Uiso   1.00
H174   H     0.97247   0.21248   0.00609   0.00000  Uiso   1.00
O175   O     0.83333   0.16667   0.25000   0.00000  Uiso   1.00
O176   O     0.82118   0.12637   0.15459   0.00000  Uiso   1.00
O177   O     0.79607   0.20391   0.34968   0.00000  Uiso   1.00
O178   O     0.87491   0.17759   0.14606   0.00000  Uiso   1.00
O179   O     0.84118   0.15880   0.34968   0.00000  Uiso   1.00
O180   O     0.85519   0.02473   0.15866   0.00000  Uiso   1.00
O181   O     0.90973   0.04593   0.20005   0.00000  Uiso   1.00
O182   O     0.91183   0.30821   0.15471   0.00000  Uiso   1.00
O183   O     0.74719   0.30327   0.31257   0.00000  Uiso   1.00
O184   O     0.80998   0.31233   0.34400   0.00000  Uiso   1.00
O185   O     0.76735   0.04180   0.34967   0.00000  Uiso   1.00
O186   O     0.84597   0.08019   0.28214   0.00000  Uiso   1.00
O187   O     0.97947   0.13603   0.39799   0.00000  Uiso   1.00
O188   O     0.93424   0.07242   0.42457   0.00000  Uiso   1.00
O189   O     0.92208   0.10291   0.35631   0.00000  Uiso   1.00
O190   O     0.68468   0.19392   0.06207   0.00000  Uiso   1.00
O191   O     0.70595   0.26144   0.03017   0.00000  Uiso   1.00
O192   O     0.99995   0.20331   0.48751   0.00000  Uiso   1.00
O193   O     0.81298   0.26085   0.27013   0.00000  Uiso   1.00
O194   O     0.74078   0.13291   0.23413   0.00000  Uiso   1.00
O195   O     0.93360   0.19272   0.21361   0.00000  Uiso   1.00
O196   O     0.73738   0.18878   0.28213   0.00000  Uiso   1.00
O197   O     0.92158   0.15226   0.27014   0.00000  Uiso   1.00
O198   O     0.80426   0.06944   0.23413   0.00000  Uiso   1.00
O199   O     0.87012   0.25620   0.21360   0.00000  Uiso   1.00
S200   S     0.88095   0.00986   0.18628   0.00000  Uiso   1.00
S201   S     0.78527   0.33251   0.31915   0.00000  Uiso   1.00
S202   S     0.93516   0.11298   0.40536   0.00000  Uiso   1.00
S203   S     0.70149   0.21543   0.01941   0.00000  Uiso   1.00
Zn204  Zn    0.86005   0.13994   0.28734   0.00000  Uiso   1.00
Zn205  Zn    0.80046   0.12458   0.21876   0.00000  Uiso   1.00
Zn206  Zn    0.87723   0.19775   0.20657   0.00000  Uiso   1.00
Zn207  Zn    0.79560   0.20439   0.28733   0.00000  Uiso   1.00
C208   C     0.05304   0.49368   0.25989   0.00000  Uiso   1.00
C209   C     0.16695   0.48855   0.05996   0.00000  Uiso   1.00
C210   C     0.23311   0.46152   0.05769   0.00000  Uiso   1.00
C211   C     0.28078   0.50660   0.23963   0.00000  Uiso   1.00
C212   C     0.14057   0.52459   0.42033   0.00000  Uiso   1.00
C213   C     0.32668   0.50575   0.23301   0.00000  Uiso   1.00
C214   C     0.00787   0.49319   0.26518   0.00000  Uiso   1.00
C215   C     0.17812   0.65547   0.23522   0.00000  Uiso   1.00
C216   C     0.15248   0.34651   0.26627   0.00000  Uiso   1.00
C217   C     0.15640   0.38969   0.26047   0.00000  Uiso   1.00
C218   C     0.17632   0.61129   0.24021   0.00000  Uiso   1.00
C219   C     0.08579   0.53392   0.49010   0.00000  Uiso   1.00
C220   C     0.18538   0.48184   0.12965   0.00000  Uiso   1.00
C221   C     0.14953   0.51879   0.37091   0.00000  Uiso   1.00
C222   C     0.24508   0.46103   0.01152   0.00000  Uiso   1.00
C223   C     0.19429   0.47518   0.08164   0.00000  Uiso   1.00
C224   C     0.10089   0.53812   0.44434   0.00000  Uiso   1.00
C225   C     0.11045   0.51685   0.01252   0.00000  Uiso   1.00
C226   C     0.15182   0.50542   0.49035   0.00000  Uiso   1.00
C227   C     0.16765   0.51083   0.44394   0.00000  Uiso   1.00
C228   C     0.17820   0.48927   0.01310   0.00000  Uiso   1.00
C229   C     0.21788   0.47452   0.48838   0.00000  Uiso   1.00
C230   C     0.23064   0.47689   0.44180   0.00000  Uiso   1.00
C231   C     0.20965   0.50111   0.42226   0.00000  Uiso   1.00
F232   F     0.31530   0.48800   0.30681   0.00000  Uiso   1.00
F233   F     0.28550   0.45205   0.49083   0.00000  Uiso   1.00
F234   F     0.07551   0.55332   0.42293   0.00000  Uiso   1.00
F235   F     0.23226   0.51741   0.38332   0.00000  Uiso   1.00
F236   F     0.02096   0.51731   0.19383   0.00000  Uiso   1.00
H237   H     0.25513   0.45291   0.07503   0.00000  Uiso   1.00
H238   H     0.13872   0.50093   0.08108   0.00000  Uiso   1.00
H239   H     0.09599   0.51244   0.04726   0.00000  Uiso   1.00
H240   H     0.26308   0.65637   0.12874   0.00000  Uiso   1.00
H241   H     0.08258   0.36504   0.37837   0.00000  Uiso   1.00
H242   H     0.27374   0.41485   0.33984   0.00000  Uiso   1.00
H243   H     0.30580   0.54581   0.00609   0.00000  Uiso   1.00
O244   O     0.16667   0.50000   0.25000   0.00000  Uiso   1.00
O245   O     0.15451   0.45970   0.15459   0.00000  Uiso   1.00
O246   O     0.12940   0.53724   0.34968   0.00000  Uiso   1.00
O247   O     0.20824   0.51092   0.14606   0.00000  Uiso   1.00
O248   O     0.17451   0.49213   0.34968   0.00000  Uiso   1.00
O249   O     0.18853   0.35807   0.15866   0.00000  Uiso   1.00
O250   O     0.24307   0.37927   0.20005   0.00000  Uiso   1.00
O251   O     0.24516   0.64154   0.15471   0.00000  Uiso   1.00
O252   O     0.08052   0.63661   0.31257   0.00000  Uiso   1.00
O253   O     0.14331   0.64566   0.34400   0.00000  Uiso   1.00
O254   O     0.10068   0.37514   0.34967   0.00000  Uiso   1.00
O255   O     0.17930   0.41352   0.28214   0.00000  Uiso   1.00
O256   O     0.31281   0.46937   0.39799   0.00000  Uiso   1.00
O257   O     0.26758   0.40575   0.42457   0.00000  Uiso   1.00
O258   O     0.25542   0.43624   0.35631   0.00000  Uiso   1.00
O259   O     0.01802   0.52725   0.06207   0.00000  Uiso   1.00
O260   O     0.03928   0.59477   0.03017   0.00000  Uiso   1.00
O261   O     0.33328   0.53665   0.48751   0.00000  Uiso   1.00
O262   O     0.14632   0.59418   0.27013   0.00000  Uiso   1.00
O263   O     0.07412   0.46625   0.23413   0.00000  Uiso   1.00
O264   O     0.26693   0.52605   0.21361   0.00000  Uiso   1.00
O265   O     0.07071   0.52211   0.28213   0.00000  Uiso   1.00
O266   O     0.25491   0.48559   0.27014   0.00000  Uiso   1.00
O267   O     0.13760   0.40277   0.23413   0.00000  Uiso   1.00
O268   O     0.20345   0.58953   0.21360   0.00000  Uiso   1.00
S269   S     0.21429   0.34320   0.18628   0.00000  Uiso   1.00
S270   S     0.11860   0.66585   0.31915   0.00000  Uiso   1.00
S271   S     0.26849   0.44631   0.40536   0.00000  Uiso   1.00
S272   S     0.03483   0.54877   0.01941   0.00000  Uiso   1.00
Zn273  Zn    0.19338   0.47327   0.28734   0.00000  Uiso   1.00
Zn274  Zn    0.13379   0.45791   0.21876   0.00000  Uiso   1.00
Zn275  Zn    0.21056   0.53109   0.20657   0.00000  Uiso   1.00
Zn276  Zn    0.12893   0.53773   0.28733   0.00000  Uiso   1.00
C277   C     0.38637   0.49368   0.25989   0.00000  Uiso   1.00
C278   C     0.50028   0.48855   0.05996   0.00000  Uiso   1.00
C279   C     0.56644   0.46152   0.05769   0.00000  Uiso   1.00
C280   C     0.61411   0.50660   0.23963   0.00000  Uiso   1.00
C281   C     0.47391   0.52459   0.42033   0.00000  Uiso   1.00
C282   C     0.66002   0.50575   0.23301   0.00000  Uiso   1.00
C283   C     0.34120   0.49319   0.26518   0.00000  Uiso   1.00
C284   C     0.51146   0.65547   0.23522   0.00000  Uiso   1.00
C285   C     0.48581   0.34651   0.26627   0.00000  Uiso   1.00
C286   C     0.48973   0.38969   0.26047   0.00000  Uiso   1.00
C287   C     0.50965   0.61129   0.24021   0.00000  Uiso   1.00
C288   C     0.41913   0.53392   0.49010   0.00000  Uiso   1.00
C289   C     0.51871   0.48184   0.12965   0.00000  Uiso   1.00
C290   C     0.48286   0.51879   0.37091   0.00000  Uiso   1.00
C291   C     0.57841   0.46103   0.01152   0.00000  Uiso   1.00
C292   C     0.52762   0.47518   0.08164   0.00000  Uiso   1.00
C293   C     0.43423   0.53812   0.44434   0.00000  Uiso   1.00
C294   C     0.44379   0.51685   0.01252   0.00000  Uiso   1.00
C295   C     0.48515   0.50542   0.49035   0.00000  Uiso   1.00
C296   C     0.50098   0.51083   0.44394   0.00000  Uiso   1.00
C297   C     0.51153   0.48927   0.01310   0.00000  Uiso   1.00
C298   C     0.55121   0.47452   0.48838   0.00000  Uiso   1.00
C299   C     0.56397   0.47689   0.44180   0.00000  Uiso   1.00
C300   C     0.54298   0.50111   0.42226   0.00000  Uiso   1.00
F301   F     0.64863   0.48800   0.30681   0.00000  Uiso   1.00
F302   F     0.61883   0.45205   0.49083   0.00000  Uiso   1.00
F303   F     0.40884   0.55332   0.42293   0.00000  Uiso   1.00
F304   F     0.56560   0.51741   0.38332   0.00000  Uiso   1.00
F305   F     0.35429   0.51731   0.19383   0.00000  Uiso   1.00
H306   H     0.58846   0.45291   0.07503   0.00000  Uiso   1.00
H307   H     0.47206   0.50093   0.08108   0.00000  Uiso   1.00
H308   H     0.42933   0.51244   0.04726   0.00000  Uiso   1.00
H309   H     0.59641   0.65637   0.12874   0.00000  Uiso   1.00
H310   H     0.41591   0.36504   0.37837   0.00000  Uiso   1.00
H311   H     0.60708   0.41485   0.33984   0.00000  Uiso   1.00
H312   H     0.63914   0.54581   0.00609   0.00000  Uiso   1.00
O313   O     0.50000   0.50000   0.25000   0.00000  Uiso   1.00
O314   O     0.48784   0.45970   0.15459   0.00000  Uiso   1.00
O315   O     0.46274   0.53724   0.34968   0.00000  Uiso   1.00
O316   O     0.54157   0.51092   0.14606   0.00000  Uiso   1.00
O317   O     0.50785   0.49213   0.34968   0.00000  Uiso   1.00
O318   O     0.52186   0.35807   0.15866   0.00000  Uiso   1.00
O319   O     0.57640   0.37927   0.20005   0.00000  Uiso   1.00
O320   O     0.57849   0.64154   0.15471   0.00000  Uiso   1.00
O321   O     0.41386   0.63661   0.31257   0.00000  Uiso   1.00
O322   O     0.47665   0.64566   0.34400   0.00000  Uiso   1.00
O323   O     0.43402   0.37514   0.34967   0.00000  Uiso   1.00
O324   O     0.51264   0.41352   0.28214   0.00000  Uiso   1.00
O325   O     0.64614   0.46937   0.39799   0.00000  Uiso   1.00
O326   O     0.60091   0.40575   0.42457   0.00000  Uiso   1.00
O327   O     0.58875   0.43624   0.35631   0.00000  Uiso   1.00
O328   O     0.35135   0.52725   0.06207   0.00000  Uiso   1.00
O329   O     0.37261   0.59477   0.03017   0.00000  Uiso   1.00
O330   O     0.66661   0.53665   0.48751   0.00000  Uiso   1.00
O331   O     0.47965   0.59418   0.27013   0.00000  Uiso   1.00
O332   O     0.40745   0.46625   0.23413   0.00000  Uiso   1.00
O333   O     0.60026   0.52605   0.21361   0.00000  Uiso   1.00
O334   O     0.40405   0.52211   0.28213   0.00000  Uiso   1.00
O335   O     0.58824   0.48559   0.27014   0.00000  Uiso   1.00
O336   O     0.47093   0.40277   0.23413   0.00000  Uiso   1.00
O337   O     0.53678   0.58953   0.21360   0.00000  Uiso   1.00
S338   S     0.54762   0.34320   0.18628   0.00000  Uiso   1.00
S339   S     0.45193   0.66585   0.31915   0.00000  Uiso   1.00
S340   S     0.60183   0.44631   0.40536   0.00000  Uiso   1.00
S341   S     0.36816   0.54877   0.01941   0.00000  Uiso   1.00
Zn342  Zn    0.52672   0.47327   0.28734   0.00000  Uiso   1.00
Zn343  Zn    0.46713   0.45791   0.21876   0.00000  Uiso   1.00
Zn344  Zn    0.54389   0.53109   0.20657   0.00000  Uiso   1.00
Zn345  Zn    0.46226   0.53773   0.28733   0.00000  Uiso   1.00
C346   C     0.71970   0.49368   0.25989   0.00000  Uiso   1.00
C347   C     0.83362   0.48855   0.05996   0.00000  Uiso   1.00
C348   C     0.89978   0.46152   0.05769   0.00000  Uiso   1.00
C349   C     0.94745   0.50660   0.23963   0.00000  Uiso   1.00
C350   C     0.80724   0.52459   0.42033   0.00000  Uiso   1.00
C351   C     0.99335   0.50575   0.23301   0.00000  Uiso   1.00
C352   C     0.67454   0.49319   0.26518   0.00000  Uiso   1.00
C353   C     0.84479   0.65547   0.23522   0.00000  Uiso   1.00
C354   C     0.81914   0.34651   0.26627   0.00000  Uiso   1.00
C355   C     0.82307   0.38969   0.26047   0.00000  Uiso   1.00
C356   C     0.84299   0.61129   0.24021   0.00000  Uiso   1.00
C357   C     0.75246   0.53392   0.49010   0.00000  Uiso   1.00
C358   C     0.85204   0.48184   0.12965   0.00000  Uiso   1.00
C359   C     0.81620   0.51879   0.37091   0.00000  Uiso   1.00
C360   C     0.91175   0.46103   0.01152   0.00000  Uiso   1.00
C361   C     0.86096   0.47518   0.08164   0.00000  Uiso   1.00
C362   C     0.76756   0.53812   0.44434   0.00000  Uiso   1.00
C363   C     0.77712   0.51685   0.01252   0.00000  Uiso   1.00
C364   C     0.81848   0.50542   0.49035   0.00000  Uiso   1.00
C365   C     0.83431   0.51083   0.44394   0.00000  Uiso   1.00
C366   C     0.84486   0.48927   0.01310   0.00000  Uiso   1.00
C367   C     0.88454   0.47452   0.48838   0.00000  Uiso   1.00
C368   C     0.89731   0.47689   0.44180   0.00000  Uiso   1.00
C369   C     0.87632   0.50111   0.42226   0.00000  Uiso   1.00
F370   F     0.98197   0.48800   0.30681   0.00000  Uiso   1.00
F371   F     0.95216   0.45205   0.49083   0.00000  Uiso   1.00
F372   F     0.74218   0.55332   0.42293   0.00000  Uiso   1.00
F373   F     0.89893   0.51741   0.38332   0.00000  Uiso   1.00
F374   F     0.68763   0.51731   0.19383   0.00000  Uiso   1.00
H375   H     0.92179   0.45291   0.07503   0.00000  Uiso   1.00
H376   H     0.80539   0.50093   0.08108   0.00000  Uiso   1.00
H377   H     0.76266   0.51244   0.04726   0.00000  Uiso   1.00
H378   H     0.92974   0.65637   0.12874   0.00000  Uiso   1.00
H379   H     0.74925   0.36504   0.37837   0.00000  Uiso   1.00
H380   H     0.94041   0.41485   0.33984   0.00000  Uiso   1.00
H381   H     0.97247   0.54581   0.00609   0.00000  Uiso   1.00
O382   O     0.83333   0.50000   0.25000   0.00000  Uiso   1.00
O383   O     0.82118   0.45970   0.15459   0.00000  Uiso   1.00
O384   O     0.79607   0.53724   0.34968   0.00000  Uiso   1.00
O385   O     0.87491   0.51092   0.14606   0.00000  Uiso   1.00
O386   O     0.84118   0.49213   0.34968   0.00000  Uiso   1.00
O387   O     0.85519   0.35807   0.15866   0.00000  Uiso   1.00
O388   O     0.90973   0.37927   0.20005   0.00000  Uiso   1.00
O389   O     0.91183   0.64154   0.15471   0.00000  Uiso   1.00
O390   O     0.74719   0.63661   0.31257   0.00000  Uiso   1.00
O391   O     0.80998   0.64566   0.34400   0.00000  Uiso   1.00
O392   O     0.76735   0.37514   0.34967   0.00000  Uiso   1.00
O393   O     0.84597   0.41352   0.28214   0.00000  Uiso   1.00
O394   O     0.97947   0.46937   0.39799   0.00000  Uiso   1.00
O395   O     0.93424   0.40575   0.42457   0.00000  Uiso   1.00
O396   O     0.92208   0.43624   0.35631   0.00000  Uiso   1.00
O397   O     0.68468   0.52725   0.06207   0.00000  Uiso   1.00
O398   O     0.70595   0.59477   0.03017   0.00000  Uiso   1.00
O399   O     0.99995   0.53665   0.48751   0.00000  Uiso   1.00
O400   O     0.81298   0.59418   0.27013   0.00000  Uiso   1.00
O401   O     0.74078   0.46625   0.23413   0.00000  Uiso   1.00
O402   O     0.93360   0.52605   0.21361   0.00000  Uiso   1.00
O403   O     0.73738   0.52211   0.28213   0.00000  Uiso   1.00
O404   O     0.92158   0.48559   0.27014   0.00000  Uiso   1.00
O405   O     0.80426   0.40277   0.23413   0.00000  Uiso   1.00
O406   O     0.87012   0.58953   0.21360   0.00000  Uiso   1.00
S407   S     0.88095   0.34320   0.18628   0.00000  Uiso   1.00
S408   S     0.78527   0.66585   0.31915   0.00000  Uiso   1.00
S409   S     0.93516   0.44631   0.40536   0.00000  Uiso   1.00
S410   S     0.70149   0.54877   0.01941   0.00000  Uiso   1.00
Zn411  Zn    0.86005   0.47327   0.28734   0.00000  Uiso   1.00
Zn412  Zn    0.80046   0.45791   0.21876   0.00000  Uiso   1.00
Zn413  Zn    0.87723   0.53109   0.20657   0.00000  Uiso   1.00
Zn414  Zn    0.79560   0.53773   0.28733   0.00000  Uiso   1.00
C415   C     0.05304   0.82702   0.25989   0.00000  Uiso   1.00
C416   C     0.16695   0.82188   0.05996   0.00000  Uiso   1.00
C417   C     0.23311   0.79485   0.05769   0.00000  Uiso   1.00
C418   C     0.28078   0.83993   0.23963   0.00000  Uiso   1.00
C419   C     0.14057   0.85792   0.42033   0.00000  Uiso   1.00
C420   C     0.32668   0.83909   0.23301   0.00000  Uiso   1.00
C421   C     0.00787   0.82652   0.26518   0.00000  Uiso   1.00
C422   C     0.17812   0.98880   0.23522   0.00000  Uiso   1.00
C423   C     0.15248   0.67985   0.26627   0.00000  Uiso   1.00
C424   C     0.15640   0.72303   0.26047   0.00000  Uiso   1.00
C425   C     0.17632   0.94462   0.24021   0.00000  Uiso   1.00
C426   C     0.08579   0.86725   0.49010   0.00000  Uiso   1.00
C427   C     0.18538   0.81518   0.12965   0.00000  Uiso   1.00
C428   C     0.14953   0.85212   0.37091   0.00000  Uiso   1.00
C429   C     0.24508   0.79436   0.01152   0.00000  Uiso   1.00
C430   C     0.19429   0.80852   0.08164   0.00000  Uiso   1.00
C431   C     0.10089   0.87145   0.44434   0.00000  Uiso   1.00
C432   C     0.11045   0.85018   0.01252   0.00000  Uiso   1.00
C433   C     0.15182   0.83876   0.49035   0.00000  Uiso   1.00
C434   C     0.16765   0.84416   0.44394   0.00000  Uiso   1.00
C435   C     0.17820   0.82260   0.01310   0.00000  Uiso   1.00
C436   C     0.21788   0.80785   0.48838   0.00000  Uiso   1.00
C437   C     0.23064   0.81023   0.44180   0.00000  Uiso   1.00
C438   C     0.20965   0.83445   0.42226   0.00000  Uiso   1.00
F439   F     0.31530   0.82134   0.30681   0.00000  Uiso   1.00
F440   F     0.28550   0.78539   0.49083   0.00000  Uiso   1.00
F441   F     0.07551   0.88666   0.42293   0.00000  Uiso   1.00
F442   F     0.23226   0.85074   0.38332   0.00000  Uiso   1.00
F443   F     0.02096   0.85064   0.19383   0.00000  Uiso   1.00
H444   H     0.25513   0.78624   0.07503   0.00000  Uiso   1.00
H445   H     0.13872   0.83426   0.08108   0.00000  Uiso   1.00
H446   H     0.09599   0.84577   0.04726   0.00000  Uiso   1.00
H447   H     0.26308   0.98970   0.12874   0.00000  Uiso   1.00
H448   H     0.08258   0.69837   0.37837   0.00000  Uiso   1.00
H449   H     0.27374   0.74818   0.33984   0.00000  Uiso   1.00
H450   H     0.30580   0.87915   0.00609   0.00000  Uiso   1.00
O451   O     0.16667   0.83333   0.25000   0.00000  Uiso   1.00
O452   O     0.15451   0.79304   0.15459   0.00000  Uiso   1.00
O453   O     0.12940   0.87058   0.34968   0.00000  Uiso   1.00
O454   O     0.20824   0.84425   0.14606   0.00000  Uiso   1.00
O455   O     0.17451   0.82546   0.34968   0.00000  Uiso   1.00
O456   O     0.18853   0.69140   0.15866   0.00000  Uiso   1.00
O457   O     0.24307   0.71260   0.20005   0.00000  Uiso   1.00
O458   O     0.24516   0.97487   0.15471   0.00000  Uiso   1.00
O459   O     0.08052   0.96994   0.31257   0.00000  Uiso   1.00
O460   O     0.14331   0.97900   0.34400   0.00000  Uiso   1.00
O461   O     0.10068   0.70847   0.34967   0.00000  Uiso   1.00
O462   O     0.17930   0.74686   0.28214   0.00000  Uiso   1.00
O463   O     0.31281   0.80270   0.39799   0.00000  Uiso   1.00
O464   O     0.26758   0.73908   0.42457   0.00000  Uiso   1.00
O465   O     0.25542   0.76958   0.35631   0.00000  Uiso   1.00
O466   O     0.01802   0.86059   0.06207   0.00000  Uiso   1.00
O467   O     0.03928   0.92811   0.03017   0.00000  Uiso   1.00
O468   O     0.33328   0.86998   0.48751   0.00000  Uiso   1.00
O469   O     0.14632   0.92751   0.27013   0.00000  Uiso   1.00
O470   O     0.07412   0.79958   0.23413   0.00000  Uiso   1.00
O471   O     0.26693   0.85939   0.21361   0.00000  Uiso   1.00
O472   O     0.07071   0.85544   0.28213   0.00000  Uiso   1.00
O473   O     0.25491   0.81892   0.27014   0.00000  Uiso   1.00
O474   O     0.13760   0.73610   0.23413   0.00000  Uiso   1.00
O475   O     0.20345   0.92286   0.21360   0.00000  Uiso   1.00
S476   S     0.21429   0.67653   0.18628   0.00000  Uiso   1.00
S477   S     0.11860   0.99918   0.31915   0.00000  Uiso   1.00
S478   S     0.26849   0.77964   0.40536   0.00000  Uiso   1.00
S479   S     0.03483   0.88210   0.01941   0.00000  Uiso   1.00
Zn480  Zn    0.19338   0.80661   0.28734   0.00000  Uiso   1.00
Zn481  Zn    0.13379   0.79124   0.21876   0.00000  Uiso   1.00
Zn482  Zn    0.21056   0.86442   0.20657   0.00000  Uiso   1.00
Zn483  Zn    0.12893   0.87106   0.28733   0.00000  Uiso   1.00
C484   C     0.38637   0.82702   0.25989   0.00000  Uiso   1.00
C485   C     0.50028   0.82188   0.05996   0.00000  Uiso   1.00
C486   C     0.56644   0.79485   0.05769   0.00000  Uiso   1.00
C487   C     0.61411   0.83993   0.23963   0.00000  Uiso   1.00
C488   C     0.47391   0.85792   0.42033   0.00000  Uiso   1.00
C489   C     0.66002   0.83909   0.23301   0.00000  Uiso   1.00
C490   C     0.34120   0.82652   0.26518   0.00000  Uiso   1.00
C491   C     0.51146   0.98880   0.23522   0.00000  Uiso   1.00
C492   C     0.48581   0.67985   0.26627   0.00000  Uiso   1.00
C493   C     0.48973   0.72303   0.26047   0.00000  Uiso   1.00
C494   C     0.50965   0.94462   0.24021   0.00000  Uiso   1.00
C495   C     0.41913   0.86725   0.49010   0.00000  Uiso   1.00
C496   C     0.51871   0.81518   0.12965   0.00000  Uiso   1.00
C497   C     0.48286   0.85212   0.37091   0.00000  Uiso   1.00
C498   C     0.57841   0.79436   0.01152   0.00000  Uiso   1.00
C499   C     0.52762   0.80852   0.08164   0.00000  Uiso   1.00
C500   C     0.43423   0.87145   0.44434   0.00000  Uiso   1.00
C501   C     0.44379   0.85018   0.01252   0.00000  Uiso   1.00
C502   C     0.48515   0.83876   0.49035   0.00000  Uiso   1.00
C503   C     0.50098   0.84416   0.44394   0.00000  Uiso   1.00
C504   C     0.51153   0.82260   0.01310   0.00000  Uiso   1.00
C505   C     0.55121   0.80785   0.48838   0.00000  Uiso   1.00
C506   C     0.56397   0.81023   0.44180   0.00000  Uiso   1.00
C507   C     0.54298   0.83445   0.42226   0.00000  Uiso   1.00
F508   F     0.64863   0.82134   0.30681   0.00000  Uiso   1.00
F509   F     0.61883   0.78539   0.49083   0.00000  Uiso   1.00
F510   F     0.40884   0.88666   0.42293   0.00000  Uiso   1.00
F511   F     0.56560   0.85074   0.38332   0.00000  Uiso   1.00
F512   F     0.35429   0.85064   0.19383   0.00000  Uiso   1.00
H513   H     0.58846   0.78624   0.07503   0.00000  Uiso   1.00
H514   H     0.47206   0.83426   0.08108   0.00000  Uiso   1.00
H515   H     0.42933   0.84577   0.04726   0.00000  Uiso   1.00
H516   H     0.59641   0.98970   0.12874   0.00000  Uiso   1.00
H517   H     0.41591   0.69837   0.37837   0.00000  Uiso   1.00
H518   H     0.60708   0.74818   0.33984   0.00000  Uiso   1.00
H519   H     0.63914   0.87915   0.00609   0.00000  Uiso   1.00
O520   O     0.50000   0.83333   0.25000   0.00000  Uiso   1.00
O521   O     0.48784   0.79304   0.15459   0.00000  Uiso   1.00
O522   O     0.46274   0.87058   0.34968   0.00000  Uiso   1.00
O523   O     0.54157   0.84425   0.14606   0.00000  Uiso   1.00
O524   O     0.50785   0.82546   0.34968   0.00000  Uiso   1.00
O525   O     0.52186   0.69140   0.15866   0.00000  Uiso   1.00
O526   O     0.57640   0.71260   0.20005   0.00000  Uiso   1.00
O527   O     0.57849   0.97487   0.15471   0.00000  Uiso   1.00
O528   O     0.41386   0.96994   0.31257   0.00000  Uiso   1.00
O529   O     0.47665   0.97900   0.34400   0.00000  Uiso   1.00
O530   O     0.43402   0.70847   0.34967   0.00000  Uiso   1.00
O531   O     0.51264   0.74686   0.28214   0.00000  Uiso   1.00
O532   O     0.64614   0.80270   0.39799   0.00000  Uiso   1.00
O533   O     0.60091   0.73908   0.42457   0.00000  Uiso   1.00
O534   O     0.58875   0.76958   0.35631   0.00000  Uiso   1.00
O535   O     0.35135   0.86059   0.06207   0.00000  Uiso   1.00
O536   O     0.37261   0.92811   0.03017   0.00000  Uiso   1.00
O537   O     0.66661   0.86998   0.48751   0.00000  Uiso   1.00
O538   O     0.47965   0.92751   0.27013   0.00000  Uiso   1.00
O539   O     0.40745   0.79958   0.23413   0.00000  Uiso   1.00
O540   O     0.60026   0.85939   0.21361   0.00000  Uiso   1.00
O541   O     0.40405   0.85544   0.28213   0.00000  Uiso   1.00
O542   O     0.58824   0.81892   0.27014   0.00000  Uiso   1.00
O543   O     0.47093   0.73610   0.23413   0.00000  Uiso   1.00
O544   O     0.53678   0.92286   0.21360   0.00000  Uiso   1.00
S545   S     0.54762   0.67653   0.18628   0.00000  Uiso   1.00
S546   S     0.45193   0.99918   0.31915   0.00000  Uiso   1.00
S547   S     0.60183   0.77964   0.40536   0.00000  Uiso   1.00
S548   S     0.36816   0.88210   0.01941   0.00000  Uiso   1.00
Zn549  Zn    0.52672   0.80661   0.28734   0.00000  Uiso   1.00
Zn550  Zn    0.46713   0.79124   0.21876   0.00000  Uiso   1.00
Zn551  Zn    0.54389   0.86442   0.20657   0.00000  Uiso   1.00
Zn552  Zn    0.46226   0.87106   0.28733   0.00000  Uiso   1.00
C553   C     0.71970   0.82702   0.25989   0.00000  Uiso   1.00
C554   C     0.83362   0.82188   0.05996   0.00000  Uiso   1.00
C555   C     0.89978   0.79485   0.05769   0.00000  Uiso   1.00
C556   C     0.94745   0.83993   0.23963   0.00000  Uiso   1.00
C557   C     0.80724   0.85792   0.42033   0.00000  Uiso   1.00
C558   C     0.99335   0.83909   0.23301   0.00000  Uiso   1.00
C559   C     0.67454   0.82652   0.26518   0.00000  Uiso   1.00
C560   C     0.84479   0.98880   0.23522   0.00000  Uiso   1.00
C561   C     0.81914   0.67985   0.26627   0.00000  Uiso   1.00
C562   C     0.82307   0.72303   0.26047   0.00000  Uiso   1.00
C563   C     0.84299   0.94462   0.24021   0.00000  Uiso   1.00
C564   C     0.75246   0.86725   0.49010   0.00000  Uiso   1.00
C565   C     0.85204   0.81518   0.12965   0.00000  Uiso   1.00
C566   C     0.81620   0.85212   0.37091   0.00000  Uiso   1.00
C567   C     0.91175   0.79436   0.01152   0.00000  Uiso   1.00
C568   C     0.86096   0.80852   0.08164   0.00000  Uiso   1.00
C569   C     0.76756   0.87145   0.44434   0.00000  Uiso   1.00
C570   C     0.77712   0.85018   0.01252   0.00000  Uiso   1.00
C571   C     0.81848   0.83876   0.49035   0.00000  Uiso   1.00
C572   C     0.83431   0.84416   0.44394   0.00000  Uiso   1.00
C573   C     0.84486   0.82260   0.01310   0.00000  Uiso   1.00
C574   C     0.88454   0.80785   0.48838   0.00000  Uiso   1.00
C575   C     0.89731   0.81023   0.44180   0.00000  Uiso   1.00
C576   C     0.87632   0.83445   0.42226   0.00000  Uiso   1.00
F577   F     0.98197   0.82134   0.30681   0.00000  Uiso   1.00
F578   F     0.95216   0.78539   0.49083   0.00000  Uiso   1.00
F579   F     0.74218   0.88666   0.42293   0.00000  Uiso   1.00
F580   F     0.89893   0.85074   0.38332   0.00000  Uiso   1.00
F581   F     0.68763   0.85064   0.19383   0.00000  Uiso   1.00
H582   H     0.92179   0.78624   0.07503   0.00000  Uiso   1.00
H583   H     0.80539   0.83426   0.08108   0.00000  Uiso   1.00
H584   H     0.76266   0.84577   0.04726   0.00000  Uiso   1.00
H585   H     0.92974   0.98970   0.12874   0.00000  Uiso   1.00
H586   H     0.74925   0.69837   0.37837   0.00000  Uiso   1.00
H587   H     0.94041   0.74818   0.33984   0.00000  Uiso   1.00
H588   H     0.97247   0.87915   0.00609   0.00000  Uiso   1.00
O589   O     0.83333   0.83333   0.25000   0.00000  Uiso   1.00
O590   O     0.82118   0.79304   0.15459   0.00000  Uiso   1.00
O591   O     0.79607   0.87058   0.34968   0.00000  Uiso   1.00
O592   O     0.87491   0.84425   0.14606   0.00000  Uiso   1.00
O593   O     0.84118   0.82546   0.34968   0.00000  Uiso   1.00
O594   O     0.85519   0.69140   0.15866   0.00000  Uiso   1.00
O595   O     0.90973   0.71260   0.20005   0.00000  Uiso   1.00
O596   O     0.91183   0.97487   0.15471   0.00000  Uiso   1.00
O597   O     0.74719   0.96994   0.31257   0.00000  Uiso   1.00
O598   O     0.80998   0.97900   0.34400   0.00000  Uiso   1.00
O599   O     0.76735   0.70847   0.34967   0.00000  Uiso   1.00
O600   O     0.84597   0.74686   0.28214   0.00000  Uiso   1.00
O601   O     0.97947   0.80270   0.39799   0.00000  Uiso   1.00
O602   O     0.93424   0.73908   0.42457   0.00000  Uiso   1.00
O603   O     0.92208   0.76958   0.35631   0.00000  Uiso   1.00
O604   O     0.68468   0.86059   0.06207   0.00000  Uiso   1.00
O605   O     0.70595   0.92811   0.03017   0.00000  Uiso   1.00
O606   O     0.99995   0.86998   0.48751   0.00000  Uiso   1.00
O607   O     0.81298   0.92751   0.27013   0.00000  Uiso   1.00
O608   O     0.74078   0.79958   0.23413   0.00000  Uiso   1.00
O609   O     0.93360   0.85939   0.21361   0.00000  Uiso   1.00
O610   O     0.73738   0.85544   0.28213   0.00000  Uiso   1.00
O611   O     0.92158   0.81892   0.27014   0.00000  Uiso   1.00
O612   O     0.80426   0.73610   0.23413   0.00000  Uiso   1.00
O613   O     0.87012   0.92286   0.21360   0.00000  Uiso   1.00
S614   S     0.88095   0.67653   0.18628   0.00000  Uiso   1.00
S615   S     0.78527   0.99918   0.31915   0.00000  Uiso   1.00
S616   S     0.93516   0.77964   0.40536   0.00000  Uiso   1.00
S617   S     0.70149   0.88210   0.01941   0.00000  Uiso   1.00
Zn618  Zn    0.86005   0.80661   0.28734   0.00000  Uiso   1.00
Zn619  Zn    0.80046   0.79124   0.21876   0.00000  Uiso   1.00
Zn620  Zn    0.87723   0.86442   0.20657   0.00000  Uiso   1.00
Zn621  Zn    0.79560   0.87106   0.28733   0.00000  Uiso   1.00
C622   C     0.05304   0.16035   0.75989   0.00000  Uiso   1.00
C623   C     0.16695   0.15522   0.55996   0.00000  Uiso   1.00
C624   C     0.23311   0.12819   0.55769   0.00000  Uiso   1.00
C625   C     0.28078   0.17326   0.73963   0.00000  Uiso   1.00
C626   C     0.14057   0.19126   0.92033   0.00000  Uiso   1.00
C627   C     0.32668   0.17242   0.73301   0.00000  Uiso   1.00
C628   C     0.00787   0.15986   0.76518   0.00000  Uiso   1.00
C629   C     0.17812   0.32213   0.73522   0.00000  Uiso   1.00
C630   C     0.15248   0.01318   0.76627   0.00000  Uiso   1.00
C631   C     0.15640   0.05636   0.76047   0.00000  Uiso   1.00
C632   C     0.17632   0.27795   0.74021   0.00000  Uiso   1.00
C633   C     0.08579   0.20058   0.99010   0.00000  Uiso   1.00
C634   C     0.18538   0.14851   0.62965   0.00000  Uiso   1.00
C635   C     0.14953   0.18546   0.87091   0.00000  Uiso   1.00
C636   C     0.24508   0.12770   0.51152   0.00000  Uiso   1.00
C637   C     0.19429   0.14185   0.58164   0.00000  Uiso   1.00
C638   C     0.10089   0.20478   0.94434   0.00000  Uiso   1.00
C639   C     0.11045   0.18352   0.51252   0.00000  Uiso   1.00
C640   C     0.15182   0.17209   0.99035   0.00000  Uiso   1.00
C641   C     0.16765   0.17750   0.94394   0.00000  Uiso   1.00
C642   C     0.17820   0.15594   0.51310   0.00000  Uiso   1.00
C643   C     0.21788   0.14118   0.98838   0.00000  Uiso   1.00
C644   C     0.23064   0.14356   0.94180   0.00000  Uiso   1.00
C645   C     0.20965   0.16778   0.92226   0.00000  Uiso   1.00
F646   F     0.31530   0.15467   0.80681   0.00000  Uiso   1.00
F647   F     0.28550   0.11872   0.99083   0.00000  Uiso   1.00
F648   F     0.07551   0.21999   0.92293   0.00000  Uiso   1.00
F649   F     0.23226   0.18408   0.88332   0.00000  Uiso   1.00
F650   F     0.02096   0.18398   0.69383   0.00000  Uiso   1.00
H651   H     0.25513   0.11958   0.57503   0.00000  Uiso   1.00
H652   H     0.13872   0.16760   0.58108   0.00000  Uiso   1.00
H653   H     0.09599   0.17910   0.54726   0.00000  Uiso   1.00
H654   H     0.26308   0.32304   0.62874   0.00000  Uiso   1.00
H655   H     0.08258   0.03171   0.87837   0.00000  Uiso   1.00
H656   H     0.27374   0.08152   0.83984   0.00000  Uiso   1.00
H657   H     0.30580   0.21248   0.50609   0.00000  Uiso   1.00
O658   O     0.16667   0.16667   0.75000   0.00000  Uiso   1.00
O659   O     0.15451   0.12637   0.65459   0.00000  Uiso   1.00
O660   O     0.12940   0.20391   0.84968   0.00000  Uiso   1.00
O661   O     0.20824   0.17759   0.64606   0.00000  Uiso   1.00
O662   O     0.17451   0.15880   0.84968   0.00000  Uiso   1.00
O663   O     0.18853   0.02473   0.65866   0.00000  Uiso   1.00
O664   O     0.24307   0.04593   0.70005   0.00000  Uiso   1.00
O665   O     0.24516   0.30821   0.65471   0.00000  Uiso   1.00
O666   O     0.08052   0.30327   0.81257   0.00000  Uiso   1.00
O667   O     0.14331   0.31233   0.84400   0.00000  Uiso   1.00
O668   O     0.10068   0.04180   0.84967   0.00000  Uiso   1.00
O669   O     0.17930   0.08019   0.78214   0.00000  Uiso   1.00
O670   O     0.31281   0.13603   0.89799   0.00000  Uiso   1.00
O671   O     0.26758   0.07242   0.92457   0.00000  Uiso   1.00
O672   O     0.25542   0.10291   0.85631   0.00000  Uiso   1.00
O673   O     0.01802   0.19392   0.56207   0.00000  Uiso   1.00
O674   O     0.03928   0.26144   0.53017   0.00000  Uiso   1.00
O675   O     0.33328   0.20331   0.98751   0.00000  Uiso   1.00
O676   O     0.14632   0.26085   0.77013   0.00000  Uiso   1.00
O677   O     0.07412   0.13291   0.73413   0.00000  Uiso   1.00
O678   O     0.26693   0.19272   0.71361   0.00000  Uiso   1.00
O679   O     0.07071   0.18878   0.78213   0.00000  Uiso   1.00
O680   O     0.25491   0.15226   0.77014   0.00000  Uiso   1.00
O681   O     0.13760   0.06944   0.73413   0.00000  Uiso   1.00
O682   O     0.20345   0.25620   0.71360   0.00000  Uiso   1.00
S683   S     0.21429   0.00986   0.68628   0.00000  Uiso   1.00
S684   S     0.11860   0.33251   0.81915   0.00000  Uiso   1.00
S685   S     0.26849   0.11298   0.90536   0.00000  Uiso   1.00
S686   S     0.03483   0.21543   0.51941   0.00000  Uiso   1.00
Zn687  Zn    0.19338   0.13994   0.78734   0.00000  Uiso   1.00
Zn688  Zn    0.13379   0.12458   0.71876   0.00000  Uiso   1.00
Zn689  Zn    0.21056   0.19775   0.70657   0.00000  Uiso   1.00
Zn690  Zn    0.12893   0.20439   0.78733   0.00000  Uiso   1.00
C691   C     0.38637   0.16035   0.75989   0.00000  Uiso   1.00
C692   C     0.50028   0.15522   0.55996   0.00000  Uiso   1.00
C693   C     0.56644   0.12819   0.55769   0.00000  Uiso   1.00
C694   C     0.61411   0.17326   0.73963   0.00000  Uiso   1.00
C695   C     0.47391   0.19126   0.92033   0.00000  Uiso   1.00
C696   C     0.66002   0.17242   0.73301   0.00000  Uiso   1.00
C697   C     0.34120   0.15986   0.76518   0.00000  Uiso   1.00
C698   C     0.51146   0.32213   0.73522   0.00000  Uiso   1.00
C699   C     0.48581   0.01318   0.76627   0.00000  Uiso   1.00
C700   C     0.48973   0.05636   0.76047   0.00000  Uiso   1.00
C701   C     0.50965   0.27795   0.74021   0.00000  Uiso   1.00
C702   C     0.41913   0.20058   0.99010   0.00000  Uiso   1.00
C703   C     0.51871   0.14851   0.62965   0.00000  Uiso   1.00
C704   C     0.48286   0.18546   0.87091   0.00000  Uiso   1.00
C705   C     0.57841   0.12770   0.51152   0.00000  Uiso   1.00
C706   C     0.52762   0.14185   0.58164   0.00000  Uiso   1.00
C707   C     0.43423   0.20478   0.94434   0.00000  Uiso   1.00
C708   C     0.44379   0.18352   0.51252   0.00000  Uiso   1.00
C709   C     0.48515   0.17209   0.99035   0.00000  Uiso   1.00
C710   C     0.50098   0.17750   0.94394   0.00000  Uiso   1.00
C711   C     0.51153   0.15594   0.51310   0.00000  Uiso   1.00
C712   C     0.55121   0.14118   0.98838   0.00000  Uiso   1.00
C713   C     0.56397   0.14356   0.94180   0.00000  Uiso   1.00
C714   C     0.54298   0.16778   0.92226   0.00000  Uiso   1.00
F715   F     0.64863   0.15467   0.80681   0.00000  Uiso   1.00
F716   F     0.61883   0.11872   0.99083   0.00000  Uiso   1.00
F717   F     0.40884   0.21999   0.92293   0.00000  Uiso   1.00
F718   F     0.56560   0.18408   0.88332   0.00000  Uiso   1.00
F719   F     0.35429   0.18398   0.69383   0.00000  Uiso   1.00
H720   H     0.58846   0.11958   0.57503   0.00000  Uiso   1.00
H721   H     0.47206   0.16760   0.58108   0.00000  Uiso   1.00
H722   H     0.42933   0.17910   0.54726   0.00000  Uiso   1.00
H723   H     0.59641   0.32304   0.62874   0.00000  Uiso   1.00
H724   H     0.41591   0.03171   0.87837   0.00000  Uiso   1.00
H725   H     0.60708   0.08152   0.83984   0.00000  Uiso   1.00
H726   H     0.63914   0.21248   0.50609   0.00000  Uiso   1.00
O727   O     0.50000   0.16667   0.75000   0.00000  Uiso   1.00
O728   O     0.48784   0.12637   0.65459   0.00000  Uiso   1.00
O729   O     0.46274   0.20391   0.84968   0.00000  Uiso   1.00
O730   O     0.54157   0.17759   0.64606   0.00000  Uiso   1.00
O731   O     0.50785   0.15880   0.84968   0.00000  Uiso   1.00
O732   O     0.52186   0.02473   0.65866   0.00000  Uiso   1.00
O733   O     0.57640   0.04593   0.70005   0.00000  Uiso   1.00
O734   O     0.57849   0.30821   0.65471   0.00000  Uiso   1.00
O735   O     0.41386   0.30327   0.81257   0.00000  Uiso   1.00
O736   O     0.47665   0.31233   0.84400   0.00000  Uiso   1.00
O737   O     0.43402   0.04180   0.84967   0.00000  Uiso   1.00
O738   O     0.51264   0.08019   0.78214   0.00000  Uiso   1.00
O739   O     0.64614   0.13603   0.89799   0.00000  Uiso   1.00
O740   O     0.60091   0.07242   0.92457   0.00000  Uiso   1.00
O741   O     0.58875   0.10291   0.85631   0.00000  Uiso   1.00
O742   O     0.35135   0.19392   0.56207   0.00000  Uiso   1.00
O743   O     0.37261   0.26144   0.53017   0.00000  Uiso   1.00
O744   O     0.66661   0.20331   0.98751   0.00000  Uiso   1.00
O745   O     0.47965   0.26085   0.77013   0.00000  Uiso   1.00
O746   O     0.40745   0.13291   0.73413   0.00000  Uiso   1.00
O747   O     0.60026   0.19272   0.71361   0.00000  Uiso   1.00
O748   O     0.40405   0.18878   0.78213   0.00000  Uiso   1.00
O749   O     0.58824   0.15226   0.77014   0.00000  Uiso   1.00
O750   O     0.47093   0.06944   0.73413   0.00000  Uiso   1.00
O751   O     0.53678   0.25620   0.71360   0.00000  Uiso   1.00
S752   S     0.54762   0.00986   0.68628   0.00000  Uiso   1.00
S753   S     0.45193   0.33251   0.81915   0.00000  Uiso   1.00
S754   S     0.60183   0.11298   0.90536   0.00000  Uiso   1.00
S755   S     0.36816   0.21543   0.51941   0.00000  Uiso   1.00
Zn756  Zn    0.52672   0.13994   0.78734   0.00000  Uiso   1.00
Zn757  Zn    0.46713   0.12458   0.71876   0.00000  Uiso   1.00
Zn758  Zn    0.54389   0.19775   0.70657   0.00000  Uiso   1.00
Zn759  Zn    0.46226   0.20439   0.78733   0.00000  Uiso   1.00
C760   C     0.71970   0.16035   0.75989   0.00000  Uiso   1.00
C761   C     0.83362   0.15522   0.55996   0.00000  Uiso   1.00
C762   C     0.89978   0.12819   0.55769   0.00000  Uiso   1.00
C763   C     0.94745   0.17326   0.73963   0.00000  Uiso   1.00
C764   C     0.80724   0.19126   0.92033   0.00000  Uiso   1.00
C765   C     0.99335   0.17242   0.73301   0.00000  Uiso   1.00
C766   C     0.67454   0.15986   0.76518   0.00000  Uiso   1.00
C767   C     0.84479   0.32213   0.73522   0.00000  Uiso   1.00
C768   C     0.81914   0.01318   0.76627   0.00000  Uiso   1.00
C769   C     0.82307   0.05636   0.76047   0.00000  Uiso   1.00
C770   C     0.84299   0.27795   0.74021   0.00000  Uiso   1.00
C771   C     0.75246   0.20058   0.99010   0.00000  Uiso   1.00
C772   C     0.85204   0.14851   0.62965   0.00000  Uiso   1.00
C773   C     0.81620   0.18546   0.87091   0.00000  Uiso   1.00
C774   C     0.91175   0.12770   0.51152   0.00000  Uiso   1.00
C775   C     0.86096   0.14185   0.58164   0.00000  Uiso   1.00
C776   C     0.76756   0.20478   0.94434   0.00000  Uiso   1.00
C777   C     0.77712   0.18352   0.51252   0.00000  Uiso   1.00
C778   C     0.81848   0.17209   0.99035   0.00000  Uiso   1.00
C779   C     0.83431   0.17750   0.94394   0.00000  Uiso   1.00
C780   C     0.84486   0.15594   0.51310   0.00000  Uiso   1.00
C781   C     0.88454   0.14118   0.98838   0.00000  Uiso   1.00
C782   C     0.89731   0.14356   0.94180   0.00000  Uiso   1.00
C783   C     0.87632   0.16778   0.92226   0.00000  Uiso   1.00
F784   F     0.98197   0.15467   0.80681   0.00000  Uiso   1.00
F785   F     0.95216   0.11872   0.99083   0.00000  Uiso   1.00
F786   F     0.74218   0.21999   0.92293   0.00000  Uiso   1.00
F787   F     0.89893   0.18408   0.88332   0.00000  Uiso   1.00
F788   F     0.68763   0.18398   0.69383   0.00000  Uiso   1.00
H789   H     0.92179   0.11958   0.57503   0.00000  Uiso   1.00
H790   H     0.80539   0.16760   0.58108   0.00000  Uiso   1.00
H791   H     0.76266   0.17910   0.54726   0.00000  Uiso   1.00
H792   H     0.92974   0.32304   0.62874   0.00000  Uiso   1.00
H793   H     0.74925   0.03171   0.87837   0.00000  Uiso   1.00
H794   H     0.94041   0.08152   0.83984   0.00000  Uiso   1.00
H795   H     0.97247   0.21248   0.50609   0.00000  Uiso   1.00
O796   O     0.83333   0.16667   0.75000   0.00000  Uiso   1.00
O797   O     0.82118   0.12637   0.65459   0.00000  Uiso   1.00
O798   O     0.79607   0.20391   0.84968   0.00000  Uiso   1.00
O799   O     0.87491   0.17759   0.64606   0.00000  Uiso   1.00
O800   O     0.84118   0.15880   0.84968   0.00000  Uiso   1.00
O801   O     0.85519   0.02473   0.65866   0.00000  Uiso   1.00
O802   O     0.90973   0.04593   0.70005   0.00000  Uiso   1.00
O803   O     0.91183   0.30821   0.65471   0.00000  Uiso   1.00
O804   O     0.74719   0.30327   0.81257   0.00000  Uiso   1.00
O805   O     0.80998   0.31233   0.84400   0.00000  Uiso   1.00
O806   O     0.76735   0.04180   0.84967   0.00000  Uiso   1.00
O807   O     0.84597   0.08019   0.78214   0.00000  Uiso   1.00
O808   O     0.97947   0.13603   0.89799   0.00000  Uiso   1.00
O809   O     0.93424   0.07242   0.92457   0.00000  Uiso   1.00
O810   O     0.92208   0.10291   0.85631   0.00000  Uiso   1.00
O811   O     0.68468   0.19392   0.56207   0.00000  Uiso   1.00
O812   O     0.70595   0.26144   0.53017   0.00000  Uiso   1.00
O813   O     0.99995   0.20331   0.98751   0.00000  Uiso   1.00
O814   O     0.81298   0.26085   0.77013   0.00000  Uiso   1.00
O815   O     0.74078   0.13291   0.73413   0.00000  Uiso   1.00
O816   O     0.93360   0.19272   0.71361   0.00000  Uiso   1.00
O817   O     0.73738   0.18878   0.78213   0.00000  Uiso   1.00
O818   O     0.92158   0.15226   0.77014   0.00000  Uiso   1.00
O819   O     0.80426   0.06944   0.73413   0.00000  Uiso   1.00
O820   O     0.87012   0.25620   0.71360   0.00000  Uiso   1.00
S821   S     0.88095   0.00986   0.68628   0.00000  Uiso   1.00
S822   S     0.78527   0.33251   0.81915   0.00000  Uiso   1.00
S823   S     0.93516   0.11298   0.90536   0.00000  Uiso   1.00
S824   S     0.70149   0.21543   0.51941   0.00000  Uiso   1.00
Zn825  Zn    0.86005   0.13994   0.78734   0.00000  Uiso   1.00
Zn826  Zn    0.80046   0.12458   0.71876   0.00000  Uiso   1.00
Zn827  Zn    0.87723   0.19775   0.70657   0.00000  Uiso   1.00
Zn828  Zn    0.79560   0.20439   0.78733   0.00000  Uiso   1.00
C829   C     0.05304   0.49368   0.75989   0.00000  Uiso   1.00
C830   C     0.16695   0.48855   0.55996   0.00000  Uiso   1.00
C831   C     0.23311   0.46152   0.55769   0.00000  Uiso   1.00
C832   C     0.28078   0.50660   0.73963   0.00000  Uiso   1.00
C833   C     0.14057   0.52459   0.92033   0.00000  Uiso   1.00
C834   C     0.32668   0.50575   0.73301   0.00000  Uiso   1.00
C835   C     0.00787   0.49319   0.76518   0.00000  Uiso   1.00
C836   C     0.17812   0.65547   0.73522   0.00000  Uiso   1.00
C837   C     0.15248   0.34651   0.76627   0.00000  Uiso   1.00
C838   C     0.15640   0.38969   0.76047   0.00000  Uiso   1.00
C839   C     0.17632   0.61129   0.74021   0.00000  Uiso   1.00
C840   C     0.08579   0.53392   0.99010   0.00000  Uiso   1.00
C841   C     0.18538   0.48184   0.62965   0.00000  Uiso   1.00
C842   C     0.14953   0.51879   0.87091   0.00000  Uiso   1.00
C843   C     0.24508   0.46103   0.51152   0.00000  Uiso   1.00
C844   C     0.19429   0.47518   0.58164   0.00000  Uiso   1.00
C845   C     0.10089   0.53812   0.94434   0.00000  Uiso   1.00
C846   C     0.11045   0.51685   0.51252   0.00000  Uiso   1.00
C847   C     0.15182   0.50542   0.99035   0.00000  Uiso   1.00
C848   C     0.16765   0.51083   0.94394   0.00000  Uiso   1.00
C849   C     0.17820   0.48927   0.51310   0.00000  Uiso   1.00
C850   C     0.21788   0.47452   0.98838   0.00000  Uiso   1.00
C851   C     0.23064   0.47689   0.94180   0.00000  Uiso   1.00
C852   C     0.20965   0.50111   0.92226   0.00000  Uiso   1.00
F853   F     0.31530   0.48800   0.80681   0.00000  Uiso   1.00
F854   F     0.28550   0.45205   0.99083   0.00000  Uiso   1.00
F855   F     0.07551   0.55332   0.92293   0.00000  Uiso   1.00
F856   F     0.23226   0.51741   0.88332   0.00000  Uiso   1.00
F857   F     0.02096   0.51731   0.69383   0.00000  Uiso   1.00
H858   H     0.25513   0.45291   0.57503   0.00000  Uiso   1.00
H859   H     0.13872   0.50093   0.58108   0.00000  Uiso   1.00
H860   H     0.09599   0.51244   0.54726   0.00000  Uiso   1.00
H861   H     0.26308   0.65637   0.62874   0.00000  Uiso   1.00
H862   H     0.08258   0.36504   0.87837   0.00000  Uiso   1.00
H863   H     0.27374   0.41485   0.83984   0.00000  Uiso   1.00
H864   H     0.30580   0.54581   0.50609   0.00000  Uiso   1.00
O865   O     0.16667   0.50000   0.75000   0.00000  Uiso   1.00
O866   O     0.15451   0.45970   0.65459   0.00000  Uiso   1.00
O867   O     0.12940   0.53724   0.84968   0.00000  Uiso   1.00
O868   O     0.20824   0.51092   0.64606   0.00000  Uiso   1.00
O869   O     0.17451   0.49213   0.84968   0.00000  Uiso   1.00
O870   O     0.18853   0.35807   0.65866   0.00000  Uiso   1.00
O871   O     0.24307   0.37927   0.70005   0.00000  Uiso   1.00
O872   O     0.24516   0.64154   0.65471   0.00000  Uiso   1.00
O873   O     0.08052   0.63661   0.81257   0.00000  Uiso   1.00
O874   O     0.14331   0.64566   0.84400   0.00000  Uiso   1.00
O875   O     0.10068   0.37514   0.84967   0.00000  Uiso   1.00
O876   O     0.17930   0.41352   0.78214   0.00000  Uiso   1.00
O877   O     0.31281   0.46937   0.89799   0.00000  Uiso   1.00
O878   O     0.26758   0.40575   0.92457   0.00000  Uiso   1.00
O879   O     0.25542   0.43624   0.85631   0.00000  Uiso   1.00
O880   O     0.01802   0.52725   0.56207   0.00000  Uiso   1.00
O881   O     0.03928   0.59477   0.53017   0.00000  Uiso   1.00
O882   O     0.33328   0.53665   0.98751   0.00000  Uiso   1.00
O883   O     0.14632   0.59418   0.77013   0.00000  Uiso   1.00
O884   O     0.07412   0.46625   0.73413   0.00000  Uiso   1.00
O885   O     0.26693   0.52605   0.71361   0.00000  Uiso   1.00
O886   O     0.07071   0.52211   0.78213   0.00000  Uiso   1.00
O887   O     0.25491   0.48559   0.77014   0.00000  Uiso   1.00
O888   O     0.13760   0.40277   0.73413   0.00000  Uiso   1.00
O889   O     0.20345   0.58953   0.71360   0.00000  Uiso   1.00
S890   S     0.21429   0.34320   0.68628   0.00000  Uiso   1.00
S891   S     0.11860   0.66585   0.81915   0.00000  Uiso   1.00
S892   S     0.26849   0.44631   0.90536   0.00000  Uiso   1.00
S893   S     0.03483   0.54877   0.51941   0.00000  Uiso   1.00
Zn894  Zn    0.19338   0.47327   0.78734   0.00000  Uiso   1.00
Zn895  Zn    0.13379   0.45791   0.71876   0.00000  Uiso   1.00
Zn896  Zn    0.21056   0.53109   0.70657   0.00000  Uiso   1.00
Zn897  Zn    0.12893   0.53773   0.78733   0.00000  Uiso   1.00
C898   C     0.38637   0.49368   0.75989   0.00000  Uiso   1.00
C899   C     0.50028   0.48855   0.55996   0.00000  Uiso   1.00
C900   C     0.56644   0.46152   0.55769   0.00000  Uiso   1.00
C901   C     0.61411   0.50660   0.73963   0.00000  Uiso   1.00
C902   C     0.47391   0.52459   0.92033   0.00000  Uiso   1.00
C903   C     0.66002   0.50575   0.73301   0.00000  Uiso   1.00
C904   C     0.34120   0.49319   0.76518   0.00000  Uiso   1.00
C905   C     0.51146   0.65547   0.73522   0.00000  Uiso   1.00
C906   C     0.48581   0.34651   0.76627   0.00000  Uiso   1.00
C907   C     0.48973   0.38969   0.76047   0.00000  Uiso   1.00
C908   C     0.50965   0.61129   0.74021   0.00000  Uiso   1.00
C909   C     0.41913   0.53392   0.99010   0.00000  Uiso   1.00
C910   C     0.51871   0.48184   0.62965   0.00000  Uiso   1.00
C911   C     0.48286   0.51879   0.87091   0.00000  Uiso   1.00
C912   C     0.57841   0.46103   0.51152   0.00000  Uiso   1.00
C913   C     0.52762   0.47518   0.58164   0.00000  Uiso   1.00
C914   C     0.43423   0.53812   0.94434   0.00000  Uiso   1.00
C915   C     0.44379   0.51685   0.51252   0.00000  Uiso   1.00
C916   C     0.48515   0.50542   0.99035   0.00000  Uiso   1.00
C917   C     0.50098   0.51083   0.94394   0.00000  Uiso   1.00
C918   C     0.51153   0.48927   0.51310   0.00000  Uiso   1.00
C919   C     0.55121   0.47452   0.98838   0.00000  Uiso   1.00
C920   C     0.56397   0.47689   0.94180   0.00000  Uiso   1.00
C921   C     0.54298   0.50111   0.92226   0.00000  Uiso   1.00
F922   F     0.64863   0.48800   0.80681   0.00000  Uiso   1.00
F923   F     0.61883   0.45205   0.99083   0.00000  Uiso   1.00
F924   F     0.40884   0.55332   0.92293   0.00000  Uiso   1.00
F925   F     0.56560   0.51741   0.88332   0.00000  Uiso   1.00
F926   F     0.35429   0.51731   0.69383   0.00000  Uiso   1.00
H927   H     0.58846   0.45291   0.57503   0.00000  Uiso   1.00
H928   H     0.47206   0.50093   0.58108   0.00000  Uiso   1.00
H929   H     0.42933   0.51244   0.54726   0.00000  Uiso   1.00
H930   H     0.59641   0.65637   0.62874   0.00000  Uiso   1.00
H931   H     0.41591   0.36504   0.87837   0.00000  Uiso   1.00
H932   H     0.60708   0.41485   0.83984   0.00000  Uiso   1.00
H933   H     0.63914   0.54581   0.50609   0.00000  Uiso   1.00
O934   O     0.50000   0.50000   0.75000   0.00000  Uiso   1.00
O935   O     0.48784   0.45970   0.65459   0.00000  Uiso   1.00
O936   O     0.46274   0.53724   0.84968   0.00000  Uiso   1.00
O937   O     0.54157   0.51092   0.64606   0.00000  Uiso   1.00
O938   O     0.50785   0.49213   0.84968   0.00000  Uiso   1.00
O939   O     0.52186   0.35807   0.65866   0.00000  Uiso   1.00
O940   O     0.57640   0.37927   0.70005   0.00000  Uiso   1.00
O941   O     0.57849   0.64154   0.65471   0.00000  Uiso   1.00
O942   O     0.41386   0.63661   0.81257   0.00000  Uiso   1.00
O943   O     0.47665   0.64566   0.84400   0.00000  Uiso   1.00
O944   O     0.43402   0.37514   0.84967   0.00000  Uiso   1.00
O945   O     0.51264   0.41352   0.78214   0.00000  Uiso   1.00
O946   O     0.64614   0.46937   0.89799   0.00000  Uiso   1.00
O947   O     0.60091   0.40575   0.92457   0.00000  Uiso   1.00
O948   O     0.58875   0.43624   0.85631   0.00000  Uiso   1.00
O949   O     0.35135   0.52725   0.56207   0.00000  Uiso   1.00
O950   O     0.37261   0.59477   0.53017   0.00000  Uiso   1.00
O951   O     0.66661   0.53665   0.98751   0.00000  Uiso   1.00
O952   O     0.47965   0.59418   0.77013   0.00000  Uiso   1.00
O953   O     0.40745   0.46625   0.73413   0.00000  Uiso   1.00
O954   O     0.60026   0.52605   0.71361   0.00000  Uiso   1.00
O955   O     0.40405   0.52211   0.78213   0.00000  Uiso   1.00
O956   O     0.58824   0.48559   0.77014   0.00000  Uiso   1.00
O957   O     0.47093   0.40277   0.73413   0.00000  Uiso   1.00
O958   O     0.53678   0.58953   0.71360   0.00000  Uiso   1.00
S959   S     0.54762   0.34320   0.68628   0.00000  Uiso   1.00
S960   S     0.45193   0.66585   0.81915   0.00000  Uiso   1.00
S961   S     0.60183   0.44631   0.90536   0.00000  Uiso   1.00
S962   S     0.36816   0.54877   0.51941   0.00000  Uiso   1.00
Zn963  Zn    0.52672   0.47327   0.78734   0.00000  Uiso   1.00
Zn964  Zn    0.46713   0.45791   0.71876   0.00000  Uiso   1.00
Zn965  Zn    0.54389   0.53109   0.70657   0.00000  Uiso   1.00
Zn966  Zn    0.46226   0.53773   0.78733   0.00000  Uiso   1.00
C967   C     0.71970   0.49368   0.75989   0.00000  Uiso   1.00
C968   C     0.83362   0.48855   0.55996   0.00000  Uiso   1.00
C969   C     0.89978   0.46152   0.55769   0.00000  Uiso   1.00
C970   C     0.94745   0.50660   0.73963   0.00000  Uiso   1.00
C971   C     0.80724   0.52459   0.92033   0.00000  Uiso   1.00
C972   C     0.99335   0.50575   0.73301   0.00000  Uiso   1.00
C973   C     0.67454   0.49319   0.76518   0.00000  Uiso   1.00
C974   C     0.84479   0.65547   0.73522   0.00000  Uiso   1.00
C975   C     0.81914   0.34651   0.76627   0.00000  Uiso   1.00
C976   C     0.82307   0.38969   0.76047   0.00000  Uiso   1.00
C977   C     0.84299   0.61129   0.74021   0.00000  Uiso   1.00
C978   C     0.75246   0.53392   0.99010   0.00000  Uiso   1.00
C979   C     0.85204   0.48184   0.62965   0.00000  Uiso   1.00
C980   C     0.81620   0.51879   0.87091   0.00000  Uiso   1.00
C981   C     0.91175   0.46103   0.51152   0.00000  Uiso   1.00
C982   C     0.86096   0.47518   0.58164   0.00000  Uiso   1.00
C983   C     0.76756   0.53812   0.94434   0.00000  Uiso   1.00
C984   C     0.77712   0.51685   0.51252   0.00000  Uiso   1.00
C985   C     0.81848   0.50542   0.99035   0.00000  Uiso   1.00
C986   C     0.83431   0.51083   0.94394   0.00000  Uiso   1.00
C987   C     0.84486   0.48927   0.51310   0.00000  Uiso   1.00
C988   C     0.88454   0.47452   0.98838   0.00000  Uiso   1.00
C989   C     0.89731   0.47689   0.94180   0.00000  Uiso   1.00
C990   C     0.87632   0.50111   0.92226   0.00000  Uiso   1.00
F991   F     0.98197   0.48800   0.80681   0.00000  Uiso   1.00
F992   F     0.95216   0.45205   0.99083   0.00000  Uiso   1.00
F993   F     0.74218   0.55332   0.92293   0.00000  Uiso   1.00
F994   F     0.89893   0.51741   0.88332   0.00000  Uiso   1.00
F995   F     0.68763   0.51731   0.69383   0.00000  Uiso   1.00
H996   H     0.92179   0.45291   0.57503   0.00000  Uiso   1.00
H997   H     0.80539   0.50093   0.58108   0.00000  Uiso   1.00
H998   H     0.76266   0.51244   0.54726   0.00000  Uiso   1.00
H999   H     0.92974   0.65637   0.62874   0.00000  Uiso   1.00
H1000  H     0.74925   0.36504   0.87837   0.00000  Uiso   1.00
H1001  H     0.94041   0.41485   0.83984   0.00000  Uiso   1.00
H1002  H     0.97247   0.54581   0.50609   0.00000  Uiso   1.00
O1003  O     0.83333   0.50000   0.75000   0.00000  Uiso   1.00
O1004  O     0.82118   0.45970   0.65459   0.00000  Uiso   1.00
O1005  O     0.79607   0.53724   0.84968   0.00000  Uiso   1.00
O1006  O     0.87491   0.51092   0.64606   0.00000  Uiso   1.00
O1007  O     0.84118   0.49213   0.84968   0.00000  Uiso   1.00
O1008  O     0.85519   0.35807   0.65866   0.00000  Uiso   1.00
O1009  O     0.90973   0.37927   0.70005   0.00000  Uiso   1.00
O1010  O     0.91183   0.64154   0.65471   0.00000  Uiso   1.00
O1011  O     0.74719   0.63661   0.81257   0.00000  Uiso   1.00
O1012  O     0.80998   0.64566   0.84400   0.00000  Uiso   1.00
O1013  O     0.76735   0.37514   0.84967   0.00000  Uiso   1.00
O1014  O     0.84597   0.41352   0.78214   0.00000  Uiso   1.00
O1015  O     0.97947   0.46937   0.89799   0.00000  Uiso   1.00
O1016  O     0.93424   0.40575   0.92457   0.00000  Uiso   1.00
O1017  O     0.92208   0.43624   0.85631   0.00000  Uiso   1.00
O1018  O     0.68468   0.52725   0.56207   0.00000  Uiso   1.00
O1019  O     0.70595   0.59477   0.53017   0.00000  Uiso   1.00
O1020  O     0.99995   0.53665   0.98751   0.00000  Uiso   1.00
O1021  O     0.81298   0.59418   0.77013   0.00000  Uiso   1.00
O1022  O     0.74078   0.46625   0.73413   0.00000  Uiso   1.00
O1023  O     0.93360   0.52605   0.71361   0.00000  Uiso   1.00
O1024  O     0.73738   0.52211   0.78213   0.00000  Uiso   1.00
O1025  O     0.92158   0.48559   0.77014   0.00000  Uiso   1.00
O1026  O     0.80426   0.40277   0.73413   0.00000  Uiso   1.00
O1027  O     0.87012   0.58953   0.71360   0.00000  Uiso   1.00
S1028  S     0.88095   0.34320   0.68628   0.00000  Uiso   1.00
S1029  S     0.78527   0.66585   0.81915   0.00000  Uiso   1.00
S1030  S     0.93516   0.44631   0.90536   0.00000  Uiso   1.00
S1031  S     0.70149   0.54877   0.51941   0.00000  Uiso   1.00
Zn1032 Zn    0.86005   0.47327   0.78734   0.00000  Uiso   1.00
Zn1033 Zn    0.80046   0.45791   0.71876   0.00000  Uiso   1.00
Zn1034 Zn    0.87723   0.53109   0.70657   0.00000  Uiso   1.00
Zn1035 Zn    0.79560   0.53773   0.78733   0.00000  Uiso   1.00
C1036  C     0.05304   0.82702   0.75989   0.00000  Uiso   1.00
C1037  C     0.16695   0.82188   0.55996   0.00000  Uiso   1.00
C1038  C     0.23311   0.79485   0.55769   0.00000  Uiso   1.00
C1039  C     0.28078   0.83993   0.73963   0.00000  Uiso   1.00
C1040  C     0.14057   0.85792   0.92033   0.00000  Uiso   1.00
C1041  C     0.32668   0.83909   0.73301   0.00000  Uiso   1.00
C1042  C     0.00787   0.82652   0.76518   0.00000  Uiso   1.00
C1043  C     0.17812   0.98880   0.73522   0.00000  Uiso   1.00
C1044  C     0.15248   0.67985   0.76627   0.00000  Uiso   1.00
C1045  C     0.15640   0.72303   0.76047   0.00000  Uiso   1.00
C1046  C     0.17632   0.94462   0.74021   0.00000  Uiso   1.00
C1047  C     0.08579   0.86725   0.99010   0.00000  Uiso   1.00
C1048  C     0.18538   0.81518   0.62965   0.00000  Uiso   1.00
C1049  C     0.14953   0.85212   0.87091   0.00000  Uiso   1.00
C1050  C     0.24508   0.79436   0.51152   0.00000  Uiso   1.00
C1051  C     0.19429   0.80852   0.58164   0.00000  Uiso   1.00
C1052  C     0.10089   0.87145   0.94434   0.00000  Uiso   1.00
C1053  C     0.11045   0.85018   0.51252   0.00000  Uiso   1.00
C1054  C     0.15182   0.83876   0.99035   0.00000  Uiso   1.00
C1055  C     0.16765   0.84416   0.94394   0.00000  Uiso   1.00
C1056  C     0.17820   0.82260   0.51310   0.00000  Uiso   1.00
C1057  C     0.21788   0.80785   0.98838   0.00000  Uiso   1.00
C1058  C     0.23064   0.81023   0.94180   0.00000  Uiso   1.00
C1059  C     0.20965   0.83445   0.92226   0.00000  Uiso   1.00
F1060  F     0.31530   0.82134   0.80681   0.00000  Uiso   1.00
F1061  F     0.28550   0.78539   0.99083   0.00000  Uiso   1.00
F1062  F     0.07551   0.88666   0.92293   0.00000  Uiso   1.00
F1063  F     0.23226   0.85074   0.88332   0.00000  Uiso   1.00
F1064  F     0.02096   0.85064   0.69383   0.00000  Uiso   1.00
H1065  H     0.25513   0.78624   0.57503   0.00000  Uiso   1.00
H1066  H     0.13872   0.83426   0.58108   0.00000  Uiso   1.00
H1067  H     0.09599   0.84577   0.54726   0.00000  Uiso   1.00
H1068  H     0.26308   0.98970   0.62874   0.00000  Uiso   1.00
H1069  H     0.08258   0.69837   0.87837   0.00000  Uiso   1.00
H1070  H     0.27374   0.74818   0.83984   0.00000  Uiso   1.00
H1071  H     0.30580   0.87915   0.50609   0.00000  Uiso   1.00
O1072  O     0.16667   0.83333   0.75000   0.00000  Uiso   1.00
O1073  O     0.15451   0.79304   0.65459   0.00000  Uiso   1.00
O1074  O     0.12940   0.87058   0.84968   0.00000  Uiso   1.00
O1075  O     0.20824   0.84425   0.64606   0.00000  Uiso   1.00
O1076  O     0.17451   0.82546   0.84968   0.00000  Uiso   1.00
O1077  O     0.18853   0.69140   0.65866   0.00000  Uiso   1.00
O1078  O     0.24307   0.71260   0.70005   0.00000  Uiso   1.00
O1079  O     0.24516   0.97487   0.65471   0.00000  Uiso   1.00
O1080  O     0.08052   0.96994   0.81257   0.00000  Uiso   1.00
O1081  O     0.14331   0.97900   0.84400   0.00000  Uiso   1.00
O1082  O     0.10068   0.70847   0.84967   0.00000  Uiso   1.00
O1083  O     0.17930   0.74686   0.78214   0.00000  Uiso   1.00
O1084  O     0.31281   0.80270   0.89799   0.00000  Uiso   1.00
O1085  O     0.26758   0.73908   0.92457   0.00000  Uiso   1.00
O1086  O     0.25542   0.76958   0.85631   0.00000  Uiso   1.00
O1087  O     0.01802   0.86059   0.56207   0.00000  Uiso   1.00
O1088  O     0.03928   0.92811   0.53017   0.00000  Uiso   1.00
O1089  O     0.33328   0.86998   0.98751   0.00000  Uiso   1.00
O1090  O     0.14632   0.92751   0.77013   0.00000  Uiso   1.00
O1091  O     0.07412   0.79958   0.73413   0.00000  Uiso   1.00
O1092  O     0.26693   0.85939   0.71361   0.00000  Uiso   1.00
O1093  O     0.07071   0.85544   0.78213   0.00000  Uiso   1.00
O1094  O     0.25491   0.81892   0.77014   0.00000  Uiso   1.00
O1095  O     0.13760   0.73610   0.73413   0.00000  Uiso   1.00
O1096  O     0.20345   0.92286   0.71360   0.00000  Uiso   1.00
S1097  S     0.21429   0.67653   0.68628   0.00000  Uiso   1.00
S1098  S     0.11860   0.99918   0.81915   0.00000  Uiso   1.00
S1099  S     0.26849   0.77964   0.90536   0.00000  Uiso   1.00
S1100  S     0.03483   0.88210   0.51941   0.00000  Uiso   1.00
Zn1101 Zn    0.19338   0.80661   0.78734   0.00000  Uiso   1.00
Zn1102 Zn    0.13379   0.79124   0.71876   0.00000  Uiso   1.00
Zn1103 Zn    0.21056   0.86442   0.70657   0.00000  Uiso   1.00
Zn1104 Zn    0.12893   0.87106   0.78733   0.00000  Uiso   1.00
C1105  C     0.38637   0.82702   0.75989   0.00000  Uiso   1.00
C1106  C     0.50028   0.82188   0.55996   0.00000  Uiso   1.00
C1107  C     0.56644   0.79485   0.55769   0.00000  Uiso   1.00
C1108  C     0.61411   0.83993   0.73963   0.00000  Uiso   1.00
C1109  C     0.47391   0.85792   0.92033   0.00000  Uiso   1.00
C1110  C     0.66002   0.83909   0.73301   0.00000  Uiso   1.00
C1111  C     0.34120   0.82652   0.76518   0.00000  Uiso   1.00
C1112  C     0.51146   0.98880   0.73522   0.00000  Uiso   1.00
C1113  C     0.48581   0.67985   0.76627   0.00000  Uiso   1.00
C1114  C     0.48973   0.72303   0.76047   0.00000  Uiso   1.00
C1115  C     0.50965   0.94462   0.74021   0.00000  Uiso   1.00
C1116  C     0.41913   0.86725   0.99010   0.00000  Uiso   1.00
C1117  C     0.51871   0.81518   0.62965   0.00000  Uiso   1.00
C1118  C     0.48286   0.85212   0.87091   0.00000  Uiso   1.00
C1119  C     0.57841   0.79436   0.51152   0.00000  Uiso   1.00
C1120  C     0.52762   0.80852   0.58164   0.00000  Uiso   1.00
C1121  C     0.43423   0.87145   0.94434   0.00000  Uiso   1.00
C1122  C     0.44379   0.85018   0.51252   0.00000  Uiso   1.00
C1123  C     0.48515   0.83876   0.99035   0.00000  Uiso   1.00
C1124  C     0.50098   0.84416   0.94394   0.00000  Uiso   1.00
C1125  C     0.51153   0.82260   0.51310   0.00000  Uiso   1.00
C1126  C     0.55121   0.80785   0.98838   0.00000  Uiso   1.00
C1127  C     0.56397   0.81023   0.94180   0.00000  Uiso   1.00
C1128  C     0.54298   0.83445   0.92226   0.00000  Uiso   1.00
F1129  F     0.64863   0.82134   0.80681   0.00000  Uiso   1.00
F1130  F     0.61883   0.78539   0.99083   0.00000  Uiso   1.00
F1131  F     0.40884   0.88666   0.92293   0.00000  Uiso   1.00
F1132  F     0.56560   0.85074   0.88332   0.00000  Uiso   1.00
F1133  F     0.35429   0.85064   0.69383   0.00000  Uiso   1.00
H1134  H     0.58846   0.78624   0.57503   0.00000  Uiso   1.00
H1135  H     0.47206   0.83426   0.58108   0.00000  Uiso   1.00
H1136  H     0.42933   0.84577   0.54726   0.00000  Uiso   1.00
H1137  H     0.59641   0.98970   0.62874   0.00000  Uiso   1.00
H1138  H     0.41591   0.69837   0.87837   0.00000  Uiso   1.00
H1139  H     0.60708   0.74818   0.83984   0.00000  Uiso   1.00
H1140  H     0.63914   0.87915   0.50609   0.00000  Uiso   1.00
O1141  O     0.50000   0.83333   0.75000   0.00000  Uiso   1.00
O1142  O     0.48784   0.79304   0.65459   0.00000  Uiso   1.00
O1143  O     0.46274   0.87058   0.84968   0.00000  Uiso   1.00
O1144  O     0.54157   0.84425   0.64606   0.00000  Uiso   1.00
O1145  O     0.50785   0.82546   0.84968   0.00000  Uiso   1.00
O1146  O     0.52186   0.69140   0.65866   0.00000  Uiso   1.00
O1147  O     0.57640   0.71260   0.70005   0.00000  Uiso   1.00
O1148  O     0.57849   0.97487   0.65471   0.00000  Uiso   1.00
O1149  O     0.41386   0.96994   0.81257   0.00000  Uiso   1.00
O1150  O     0.47665   0.97900   0.84400   0.00000  Uiso   1.00
O1151  O     0.43402   0.70847   0.84967   0.00000  Uiso   1.00
O1152  O     0.51264   0.74686   0.78214   0.00000  Uiso   1.00
O1153  O     0.64614   0.80270   0.89799   0.00000  Uiso   1.00
O1154  O     0.60091   0.73908   0.92457   0.00000  Uiso   1.00
O1155  O     0.58875   0.76958   0.85631   0.00000  Uiso   1.00
O1156  O     0.35135   0.86059   0.56207   0.00000  Uiso   1.00
O1157  O     0.37261   0.92811   0.53017   0.00000  Uiso   1.00
O1158  O     0.66661   0.86998   0.98751   0.00000  Uiso   1.00
O1159  O     0.47965   0.92751   0.77013   0.00000  Uiso   1.00
O1160  O     0.40745   0.79958   0.73413   0.00000  Uiso   1.00
O1161  O     0.60026   0.85939   0.71361   0.00000  Uiso   1.00
O1162  O     0.40405   0.85544   0.78213   0.00000  Uiso   1.00
O1163  O     0.58824   0.81892   0.77014   0.00000  Uiso   1.00
O1164  O     0.47093   0.73610   0.73413   0.00000  Uiso   1.00
O1165  O     0.53678   0.92286   0.71360   0.00000  Uiso   1.00
S1166  S     0.54762   0.67653   0.68628   0.00000  Uiso   1.00
S1167  S     0.45193   0.99918   0.81915   0.00000  Uiso   1.00
S1168  S     0.60183   0.77964   0.90536   0.00000  Uiso   1.00
S1169  S     0.36816   0.88210   0.51941   0.00000  Uiso   1.00
Zn1170 Zn    0.52672   0.80661   0.78734   0.00000  Uiso   1.00
Zn1171 Zn    0.46713   0.79124   0.71876   0.00000  Uiso   1.00
Zn1172 Zn    0.54389   0.86442   0.70657   0.00000  Uiso   1.00
Zn1173 Zn    0.46226   0.87106   0.78733   0.00000  Uiso   1.00
C1174  C     0.71970   0.82702   0.75989   0.00000  Uiso   1.00
C1175  C     0.83362   0.82188   0.55996   0.00000  Uiso   1.00
C1176  C     0.89978   0.79485   0.55769   0.00000  Uiso   1.00
C1177  C     0.94745   0.83993   0.73963   0.00000  Uiso   1.00
C1178  C     0.80724   0.85792   0.92033   0.00000  Uiso   1.00
C1179  C     0.99335   0.83909   0.73301   0.00000  Uiso   1.00
C1180  C     0.67454   0.82652   0.76518   0.00000  Uiso   1.00
C1181  C     0.84479   0.98880   0.73522   0.00000  Uiso   1.00
C1182  C     0.81914   0.67985   0.76627   0.00000  Uiso   1.00
C1183  C     0.82307   0.72303   0.76047   0.00000  Uiso   1.00
C1184  C     0.84299   0.94462   0.74021   0.00000  Uiso   1.00
C1185  C     0.75246   0.86725   0.99010   0.00000  Uiso   1.00
C1186  C     0.85204   0.81518   0.62965   0.00000  Uiso   1.00
C1187  C     0.81620   0.85212   0.87091   0.00000  Uiso   1.00
C1188  C     0.91175   0.79436   0.51152   0.00000  Uiso   1.00
C1189  C     0.86096   0.80852   0.58164   0.00000  Uiso   1.00
C1190  C     0.76756   0.87145   0.94434   0.00000  Uiso   1.00
C1191  C     0.77712   0.85018   0.51252   0.00000  Uiso   1.00
C1192  C     0.81848   0.83876   0.99035   0.00000  Uiso   1.00
C1193  C     0.83431   0.84416   0.94394   0.00000  Uiso   1.00
C1194  C     0.84486   0.82260   0.51310   0.00000  Uiso   1.00
C1195  C     0.88454   0.80785   0.98838   0.00000  Uiso   1.00
C1196  C     0.89731   0.81023   0.94180   0.00000  Uiso   1.00
C1197  C     0.87632   0.83445   0.92226   0.00000  Uiso   1.00
F1198  F     0.98197   0.82134   0.80681   0.00000  Uiso   1.00
F1199  F     0.95216   0.78539   0.99083   0.00000  Uiso   1.00
F1200  F     0.74218   0.88666   0.92293   0.00000  Uiso   1.00
F1201  F     0.89893   0.85074   0.88332   0.00000  Uiso   1.00
F1202  F     0.68763   0.85064   0.69383   0.00000  Uiso   1.00
H1203  H     0.92179   0.78624   0.57503   0.00000  Uiso   1.00
H1204  H     0.80539   0.83426   0.58108   0.00000  Uiso   1.00
H1205  H     0.76266   0.84577   0.54726   0.00000  Uiso   1.00
H1206  H     0.92974   0.98970   0.62874   0.00000  Uiso   1.00
H1207  H     0.74925   0.69837   0.87837   0.00000  Uiso   1.00
H1208  H     0.94041   0.74818   0.83984   0.00000  Uiso   1.00
H1209  H     0.97247   0.87915   0.50609   0.00000  Uiso   1.00
O1210  O     0.83333   0.83333   0.75000   0.00000  Uiso   1.00
O1211  O     0.82118   0.79304   0.65459   0.00000  Uiso   1.00
O1212  O     0.79607   0.87058   0.84968   0.00000  Uiso   1.00
O1213  O     0.87491   0.84425   0.64606   0.00000  Uiso   1.00
O1214  O     0.84118   0.82546   0.84968   0.00000  Uiso   1.00
O1215  O     0.85519   0.69140   0.65866   0.00000  Uiso   1.00
O1216  O     0.90973   0.71260   0.70005   0.00000  Uiso   1.00
O1217  O     0.91183   0.97487   0.65471   0.00000  Uiso   1.00
O1218  O     0.74719   0.96994   0.81257   0.00000  Uiso   1.00
O1219  O     0.80998   0.97900   0.84400   0.00000  Uiso   1.00
O1220  O     0.76735   0.70847   0.84967   0.00000  Uiso   1.00
O1221  O     0.84597   0.74686   0.78214   0.00000  Uiso   1.00
O1222  O     0.97947   0.80270   0.89799   0.00000  Uiso   1.00
O1223  O     0.93424   0.73908   0.92457   0.00000  Uiso   1.00
O1224  O     0.92208   0.76958   0.85631   0.00000  Uiso   1.00
O1225  O     0.68468   0.86059   0.56207   0.00000  Uiso   1.00
O1226  O     0.70595   0.92811   0.53017   0.00000  Uiso   1.00
O1227  O     0.99995   0.86998   0.98751   0.00000  Uiso   1.00
O1228  O     0.81298   0.92751   0.77013   0.00000  Uiso   1.00
O1229  O     0.74078   0.79958   0.73413   0.00000  Uiso   1.00
O1230  O     0.93360   0.85939   0.71361   0.00000  Uiso   1.00
O1231  O     0.73738   0.85544   0.78213   0.00000  Uiso   1.00
O1232  O     0.92158   0.81892   0.77014   0.00000  Uiso   1.00
O1233  O     0.80426   0.73610   0.73413   0.00000  Uiso   1.00
O1234  O     0.87012   0.92286   0.71360   0.00000  Uiso   1.00
S1235  S     0.88095   0.67653   0.68628   0.00000  Uiso   1.00
S1236  S     0.78527   0.99918   0.81915   0.00000  Uiso   1.00
S1237  S     0.93516   0.77964   0.90536   0.00000  Uiso   1.00
S1238  S     0.70149   0.88210   0.51941   0.00000  Uiso   1.00
Zn1239 Zn    0.86005   0.80661   0.78734   0.00000  Uiso   1.00
Zn1240 Zn    0.80046   0.79124   0.71876   0.00000  Uiso   1.00
Zn1241 Zn    0.87723   0.86442   0.70657   0.00000  Uiso   1.00
Zn1242 Zn    0.79560   0.87106   0.78733   0.00000  Uiso   1.00
loop_
_geom_bond_atom_site_label_1
_geom_bond_atom_site_label_2
_geom_bond_distance
_geom_bond_site_symmetry_2
_ccdc_geom_bond_type
C1     C7      1.430   .     S
C1     O58     1.268   .     A
C1     O56     1.281   .     A
C2     C16     1.387   .     A
C2     C21     1.409   .     A
C2     H31     1.077   .     S
C3     H30     1.084   .     S
C3     C15     1.385   .     A
C3     C16     1.388   .     A
C4     O57     1.282   .     A
C4     O59     1.278   .     A
C4     C6      1.453   .     S
C5     C17     1.409   .     A
C5     C20     1.428   .     A
C5     C14     1.485   .     S
C6     C76     1.337   .     S
C6     F98     1.362   .     S
C7     C144    1.337   1_455 S
C7     F163    1.357   1_455 S
C8     C11     1.460   .     S
C8     C216    1.361   .     S
C8     S269    1.794   .     S
C9     C10     1.426   .     S
C9     C422    1.361   1_545 S
C9     S477    1.784   1_545 S
C10    O60     1.281   .     A
C10    O48     1.272   .     A
C11    O61     1.275   .     A
C11    O55     1.267   .     A
C12    C17     1.393   .     A
C12    C639    1.394   .     S
C12    S686    1.768   .     S
C13    O38     1.279   .     A
C13    C16     1.444   .     S
C13    O40     1.276   .     A
C14    O41     1.281   .     A
C14    O39     1.285   .     A
C15    C643    1.417   1_554 S
C15    F647    1.356   1_554 S
C17    F27     1.359   .     S
C18    H32     1.075   .     S
C18    C633    1.394   1_554 S
C18    C640    1.417   1_554 S
C19    C20     1.420   .     A
C19    C639    1.417   .     S
C19    C642    1.428   .     S
C20    C24     1.414   .     A
C21    C640    1.428   1_554 S
C21    C643    1.431   1_554 S
C22    C23     1.406   .     A
C22    C636    1.417   .     S
C22    C642    1.431   .     S
C23    C24     1.390   .     A
C23    S64     1.775   .     S
C24    F28     1.359   .     S
F25    C76     1.357   .     S
F26    C636    1.356   .     S
F29    C144    1.362   1_455 S
H33    O44     0.991   .     S
H34    O47     0.991   .     S
H35    O51     0.991   .     S
H36    O675    0.991   1_554 S
O37    Zn69    1.930   .     S
O37    Zn66    1.956   .     S
O37    Zn67    1.966   .     S
O37    Zn68    1.938   .     S
O38    Zn67    1.936   .     S
O39    Zn69    1.948   .     S
O40    Zn68    1.949   .     S
O41    Zn66    1.935   .     S
O42    S62     1.503   .     D
O43    S62     1.504   .     D
O44    S269    1.682   .     S
O45    S63     1.504   .     D
O46    S63     1.504   .     D
O47    S477    1.683   1_545 S
O48    Zn66    1.945   .     S
O49    S64     1.503   .     D
O50    S64     1.504   .     D
O51    S64     1.682   .     S
O52    S65     1.504   .     D
O53    S65     1.503   .     D
O54    H657    0.991   .     S
O54    S755    1.682   .     S
O55    Zn69    1.943   .     S
O56    Zn67    1.919   .     S
O57    Zn68    1.932   .     S
O58    Zn69    1.936   .     S
O59    Zn66    1.923   .     S
O60    Zn67    1.940   .     S
O61    Zn68    1.938   .     S
S62    O458    1.682   1_545 S
S62    C422    1.794   1_545 S
S63    C216    1.784   .     S
S63    O254    1.683   .     S
S65    C633    1.768   1_554 S
S65    O813    1.682   1_454 S
C70    C76     1.430   .     S
C70    O127    1.268   .     A
C70    O125    1.281   .     A
C71    C85     1.387   .     A
C71    C90     1.409   .     A
C71    H100    1.077   .     S
C72    H99     1.084   .     S
C72    C84     1.385   .     A
C72    C85     1.388   .     A
C73    O126    1.282   .     A
C73    O128    1.278   .     A
C73    C75     1.453   .     S
C74    C86     1.409   .     A
C74    C89     1.428   .     A
C74    C83     1.485   .     S
C75    C145    1.337   .     S
C75    F167    1.362   .     S
C77    C80     1.460   .     S
C77    C285    1.361   .     S
C77    S338    1.794   .     S
C78    C79     1.426   .     S
C78    C491    1.361   1_545 S
C78    S546    1.784   1_545 S
C79    O129    1.281   .     A
C79    O117    1.272   .     A
C80    O130    1.275   .     A
C80    O124    1.267   .     A
C81    C86     1.393   .     A
C81    C708    1.394   .     S
C81    S755    1.768   .     S
C82    O107    1.279   .     A
C82    C85     1.444   .     S
C82    O109    1.276   .     A
C83    O110    1.281   .     A
C83    O108    1.285   .     A
C84    C712    1.417   1_554 S
C84    F716    1.356   1_554 S
C86    F96     1.359   .     S
C87    H101    1.075   .     S
C87    C702    1.394   1_554 S
C87    C709    1.417   1_554 S
C88    C89     1.420   .     A
C88    C708    1.417   .     S
C88    C711    1.428   .     S
C89    C93     1.414   .     A
C90    C709    1.428   1_554 S
C90    C712    1.431   1_554 S
C91    C92     1.406   .     A
C91    C705    1.417   .     S
C91    C711    1.431   .     S
C92    C93     1.390   .     A
C92    S133    1.775   .     S
C93    F97     1.359   .     S
F94    C145    1.357   .     S
F95    C705    1.356   .     S
H102   O113    0.991   .     S
H103   O116    0.991   .     S
H104   O120    0.991   .     S
H105   O744    0.991   1_554 S
O106   Zn138   1.930   .     S
O106   Zn135   1.956   .     S
O106   Zn136   1.966   .     S
O106   Zn137   1.938   .     S
O107   Zn136   1.936   .     S
O108   Zn138   1.948   .     S
O109   Zn137   1.949   .     S
O110   Zn135   1.935   .     S
O111   S131    1.503   .     D
O112   S131    1.504   .     D
O113   S338    1.682   .     S
O114   S132    1.504   .     D
O115   S132    1.504   .     D
O116   S546    1.683   1_545 S
O117   Zn135   1.945   .     S
O118   S133    1.503   .     D
O119   S133    1.504   .     D
O120   S133    1.682   .     S
O121   S134    1.504   .     D
O122   S134    1.503   .     D
O123   H726    0.991   .     S
O123   S824    1.682   .     S
O124   Zn138   1.943   .     S
O125   Zn136   1.919   .     S
O126   Zn137   1.932   .     S
O127   Zn138   1.936   .     S
O128   Zn135   1.923   .     S
O129   Zn136   1.940   .     S
O130   Zn137   1.938   .     S
S131   O527    1.682   1_545 S
S131   C491    1.794   1_545 S
S132   C285    1.784   .     S
S132   O323    1.683   .     S
S134   C702    1.768   1_554 S
S134   O675    1.682   1_554 S
C139   C145    1.430   .     S
C139   O196    1.268   .     A
C139   O194    1.281   .     A
C140   C154    1.387   .     A
C140   C159    1.409   .     A
C140   H169    1.077   .     S
C141   H168    1.084   .     S
C141   C153    1.385   .     A
C141   C154    1.388   .     A
C142   O195    1.282   .     A
C142   O197    1.278   .     A
C142   C144    1.453   .     S
C143   C155    1.409   .     A
C143   C158    1.428   .     A
C143   C152    1.485   .     S
C144   C7      1.337   1_655 S
C144   F29     1.362   1_655 S
C146   C149    1.460   .     S
C146   C354    1.361   .     S
C146   S407    1.794   .     S
C147   C148    1.426   .     S
C147   C560    1.361   1_545 S
C147   S615    1.784   1_545 S
C148   O198    1.281   .     A
C148   O186    1.272   .     A
C149   O199    1.275   .     A
C149   O193    1.267   .     A
C150   C155    1.393   .     A
C150   C777    1.394   .     S
C150   S824    1.768   .     S
C151   O176    1.279   .     A
C151   C154    1.444   .     S
C151   O178    1.276   .     A
C152   O179    1.281   .     A
C152   O177    1.285   .     A
C153   C781    1.417   1_554 S
C153   F785    1.356   1_554 S
C155   F165    1.359   .     S
C156   H170    1.075   .     S
C156   C771    1.394   1_554 S
C156   C778    1.417   1_554 S
C157   C158    1.420   .     A
C157   C777    1.417   .     S
C157   C780    1.428   .     S
C158   C162    1.414   .     A
C159   C778    1.428   1_554 S
C159   C781    1.431   1_554 S
C160   C161    1.406   .     A
C160   C774    1.417   .     S
C160   C780    1.431   .     S
C161   C162    1.390   .     A
C161   S202    1.775   .     S
C162   F166    1.359   .     S
F163   C7      1.357   1_655 S
F164   C774    1.356   .     S
H171   O182    0.991   .     S
H172   O185    0.991   .     S
H173   O189    0.991   .     S
H174   O813    0.991   1_554 S
O175   Zn207   1.930   .     S
O175   Zn204   1.956   .     S
O175   Zn205   1.966   .     S
O175   Zn206   1.938   .     S
O176   Zn205   1.936   .     S
O177   Zn207   1.948   .     S
O178   Zn206   1.949   .     S
O179   Zn204   1.935   .     S
O180   S200    1.503   .     D
O181   S200    1.504   .     D
O182   S407    1.682   .     S
O183   S201    1.504   .     D
O184   S201    1.504   .     D
O185   S615    1.683   1_545 S
O186   Zn204   1.945   .     S
O187   S202    1.503   .     D
O188   S202    1.504   .     D
O189   S202    1.682   .     S
O190   S203    1.504   .     D
O191   S203    1.503   .     D
O192   H795    0.991   .     S
O192   S686    1.682   1_655 S
O193   Zn207   1.943   .     S
O194   Zn205   1.919   .     S
O195   Zn206   1.932   .     S
O196   Zn207   1.936   .     S
O197   Zn204   1.923   .     S
O198   Zn205   1.940   .     S
O199   Zn206   1.938   .     S
S200   O596    1.682   1_545 S
S200   C560    1.794   1_545 S
S201   C354    1.784   .     S
S201   O392    1.683   .     S
S203   C771    1.768   1_554 S
S203   O744    1.682   1_554 S
C208   C214    1.430   .     S
C208   O265    1.268   .     A
C208   O263    1.281   .     A
C209   C223    1.387   .     A
C209   C228    1.409   .     A
C209   H238    1.077   .     S
C210   H237    1.084   .     S
C210   C222    1.385   .     A
C210   C223    1.388   .     A
C211   O264    1.282   .     A
C211   O266    1.278   .     A
C211   C213    1.453   .     S
C212   C224    1.409   .     A
C212   C227    1.428   .     A
C212   C221    1.485   .     S
C213   C283    1.337   .     S
C213   F305    1.362   .     S
C214   C351    1.337   1_455 S
C214   F370    1.357   1_455 S
C215   C218    1.460   .     S
C215   C423    1.361   .     S
C215   S476    1.794   .     S
C216   C217    1.426   .     S
C217   O267    1.281   .     A
C217   O255    1.272   .     A
C218   O268    1.275   .     A
C218   O262    1.267   .     A
C219   C224    1.393   .     A
C219   C846    1.394   .     S
C219   S893    1.768   .     S
C220   O245    1.279   .     A
C220   C223    1.444   .     S
C220   O247    1.276   .     A
C221   O248    1.281   .     A
C221   O246    1.285   .     A
C222   C850    1.417   1_554 S
C222   F854    1.356   1_554 S
C224   F234    1.359   .     S
C225   H239    1.075   .     S
C225   C840    1.394   1_554 S
C225   C847    1.417   1_554 S
C226   C227    1.420   .     A
C226   C846    1.417   .     S
C226   C849    1.428   .     S
C227   C231    1.414   .     A
C228   C847    1.428   1_554 S
C228   C850    1.431   1_554 S
C229   C230    1.406   .     A
C229   C843    1.417   .     S
C229   C849    1.431   .     S
C230   C231    1.390   .     A
C230   S271    1.775   .     S
C231   F235    1.359   .     S
F232   C283    1.357   .     S
F233   C843    1.356   .     S
F236   C351    1.362   1_455 S
H240   O251    0.991   .     S
H241   O254    0.991   .     S
H242   O258    0.991   .     S
H243   O882    0.991   1_554 S
O244   Zn276   1.930   .     S
O244   Zn273   1.956   .     S
O244   Zn274   1.966   .     S
O244   Zn275   1.938   .     S
O245   Zn274   1.936   .     S
O246   Zn276   1.948   .     S
O247   Zn275   1.949   .     S
O248   Zn273   1.935   .     S
O249   S269    1.503   .     D
O250   S269    1.504   .     D
O251   S476    1.682   .     S
O252   S270    1.504   .     D
O253   S270    1.504   .     D
O255   Zn273   1.945   .     S
O256   S271    1.503   .     D
O257   S271    1.504   .     D
O258   S271    1.682   .     S
O259   S272    1.504   .     D
O260   S272    1.503   .     D
O261   H864    0.991   .     S
O261   S962    1.682   .     S
O262   Zn276   1.943   .     S
O263   Zn274   1.919   .     S
O264   Zn275   1.932   .     S
O265   Zn276   1.936   .     S
O266   Zn273   1.923   .     S
O267   Zn274   1.940   .     S
O268   Zn275   1.938   .     S
S270   C423    1.784   .     S
S270   O461    1.683   .     S
S272   C840    1.768   1_554 S
S272   O1020   1.682   1_454 S
C277   C283    1.430   .     S
C277   O334    1.268   .     A
C277   O332    1.281   .     A
C278   C292    1.387   .     A
C278   C297    1.409   .     A
C278   H307    1.077   .     S
C279   H306    1.084   .     S
C279   C291    1.385   .     A
C279   C292    1.388   .     A
C280   O333    1.282   .     A
C280   O335    1.278   .     A
C280   C282    1.453   .     S
C281   C293    1.409   .     A
C281   C296    1.428   .     A
C281   C290    1.485   .     S
C282   C352    1.337   .     S
C282   F374    1.362   .     S
C284   C287    1.460   .     S
C284   C492    1.361   .     S
C284   S545    1.794   .     S
C285   C286    1.426   .     S
C286   O336    1.281   .     A
C286   O324    1.272   .     A
C287   O337    1.275   .     A
C287   O331    1.267   .     A
C288   C293    1.393   .     A
C288   C915    1.394   .     S
C288   S962    1.768   .     S
C289   O314    1.279   .     A
C289   C292    1.444   .     S
C289   O316    1.276   .     A
C290   O317    1.281   .     A
C290   O315    1.285   .     A
C291   C919    1.417   1_554 S
C291   F923    1.356   1_554 S
C293   F303    1.359   .     S
C294   H308    1.075   .     S
C294   C909    1.394   1_554 S
C294   C916    1.417   1_554 S
C295   C296    1.420   .     A
C295   C915    1.417   .     S
C295   C918    1.428   .     S
C296   C300    1.414   .     A
C297   C916    1.428   1_554 S
C297   C919    1.431   1_554 S
C298   C299    1.406   .     A
C298   C912    1.417   .     S
C298   C918    1.431   .     S
C299   C300    1.390   .     A
C299   S340    1.775   .     S
C300   F304    1.359   .     S
F301   C352    1.357   .     S
F302   C912    1.356   .     S
H309   O320    0.991   .     S
H310   O323    0.991   .     S
H311   O327    0.991   .     S
H312   O951    0.991   1_554 S
O313   Zn345   1.930   .     S
O313   Zn342   1.956   .     S
O313   Zn343   1.966   .     S
O313   Zn344   1.938   .     S
O314   Zn343   1.936   .     S
O315   Zn345   1.948   .     S
O316   Zn344   1.949   .     S
O317   Zn342   1.935   .     S
O318   S338    1.503   .     D
O319   S338    1.504   .     D
O320   S545    1.682   .     S
O321   S339    1.504   .     D
O322   S339    1.504   .     D
O324   Zn342   1.945   .     S
O325   S340    1.503   .     D
O326   S340    1.504   .     D
O327   S340    1.682   .     S
O328   S341    1.504   .     D
O329   S341    1.503   .     D
O330   H933    0.991   .     S
O330   S1031   1.682   .     S
O331   Zn345   1.943   .     S
O332   Zn343   1.919   .     S
O333   Zn344   1.932   .     S
O334   Zn345   1.936   .     S
O335   Zn342   1.923   .     S
O336   Zn343   1.940   .     S
O337   Zn344   1.938   .     S
S339   C492    1.784   .     S
S339   O530    1.683   .     S
S341   C909    1.768   1_554 S
S341   O882    1.682   1_554 S
C346   C352    1.430   .     S
C346   O403    1.268   .     A
C346   O401    1.281   .     A
C347   C361    1.387   .     A
C347   C366    1.409   .     A
C347   H376    1.077   .     S
C348   H375    1.084   .     S
C348   C360    1.385   .     A
C348   C361    1.388   .     A
C349   O402    1.282   .     A
C349   O404    1.278   .     A
C349   C351    1.453   .     S
C350   C362    1.409   .     A
C350   C365    1.428   .     A
C350   C359    1.485   .     S
C351   C214    1.337   1_655 S
C351   F236    1.362   1_655 S
C353   C356    1.460   .     S
C353   C561    1.361   .     S
C353   S614    1.794   .     S
C354   C355    1.426   .     S
C355   O405    1.281   .     A
C355   O393    1.272   .     A
C356   O406    1.275   .     A
C356   O400    1.267   .     A
C357   C362    1.393   .     A
C357   C984    1.394   .     S
C357   S1031   1.768   .     S
C358   O383    1.279   .     A
C358   C361    1.444   .     S
C358   O385    1.276   .     A
C359   O386    1.281   .     A
C359   O384    1.285   .     A
C360   C988    1.417   1_554 S
C360   F992    1.356   1_554 S
C362   F372    1.359   .     S
C363   H377    1.075   .     S
C363   C978    1.394   1_554 S
C363   C985    1.417   1_554 S
C364   C365    1.420   .     A
C364   C984    1.417   .     S
C364   C987    1.428   .     S
C365   C369    1.414   .     A
C366   C985    1.428   1_554 S
C366   C988    1.431   1_554 S
C367   C368    1.406   .     A
C367   C981    1.417   .     S
C367   C987    1.431   .     S
C368   C369    1.390   .     A
C368   S409    1.775   .     S
C369   F373    1.359   .     S
F370   C214    1.357   1_655 S
F371   C981    1.356   .     S
H378   O389    0.991   .     S
H379   O392    0.991   .     S
H380   O396    0.991   .     S
H381   O1020   0.991   1_554 S
O382   Zn414   1.930   .     S
O382   Zn411   1.956   .     S
O382   Zn412   1.966   .     S
O382   Zn413   1.938   .     S
O383   Zn412   1.936   .     S
O384   Zn414   1.948   .     S
O385   Zn413   1.949   .     S
O386   Zn411   1.935   .     S
O387   S407    1.503   .     D
O388   S407    1.504   .     D
O389   S614    1.682   .     S
O390   S408    1.504   .     D
O391   S408    1.504   .     D
O393   Zn411   1.945   .     S
O394   S409    1.503   .     D
O395   S409    1.504   .     D
O396   S409    1.682   .     S
O397   S410    1.504   .     D
O398   S410    1.503   .     D
O399   H1002   0.991   .     S
O399   S893    1.682   1_655 S
O400   Zn414   1.943   .     S
O401   Zn412   1.919   .     S
O402   Zn413   1.932   .     S
O403   Zn414   1.936   .     S
O404   Zn411   1.923   .     S
O405   Zn412   1.940   .     S
O406   Zn413   1.938   .     S
S408   C561    1.784   .     S
S408   O599    1.683   .     S
S410   C978    1.768   1_554 S
S410   O951    1.682   1_554 S
C415   C421    1.430   .     S
C415   O472    1.268   .     A
C415   O470    1.281   .     A
C416   C430    1.387   .     A
C416   C435    1.409   .     A
C416   H445    1.077   .     S
C417   H444    1.084   .     S
C417   C429    1.385   .     A
C417   C430    1.388   .     A
C418   O471    1.282   .     A
C418   O473    1.278   .     A
C418   C420    1.453   .     S
C419   C431    1.409   .     A
C419   C434    1.428   .     A
C419   C428    1.485   .     S
C420   C490    1.337   .     S
C420   F512    1.362   .     S
C421   C558    1.337   1_455 S
C421   F577    1.357   1_455 S
C422   C425    1.460   .     S
C422   C9      1.361   1_565 S
C422   S62     1.794   1_565 S
C423   C424    1.426   .     S
C424   O474    1.281   .     A
C424   O462    1.272   .     A
C425   O475    1.275   .     A
C425   O469    1.267   .     A
C426   C431    1.393   .     A
C426   C1053   1.394   .     S
C426   S1100   1.768   .     S
C427   O452    1.279   .     A
C427   C430    1.444   .     S
C427   O454    1.276   .     A
C428   O455    1.281   .     A
C428   O453    1.285   .     A
C429   C1057   1.417   1_554 S
C429   F1061   1.356   1_554 S
C431   F441    1.359   .     S
C432   H446    1.075   .     S
C432   C1047   1.394   1_554 S
C432   C1054   1.417   1_554 S
C433   C434    1.420   .     A
C433   C1053   1.417   .     S
C433   C1056   1.428   .     S
C434   C438    1.414   .     A
C435   C1054   1.428   1_554 S
C435   C1057   1.431   1_554 S
C436   C437    1.406   .     A
C436   C1050   1.417   .     S
C436   C1056   1.431   .     S
C437   C438    1.390   .     A
C437   S478    1.775   .     S
C438   F442    1.359   .     S
F439   C490    1.357   .     S
F440   C1050   1.356   .     S
F443   C558    1.362   1_455 S
H447   O458    0.991   .     S
H448   O461    0.991   .     S
H449   O465    0.991   .     S
H450   O1089   0.991   1_554 S
O451   Zn483   1.930   .     S
O451   Zn480   1.956   .     S
O451   Zn481   1.966   .     S
O451   Zn482   1.938   .     S
O452   Zn481   1.936   .     S
O453   Zn483   1.948   .     S
O454   Zn482   1.949   .     S
O455   Zn480   1.935   .     S
O456   S476    1.503   .     D
O457   S476    1.504   .     D
O458   S62     1.682   1_565 S
O459   S477    1.504   .     D
O460   S477    1.504   .     D
O462   Zn480   1.945   .     S
O463   S478    1.503   .     D
O464   S478    1.504   .     D
O465   S478    1.682   .     S
O466   S479    1.504   .     D
O467   S479    1.503   .     D
O468   H1071   0.991   .     S
O468   S1169   1.682   .     S
O469   Zn483   1.943   .     S
O470   Zn481   1.919   .     S
O471   Zn482   1.932   .     S
O472   Zn483   1.936   .     S
O473   Zn480   1.923   .     S
O474   Zn481   1.940   .     S
O475   Zn482   1.938   .     S
S477   C9      1.784   1_565 S
S477   O47     1.683   1_565 S
S479   C1047   1.768   1_554 S
S479   O1227   1.682   1_454 S
C484   C490    1.430   .     S
C484   O541    1.268   .     A
C484   O539    1.281   .     A
C485   C499    1.387   .     A
C485   C504    1.409   .     A
C485   H514    1.077   .     S
C486   H513    1.084   .     S
C486   C498    1.385   .     A
C486   C499    1.388   .     A
C487   O540    1.282   .     A
C487   O542    1.278   .     A
C487   C489    1.453   .     S
C488   C500    1.409   .     A
C488   C503    1.428   .     A
C488   C497    1.485   .     S
C489   C559    1.337   .     S
C489   F581    1.362   .     S
C491   C494    1.460   .     S
C491   C78     1.361   1_565 S
C491   S131    1.794   1_565 S
C492   C493    1.426   .     S
C493   O543    1.281   .     A
C493   O531    1.272   .     A
C494   O544    1.275   .     A
C494   O538    1.267   .     A
C495   C500    1.393   .     A
C495   C1122   1.394   .     S
C495   S1169   1.768   .     S
C496   O521    1.279   .     A
C496   C499    1.444   .     S
C496   O523    1.276   .     A
C497   O524    1.281   .     A
C497   O522    1.285   .     A
C498   C1126   1.417   1_554 S
C498   F1130   1.356   1_554 S
C500   F510    1.359   .     S
C501   H515    1.075   .     S
C501   C1116   1.394   1_554 S
C501   C1123   1.417   1_554 S
C502   C503    1.420   .     A
C502   C1122   1.417   .     S
C502   C1125   1.428   .     S
C503   C507    1.414   .     A
C504   C1123   1.428   1_554 S
C504   C1126   1.431   1_554 S
C505   C506    1.406   .     A
C505   C1119   1.417   .     S
C505   C1125   1.431   .     S
C506   C507    1.390   .     A
C506   S547    1.775   .     S
C507   F511    1.359   .     S
F508   C559    1.357   .     S
F509   C1119   1.356   .     S
H516   O527    0.991   .     S
H517   O530    0.991   .     S
H518   O534    0.991   .     S
H519   O1158   0.991   1_554 S
O520   Zn552   1.930   .     S
O520   Zn549   1.956   .     S
O520   Zn550   1.966   .     S
O520   Zn551   1.938   .     S
O521   Zn550   1.936   .     S
O522   Zn552   1.948   .     S
O523   Zn551   1.949   .     S
O524   Zn549   1.935   .     S
O525   S545    1.503   .     D
O526   S545    1.504   .     D
O527   S131    1.682   1_565 S
O528   S546    1.504   .     D
O529   S546    1.504   .     D
O531   Zn549   1.945   .     S
O532   S547    1.503   .     D
O533   S547    1.504   .     D
O534   S547    1.682   .     S
O535   S548    1.504   .     D
O536   S548    1.503   .     D
O537   H1140   0.991   .     S
O537   S1238   1.682   .     S
O538   Zn552   1.943   .     S
O539   Zn550   1.919   .     S
O540   Zn551   1.932   .     S
O541   Zn552   1.936   .     S
O542   Zn549   1.923   .     S
O543   Zn550   1.940   .     S
O544   Zn551   1.938   .     S
S546   C78     1.784   1_565 S
S546   O116    1.683   1_565 S
S548   C1116   1.768   1_554 S
S548   O1089   1.682   1_554 S
C553   C559    1.430   .     S
C553   O610    1.268   .     A
C553   O608    1.281   .     A
C554   C568    1.387   .     A
C554   C573    1.409   .     A
C554   H583    1.077   .     S
C555   H582    1.084   .     S
C555   C567    1.385   .     A
C555   C568    1.388   .     A
C556   O609    1.282   .     A
C556   O611    1.278   .     A
C556   C558    1.453   .     S
C557   C569    1.409   .     A
C557   C572    1.428   .     A
C557   C566    1.485   .     S
C558   C421    1.337   1_655 S
C558   F443    1.362   1_655 S
C560   C563    1.460   .     S
C560   C147    1.361   1_565 S
C560   S200    1.794   1_565 S
C561   C562    1.426   .     S
C562   O612    1.281   .     A
C562   O600    1.272   .     A
C563   O613    1.275   .     A
C563   O607    1.267   .     A
C564   C569    1.393   .     A
C564   C1191   1.394   .     S
C564   S1238   1.768   .     S
C565   O590    1.279   .     A
C565   C568    1.444   .     S
C565   O592    1.276   .     A
C566   O593    1.281   .     A
C566   O591    1.285   .     A
C567   C1195   1.417   1_554 S
C567   F1199   1.356   1_554 S
C569   F579    1.359   .     S
C570   H584    1.075   .     S
C570   C1185   1.394   1_554 S
C570   C1192   1.417   1_554 S
C571   C572    1.420   .     A
C571   C1191   1.417   .     S
C571   C1194   1.428   .     S
C572   C576    1.414   .     A
C573   C1192   1.428   1_554 S
C573   C1195   1.431   1_554 S
C574   C575    1.406   .     A
C574   C1188   1.417   .     S
C574   C1194   1.431   .     S
C575   C576    1.390   .     A
C575   S616    1.775   .     S
C576   F580    1.359   .     S
F577   C421    1.357   1_655 S
F578   C1188   1.356   .     S
H585   O596    0.991   .     S
H586   O599    0.991   .     S
H587   O603    0.991   .     S
H588   O1227   0.991   1_554 S
O589   Zn621   1.930   .     S
O589   Zn618   1.956   .     S
O589   Zn619   1.966   .     S
O589   Zn620   1.938   .     S
O590   Zn619   1.936   .     S
O591   Zn621   1.948   .     S
O592   Zn620   1.949   .     S
O593   Zn618   1.935   .     S
O594   S614    1.503   .     D
O595   S614    1.504   .     D
O596   S200    1.682   1_565 S
O597   S615    1.504   .     D
O598   S615    1.504   .     D
O600   Zn618   1.945   .     S
O601   S616    1.503   .     D
O602   S616    1.504   .     D
O603   S616    1.682   .     S
O604   S617    1.504   .     D
O605   S617    1.503   .     D
O606   H1209   0.991   .     S
O606   S1100   1.682   1_655 S
O607   Zn621   1.943   .     S
O608   Zn619   1.919   .     S
O609   Zn620   1.932   .     S
O610   Zn621   1.936   .     S
O611   Zn618   1.923   .     S
O612   Zn619   1.940   .     S
O613   Zn620   1.938   .     S
S615   C147    1.784   1_565 S
S615   O185    1.683   1_565 S
S617   C1185   1.768   1_554 S
S617   O1158   1.682   1_554 S
C622   C628    1.430   .     S
C622   O679    1.268   .     A
C622   O677    1.281   .     A
C623   C637    1.387   .     A
C623   C642    1.409   .     A
C623   H652    1.077   .     S
C624   H651    1.084   .     S
C624   C636    1.385   .     A
C624   C637    1.388   .     A
C625   O678    1.282   .     A
C625   O680    1.278   .     A
C625   C627    1.453   .     S
C626   C638    1.409   .     A
C626   C641    1.428   .     A
C626   C635    1.485   .     S
C627   C697    1.337   .     S
C627   F719    1.362   .     S
C628   C765    1.337   1_455 S
C628   F784    1.357   1_455 S
C629   C632    1.460   .     S
C629   C837    1.361   .     S
C629   S890    1.794   .     S
C630   C631    1.426   .     S
C630   C1043   1.361   1_545 S
C630   S1098   1.784   1_545 S
C631   O681    1.281   .     A
C631   O669    1.272   .     A
C632   O682    1.275   .     A
C632   O676    1.267   .     A
C633   C638    1.393   .     A
C633   C18     1.394   1_556 S
C633   S65     1.768   1_556 S
C634   O659    1.279   .     A
C634   C637    1.444   .     S
C634   O661    1.276   .     A
C635   O662    1.281   .     A
C635   O660    1.285   .     A
C638   F648    1.359   .     S
C639   H653    1.075   .     S
C640   C641    1.420   .     A
C640   C18     1.417   1_556 S
C640   C21     1.428   1_556 S
C641   C645    1.414   .     A
C643   C644    1.406   .     A
C643   C15     1.417   1_556 S
C643   C21     1.431   1_556 S
C644   C645    1.390   .     A
C644   S685    1.775   .     S
C645   F649    1.359   .     S
F646   C697    1.357   .     S
F647   C15     1.356   1_556 S
F650   C765    1.362   1_455 S
H654   O665    0.991   .     S
H655   O668    0.991   .     S
H656   O672    0.991   .     S
O658   Zn690   1.930   .     S
O658   Zn687   1.956   .     S
O658   Zn688   1.966   .     S
O658   Zn689   1.938   .     S
O659   Zn688   1.936   .     S
O660   Zn690   1.948   .     S
O661   Zn689   1.949   .     S
O662   Zn687   1.935   .     S
O663   S683    1.503   .     D
O664   S683    1.504   .     D
O665   S890    1.682   .     S
O666   S684    1.504   .     D
O667   S684    1.504   .     D
O668   S1098   1.683   1_545 S
O669   Zn687   1.945   .     S
O670   S685    1.503   .     D
O671   S685    1.504   .     D
O672   S685    1.682   .     S
O673   S686    1.504   .     D
O674   S686    1.503   .     D
O675   H36     0.991   1_556 S
O675   S134    1.682   1_556 S
O676   Zn690   1.943   .     S
O677   Zn688   1.919   .     S
O678   Zn689   1.932   .     S
O679   Zn690   1.936   .     S
O680   Zn687   1.923   .     S
O681   Zn688   1.940   .     S
O682   Zn689   1.938   .     S
S683   O1079   1.682   1_545 S
S683   C1043   1.794   1_545 S
S684   C837    1.784   .     S
S684   O875    1.683   .     S
S686   O192    1.682   1_455 S
C691   C697    1.430   .     S
C691   O748    1.268   .     A
C691   O746    1.281   .     A
C692   C706    1.387   .     A
C692   C711    1.409   .     A
C692   H721    1.077   .     S
C693   H720    1.084   .     S
C693   C705    1.385   .     A
C693   C706    1.388   .     A
C694   O747    1.282   .     A
C694   O749    1.278   .     A
C694   C696    1.453   .     S
C695   C707    1.409   .     A
C695   C710    1.428   .     A
C695   C704    1.485   .     S
C696   C766    1.337   .     S
C696   F788    1.362   .     S
C698   C701    1.460   .     S
C698   C906    1.361   .     S
C698   S959    1.794   .     S
C699   C700    1.426   .     S
C699   C1112   1.361   1_545 S
C699   S1167   1.784   1_545 S
C700   O750    1.281   .     A
C700   O738    1.272   .     A
C701   O751    1.275   .     A
C701   O745    1.267   .     A
C702   C707    1.393   .     A
C702   C87     1.394   1_556 S
C702   S134    1.768   1_556 S
C703   O728    1.279   .     A
C703   C706    1.444   .     S
C703   O730    1.276   .     A
C704   O731    1.281   .     A
C704   O729    1.285   .     A
C707   F717    1.359   .     S
C708   H722    1.075   .     S
C709   C710    1.420   .     A
C709   C87     1.417   1_556 S
C709   C90     1.428   1_556 S
C710   C714    1.414   .     A
C712   C713    1.406   .     A
C712   C84     1.417   1_556 S
C712   C90     1.431   1_556 S
C713   C714    1.390   .     A
C713   S754    1.775   .     S
C714   F718    1.359   .     S
F715   C766    1.357   .     S
F716   C84     1.356   1_556 S
H723   O734    0.991   .     S
H724   O737    0.991   .     S
H725   O741    0.991   .     S
O727   Zn759   1.930   .     S
O727   Zn756   1.956   .     S
O727   Zn757   1.966   .     S
O727   Zn758   1.938   .     S
O728   Zn757   1.936   .     S
O729   Zn759   1.948   .     S
O730   Zn758   1.949   .     S
O731   Zn756   1.935   .     S
O732   S752    1.503   .     D
O733   S752    1.504   .     D
O734   S959    1.682   .     S
O735   S753    1.504   .     D
O736   S753    1.504   .     D
O737   S1167   1.683   1_545 S
O738   Zn756   1.945   .     S
O739   S754    1.503   .     D
O740   S754    1.504   .     D
O741   S754    1.682   .     S
O742   S755    1.504   .     D
O743   S755    1.503   .     D
O744   H105    0.991   1_556 S
O744   S203    1.682   1_556 S
O745   Zn759   1.943   .     S
O746   Zn757   1.919   .     S
O747   Zn758   1.932   .     S
O748   Zn759   1.936   .     S
O749   Zn756   1.923   .     S
O750   Zn757   1.940   .     S
O751   Zn758   1.938   .     S
S752   O1148   1.682   1_545 S
S752   C1112   1.794   1_545 S
S753   C906    1.784   .     S
S753   O944    1.683   .     S
C760   C766    1.430   .     S
C760   O817    1.268   .     A
C760   O815    1.281   .     A
C761   C775    1.387   .     A
C761   C780    1.409   .     A
C761   H790    1.077   .     S
C762   H789    1.084   .     S
C762   C774    1.385   .     A
C762   C775    1.388   .     A
C763   O816    1.282   .     A
C763   O818    1.278   .     A
C763   C765    1.453   .     S
C764   C776    1.409   .     A
C764   C779    1.428   .     A
C764   C773    1.485   .     S
C765   C628    1.337   1_655 S
C765   F650    1.362   1_655 S
C767   C770    1.460   .     S
C767   C975    1.361   .     S
C767   S1028   1.794   .     S
C768   C769    1.426   .     S
C768   C1181   1.361   1_545 S
C768   S1236   1.784   1_545 S
C769   O819    1.281   .     A
C769   O807    1.272   .     A
C770   O820    1.275   .     A
C770   O814    1.267   .     A
C771   C776    1.393   .     A
C771   C156    1.394   1_556 S
C771   S203    1.768   1_556 S
C772   O797    1.279   .     A
C772   C775    1.444   .     S
C772   O799    1.276   .     A
C773   O800    1.281   .     A
C773   O798    1.285   .     A
C776   F786    1.359   .     S
C777   H791    1.075   .     S
C778   C779    1.420   .     A
C778   C156    1.417   1_556 S
C778   C159    1.428   1_556 S
C779   C783    1.414   .     A
C781   C782    1.406   .     A
C781   C153    1.417   1_556 S
C781   C159    1.431   1_556 S
C782   C783    1.390   .     A
C782   S823    1.775   .     S
C783   F787    1.359   .     S
F784   C628    1.357   1_655 S
F785   C153    1.356   1_556 S
H792   O803    0.991   .     S
H793   O806    0.991   .     S
H794   O810    0.991   .     S
O796   Zn828   1.930   .     S
O796   Zn825   1.956   .     S
O796   Zn826   1.966   .     S
O796   Zn827   1.938   .     S
O797   Zn826   1.936   .     S
O798   Zn828   1.948   .     S
O799   Zn827   1.949   .     S
O800   Zn825   1.935   .     S
O801   S821    1.503   .     D
O802   S821    1.504   .     D
O803   S1028   1.682   .     S
O804   S822    1.504   .     D
O805   S822    1.504   .     D
O806   S1236   1.683   1_545 S
O807   Zn825   1.945   .     S
O808   S823    1.503   .     D
O809   S823    1.504   .     D
O810   S823    1.682   .     S
O811   S824    1.504   .     D
O812   S824    1.503   .     D
O813   H174    0.991   1_556 S
O813   S65     1.682   1_656 S
O814   Zn828   1.943   .     S
O815   Zn826   1.919   .     S
O816   Zn827   1.932   .     S
O817   Zn828   1.936   .     S
O818   Zn825   1.923   .     S
O819   Zn826   1.940   .     S
O820   Zn827   1.938   .     S
S821   O1217   1.682   1_545 S
S821   C1181   1.794   1_545 S
S822   C975    1.784   .     S
S822   O1013   1.683   .     S
C829   C835    1.430   .     S
C829   O886    1.268   .     A
C829   O884    1.281   .     A
C830   C844    1.387   .     A
C830   C849    1.409   .     A
C830   H859    1.077   .     S
C831   H858    1.084   .     S
C831   C843    1.385   .     A
C831   C844    1.388   .     A
C832   O885    1.282   .     A
C832   O887    1.278   .     A
C832   C834    1.453   .     S
C833   C845    1.409   .     A
C833   C848    1.428   .     A
C833   C842    1.485   .     S
C834   C904    1.337   .     S
C834   F926    1.362   .     S
C835   C972    1.337   1_455 S
C835   F991    1.357   1_455 S
C836   C839    1.460   .     S
C836   C1044   1.361   .     S
C836   S1097   1.794   .     S
C837   C838    1.426   .     S
C838   O888    1.281   .     A
C838   O876    1.272   .     A
C839   O889    1.275   .     A
C839   O883    1.267   .     A
C840   C845    1.393   .     A
C840   C225    1.394   1_556 S
C840   S272    1.768   1_556 S
C841   O866    1.279   .     A
C841   C844    1.444   .     S
C841   O868    1.276   .     A
C842   O869    1.281   .     A
C842   O867    1.285   .     A
C845   F855    1.359   .     S
C846   H860    1.075   .     S
C847   C848    1.420   .     A
C847   C225    1.417   1_556 S
C847   C228    1.428   1_556 S
C848   C852    1.414   .     A
C850   C851    1.406   .     A
C850   C222    1.417   1_556 S
C850   C228    1.431   1_556 S
C851   C852    1.390   .     A
C851   S892    1.775   .     S
C852   F856    1.359   .     S
F853   C904    1.357   .     S
F854   C222    1.356   1_556 S
F857   C972    1.362   1_455 S
H861   O872    0.991   .     S
H862   O875    0.991   .     S
H863   O879    0.991   .     S
O865   Zn897   1.930   .     S
O865   Zn894   1.956   .     S
O865   Zn895   1.966   .     S
O865   Zn896   1.938   .     S
O866   Zn895   1.936   .     S
O867   Zn897   1.948   .     S
O868   Zn896   1.949   .     S
O869   Zn894   1.935   .     S
O870   S890    1.503   .     D
O871   S890    1.504   .     D
O872   S1097   1.682   .     S
O873   S891    1.504   .     D
O874   S891    1.504   .     D
O876   Zn894   1.945   .     S
O877   S892    1.503   .     D
O878   S892    1.504   .     D
O879   S892    1.682   .     S
O880   S893    1.504   .     D
O881   S893    1.503   .     D
O882   H243    0.991   1_556 S
O882   S341    1.682   1_556 S
O883   Zn897   1.943   .     S
O884   Zn895   1.919   .     S
O885   Zn896   1.932   .     S
O886   Zn897   1.936   .     S
O887   Zn894   1.923   .     S
O888   Zn895   1.940   .     S
O889   Zn896   1.938   .     S
S891   C1044   1.784   .     S
S891   O1082   1.683   .     S
S893   O399    1.682   1_455 S
C898   C904    1.430   .     S
C898   O955    1.268   .     A
C898   O953    1.281   .     A
C899   C913    1.387   .     A
C899   C918    1.409   .     A
C899   H928    1.077   .     S
C900   H927    1.084   .     S
C900   C912    1.385   .     A
C900   C913    1.388   .     A
C901   O954    1.282   .     A
C901   O956    1.278   .     A
C901   C903    1.453   .     S
C902   C914    1.409   .     A
C902   C917    1.428   .     A
C902   C911    1.485   .     S
C903   C973    1.337   .     S
C903   F995    1.362   .     S
C905   C908    1.460   .     S
C905   C1113   1.361   .     S
C905   S1166   1.794   .     S
C906   C907    1.426   .     S
C907   O957    1.281   .     A
C907   O945    1.272   .     A
C908   O958    1.275   .     A
C908   O952    1.267   .     A
C909   C914    1.393   .     A
C909   C294    1.394   1_556 S
C909   S341    1.768   1_556 S
C910   O935    1.279   .     A
C910   C913    1.444   .     S
C910   O937    1.276   .     A
C911   O938    1.281   .     A
C911   O936    1.285   .     A
C914   F924    1.359   .     S
C915   H929    1.075   .     S
C916   C917    1.420   .     A
C916   C294    1.417   1_556 S
C916   C297    1.428   1_556 S
C917   C921    1.414   .     A
C919   C920    1.406   .     A
C919   C291    1.417   1_556 S
C919   C297    1.431   1_556 S
C920   C921    1.390   .     A
C920   S961    1.775   .     S
C921   F925    1.359   .     S
F922   C973    1.357   .     S
F923   C291    1.356   1_556 S
H930   O941    0.991   .     S
H931   O944    0.991   .     S
H932   O948    0.991   .     S
O934   Zn966   1.930   .     S
O934   Zn963   1.956   .     S
O934   Zn964   1.966   .     S
O934   Zn965   1.938   .     S
O935   Zn964   1.936   .     S
O936   Zn966   1.948   .     S
O937   Zn965   1.949   .     S
O938   Zn963   1.935   .     S
O939   S959    1.503   .     D
O940   S959    1.504   .     D
O941   S1166   1.682   .     S
O942   S960    1.504   .     D
O943   S960    1.504   .     D
O945   Zn963   1.945   .     S
O946   S961    1.503   .     D
O947   S961    1.504   .     D
O948   S961    1.682   .     S
O949   S962    1.504   .     D
O950   S962    1.503   .     D
O951   H312    0.991   1_556 S
O951   S410    1.682   1_556 S
O952   Zn966   1.943   .     S
O953   Zn964   1.919   .     S
O954   Zn965   1.932   .     S
O955   Zn966   1.936   .     S
O956   Zn963   1.923   .     S
O957   Zn964   1.940   .     S
O958   Zn965   1.938   .     S
S960   C1113   1.784   .     S
S960   O1151   1.683   .     S
C967   C973    1.430   .     S
C967   O1024   1.268   .     A
C967   O1022   1.281   .     A
C968   C982    1.387   .     A
C968   C987    1.409   .     A
C968   H997    1.077   .     S
C969   H996    1.084   .     S
C969   C981    1.385   .     A
C969   C982    1.388   .     A
C970   O1023   1.282   .     A
C970   O1025   1.278   .     A
C970   C972    1.453   .     S
C971   C983    1.409   .     A
C971   C986    1.428   .     A
C971   C980    1.485   .     S
C972   C835    1.337   1_655 S
C972   F857    1.362   1_655 S
C974   C977    1.460   .     S
C974   C1182   1.361   .     S
C974   S1235   1.794   .     S
C975   C976    1.426   .     S
C976   O1026   1.281   .     A
C976   O1014   1.272   .     A
C977   O1027   1.275   .     A
C977   O1021   1.267   .     A
C978   C983    1.393   .     A
C978   C363    1.394   1_556 S
C978   S410    1.768   1_556 S
C979   O1004   1.279   .     A
C979   C982    1.444   .     S
C979   O1006   1.276   .     A
C980   O1007   1.281   .     A
C980   O1005   1.285   .     A
C983   F993    1.359   .     S
C984   H998    1.075   .     S
C985   C986    1.420   .     A
C985   C363    1.417   1_556 S
C985   C366    1.428   1_556 S
C986   C990    1.414   .     A
C988   C989    1.406   .     A
C988   C360    1.417   1_556 S
C988   C366    1.431   1_556 S
C989   C990    1.390   .     A
C989   S1030   1.775   .     S
C990   F994    1.359   .     S
F991   C835    1.357   1_655 S
F992   C360    1.356   1_556 S
H999   O1010   0.991   .     S
H1000  O1013   0.991   .     S
H1001  O1017   0.991   .     S
O1003  Zn1035  1.930   .     S
O1003  Zn1032  1.956   .     S
O1003  Zn1033  1.966   .     S
O1003  Zn1034  1.938   .     S
O1004  Zn1033  1.936   .     S
O1005  Zn1035  1.948   .     S
O1006  Zn1034  1.949   .     S
O1007  Zn1032  1.935   .     S
O1008  S1028   1.503   .     D
O1009  S1028   1.504   .     D
O1010  S1235   1.682   .     S
O1011  S1029   1.504   .     D
O1012  S1029   1.504   .     D
O1014  Zn1032  1.945   .     S
O1015  S1030   1.503   .     D
O1016  S1030   1.504   .     D
O1017  S1030   1.682   .     S
O1018  S1031   1.504   .     D
O1019  S1031   1.503   .     D
O1020  H381    0.991   1_556 S
O1020  S272    1.682   1_656 S
O1021  Zn1035  1.943   .     S
O1022  Zn1033  1.919   .     S
O1023  Zn1034  1.932   .     S
O1024  Zn1035  1.936   .     S
O1025  Zn1032  1.923   .     S
O1026  Zn1033  1.940   .     S
O1027  Zn1034  1.938   .     S
S1029  C1182   1.784   .     S
S1029  O1220   1.683   .     S
C1036  C1042   1.430   .     S
C1036  O1093   1.268   .     A
C1036  O1091   1.281   .     A
C1037  C1051   1.387   .     A
C1037  C1056   1.409   .     A
C1037  H1066   1.077   .     S
C1038  H1065   1.084   .     S
C1038  C1050   1.385   .     A
C1038  C1051   1.388   .     A
C1039  O1092   1.282   .     A
C1039  O1094   1.278   .     A
C1039  C1041   1.453   .     S
C1040  C1052   1.409   .     A
C1040  C1055   1.428   .     A
C1040  C1049   1.485   .     S
C1041  C1111   1.337   .     S
C1041  F1133   1.362   .     S
C1042  C1179   1.337   1_455 S
C1042  F1198   1.357   1_455 S
C1043  C1046   1.460   .     S
C1043  C630    1.361   1_565 S
C1043  S683    1.794   1_565 S
C1044  C1045   1.426   .     S
C1045  O1095   1.281   .     A
C1045  O1083   1.272   .     A
C1046  O1096   1.275   .     A
C1046  O1090   1.267   .     A
C1047  C1052   1.393   .     A
C1047  C432    1.394   1_556 S
C1047  S479    1.768   1_556 S
C1048  O1073   1.279   .     A
C1048  C1051   1.444   .     S
C1048  O1075   1.276   .     A
C1049  O1076   1.281   .     A
C1049  O1074   1.285   .     A
C1052  F1062   1.359   .     S
C1053  H1067   1.075   .     S
C1054  C1055   1.420   .     A
C1054  C432    1.417   1_556 S
C1054  C435    1.428   1_556 S
C1055  C1059   1.414   .     A
C1057  C1058   1.406   .     A
C1057  C429    1.417   1_556 S
C1057  C435    1.431   1_556 S
C1058  C1059   1.390   .     A
C1058  S1099   1.775   .     S
C1059  F1063   1.359   .     S
F1060  C1111   1.357   .     S
F1061  C429    1.356   1_556 S
F1064  C1179   1.362   1_455 S
H1068  O1079   0.991   .     S
H1069  O1082   0.991   .     S
H1070  O1086   0.991   .     S
O1072  Zn1104  1.930   .     S
O1072  Zn1101  1.956   .     S
O1072  Zn1102  1.966   .     S
O1072  Zn1103  1.938   .     S
O1073  Zn1102  1.936   .     S
O1074  Zn1104  1.948   .     S
O1075  Zn1103  1.949   .     S
O1076  Zn1101  1.935   .     S
O1077  S1097   1.503   .     D
O1078  S1097   1.504   .     D
O1079  S683    1.682   1_565 S
O1080  S1098   1.504   .     D
O1081  S1098   1.504   .     D
O1083  Zn1101  1.945   .     S
O1084  S1099   1.503   .     D
O1085  S1099   1.504   .     D
O1086  S1099   1.682   .     S
O1087  S1100   1.504   .     D
O1088  S1100   1.503   .     D
O1089  H450    0.991   1_556 S
O1089  S548    1.682   1_556 S
O1090  Zn1104  1.943   .     S
O1091  Zn1102  1.919   .     S
O1092  Zn1103  1.932   .     S
O1093  Zn1104  1.936   .     S
O1094  Zn1101  1.923   .     S
O1095  Zn1102  1.940   .     S
O1096  Zn1103  1.938   .     S
S1098  C630    1.784   1_565 S
S1098  O668    1.683   1_565 S
S1100  O606    1.682   1_455 S
C1105  C1111   1.430   .     S
C1105  O1162   1.268   .     A
C1105  O1160   1.281   .     A
C1106  C1120   1.387   .     A
C1106  C1125   1.409   .     A
C1106  H1135   1.077   .     S
C1107  H1134   1.084   .     S
C1107  C1119   1.385   .     A
C1107  C1120   1.388   .     A
C1108  O1161   1.282   .     A
C1108  O1163   1.278   .     A
C1108  C1110   1.453   .     S
C1109  C1121   1.409   .     A
C1109  C1124   1.428   .     A
C1109  C1118   1.485   .     S
C1110  C1180   1.337   .     S
C1110  F1202   1.362   .     S
C1112  C1115   1.460   .     S
C1112  C699    1.361   1_565 S
C1112  S752    1.794   1_565 S
C1113  C1114   1.426   .     S
C1114  O1164   1.281   .     A
C1114  O1152   1.272   .     A
C1115  O1165   1.275   .     A
C1115  O1159   1.267   .     A
C1116  C1121   1.393   .     A
C1116  C501    1.394   1_556 S
C1116  S548    1.768   1_556 S
C1117  O1142   1.279   .     A
C1117  C1120   1.444   .     S
C1117  O1144   1.276   .     A
C1118  O1145   1.281   .     A
C1118  O1143   1.285   .     A
C1121  F1131   1.359   .     S
C1122  H1136   1.075   .     S
C1123  C1124   1.420   .     A
C1123  C501    1.417   1_556 S
C1123  C504    1.428   1_556 S
C1124  C1128   1.414   .     A
C1126  C1127   1.406   .     A
C1126  C498    1.417   1_556 S
C1126  C504    1.431   1_556 S
C1127  C1128   1.390   .     A
C1127  S1168   1.775   .     S
C1128  F1132   1.359   .     S
F1129  C1180   1.357   .     S
F1130  C498    1.356   1_556 S
H1137  O1148   0.991   .     S
H1138  O1151   0.991   .     S
H1139  O1155   0.991   .     S
O1141  Zn1173  1.930   .     S
O1141  Zn1170  1.956   .     S
O1141  Zn1171  1.966   .     S
O1141  Zn1172  1.938   .     S
O1142  Zn1171  1.936   .     S
O1143  Zn1173  1.948   .     S
O1144  Zn1172  1.949   .     S
O1145  Zn1170  1.935   .     S
O1146  S1166   1.503   .     D
O1147  S1166   1.504   .     D
O1148  S752    1.682   1_565 S
O1149  S1167   1.504   .     D
O1150  S1167   1.504   .     D
O1152  Zn1170  1.945   .     S
O1153  S1168   1.503   .     D
O1154  S1168   1.504   .     D
O1155  S1168   1.682   .     S
O1156  S1169   1.504   .     D
O1157  S1169   1.503   .     D
O1158  H519    0.991   1_556 S
O1158  S617    1.682   1_556 S
O1159  Zn1173  1.943   .     S
O1160  Zn1171  1.919   .     S
O1161  Zn1172  1.932   .     S
O1162  Zn1173  1.936   .     S
O1163  Zn1170  1.923   .     S
O1164  Zn1171  1.940   .     S
O1165  Zn1172  1.938   .     S
S1167  C699    1.784   1_565 S
S1167  O737    1.683   1_565 S
C1174  C1180   1.430   .     S
C1174  O1231   1.268   .     A
C1174  O1229   1.281   .     A
C1175  C1189   1.387   .     A
C1175  C1194   1.409   .     A
C1175  H1204   1.077   .     S
C1176  H1203   1.084   .     S
C1176  C1188   1.385   .     A
C1176  C1189   1.388   .     A
C1177  O1230   1.282   .     A
C1177  O1232   1.278   .     A
C1177  C1179   1.453   .     S
C1178  C1190   1.409   .     A
C1178  C1193   1.428   .     A
C1178  C1187   1.485   .     S
C1179  C1042   1.337   1_655 S
C1179  F1064   1.362   1_655 S
C1181  C1184   1.460   .     S
C1181  C768    1.361   1_565 S
C1181  S821    1.794   1_565 S
C1182  C1183   1.426   .     S
C1183  O1233   1.281   .     A
C1183  O1221   1.272   .     A
C1184  O1234   1.275   .     A
C1184  O1228   1.267   .     A
C1185  C1190   1.393   .     A
C1185  C570    1.394   1_556 S
C1185  S617    1.768   1_556 S
C1186  O1211   1.279   .     A
C1186  C1189   1.444   .     S
C1186  O1213   1.276   .     A
C1187  O1214   1.281   .     A
C1187  O1212   1.285   .     A
C1190  F1200   1.359   .     S
C1191  H1205   1.075   .     S
C1192  C1193   1.420   .     A
C1192  C570    1.417   1_556 S
C1192  C573    1.428   1_556 S
C1193  C1197   1.414   .     A
C1195  C1196   1.406   .     A
C1195  C567    1.417   1_556 S
C1195  C573    1.431   1_556 S
C1196  C1197   1.390   .     A
C1196  S1237   1.775   .     S
C1197  F1201   1.359   .     S
F1198  C1042   1.357   1_655 S
F1199  C567    1.356   1_556 S
H1206  O1217   0.991   .     S
H1207  O1220   0.991   .     S
H1208  O1224   0.991   .     S
O1210  Zn1242  1.930   .     S
O1210  Zn1239  1.956   .     S
O1210  Zn1240  1.966   .     S
O1210  Zn1241  1.938   .     S
O1211  Zn1240  1.936   .     S
O1212  Zn1242  1.948   .     S
O1213  Zn1241  1.949   .     S
O1214  Zn1239  1.935   .     S
O1215  S1235   1.503   .     D
O1216  S1235   1.504   .     D
O1217  S821    1.682   1_565 S
O1218  S1236   1.504   .     D
O1219  S1236   1.504   .     D
O1221  Zn1239  1.945   .     S
O1222  S1237   1.503   .     D
O1223  S1237   1.504   .     D
O1224  S1237   1.682   .     S
O1225  S1238   1.504   .     D
O1226  S1238   1.503   .     D
O1227  H588    0.991   1_556 S
O1227  S479    1.682   1_656 S
O1228  Zn1242  1.943   .     S
O1229  Zn1240  1.919   .     S
O1230  Zn1241  1.932   .     S
O1231  Zn1242  1.936   .     S
O1232  Zn1239  1.923   .     S
O1233  Zn1240  1.940   .     S
O1234  Zn1241  1.938   .     S
S1236  C768    1.784   1_565 S
S1236  O806    1.683   1_565 S
