data_str_m1_o1_o2_pcu_sym.62
_audit_creation_date              2020-01-03
_audit_creation_method            'Materials Studio'
_symmetry_space_group_name_H-M    'P1'
_symmetry_Int_Tables_number       1
_symmetry_cell_setting            triclinic
loop_
_symmetry_equiv_pos_as_xyz
  x,y,z
_cell_length_a                    36.5541
_cell_length_b                    36.5541
_cell_length_c                    34.5726
_cell_angle_alpha                 90.0000
_cell_angle_beta                  90.0000
_cell_angle_gamma                 89.9999
loop_
_atom_site_label
_atom_site_type_symbol
_atom_site_fract_x
_atom_site_fract_y
_atom_site_fract_z
_atom_site_U_iso_or_equiv
_atom_site_adp_type
_atom_site_occupancy
Br1    Br    0.17273   0.39162   0.16942   0.00000  Uiso   1.00
Br2    Br    0.39709   0.46140   0.27148   0.00000  Uiso   1.00
Br3    Br    0.03860   0.39709   0.72852   0.00000  Uiso   1.00
Br4    Br    0.39161   0.17274   0.16943   0.00000  Uiso   1.00
Br5    Br    0.32726   0.39161   0.83057   0.00000  Uiso   1.00
Br6    Br    0.10292   0.03860   0.27148   0.00000  Uiso   1.00
Br7    Br    0.46140   0.10292   0.72852   0.00000  Uiso   1.00
Br8    Br    0.10838   0.32727   0.16942   0.00000  Uiso   1.00
Br9    Br    0.35292   0.21140   0.77148   0.00000  Uiso   1.00
Br10   Br    0.07727   0.35838   0.33058   0.00000  Uiso   1.00
Br11   Br    0.35839   0.42274   0.66943   0.00000  Uiso   1.00
Br12   Br    0.39709   0.03860   0.72852   0.00000  Uiso   1.00
Br13   Br    0.21140   0.14708   0.22852   0.00000  Uiso   1.00
Br14   Br    0.14709   0.28860   0.77148   0.00000  Uiso   1.00
Br15   Br    0.42274   0.14161   0.33057   0.00000  Uiso   1.00
Br16   Br    0.14161   0.07726   0.66943   0.00000  Uiso   1.00
Br17   Br    0.28860   0.35292   0.22852   0.00000  Uiso   1.00
Br18   Br    0.35292   0.28860   0.22852   0.00000  Uiso   1.00
Br19   Br    0.07726   0.14161   0.66943   0.00000  Uiso   1.00
Br20   Br    0.35839   0.07726   0.33057   0.00000  Uiso   1.00
Br21   Br    0.21140   0.35292   0.77148   0.00000  Uiso   1.00
Br22   Br    0.14709   0.21140   0.22852   0.00000  Uiso   1.00
Br23   Br    0.03860   0.10292   0.27148   0.00000  Uiso   1.00
Br24   Br    0.42274   0.35839   0.66943   0.00000  Uiso   1.00
Br25   Br    0.14162   0.42273   0.33058   0.00000  Uiso   1.00
Br26   Br    0.28860   0.14709   0.77148   0.00000  Uiso   1.00
Br27   Br    0.39161   0.32726   0.83057   0.00000  Uiso   1.00
Br28   Br    0.32726   0.10839   0.16943   0.00000  Uiso   1.00
Br29   Br    0.10292   0.46140   0.72852   0.00000  Uiso   1.00
Br30   Br    0.46140   0.39709   0.27148   0.00000  Uiso   1.00
Br31   Br    0.10839   0.17274   0.83057   0.00000  Uiso   1.00
Br32   Br    0.17274   0.10839   0.83057   0.00000  Uiso   1.00
C33    C     0.21870   0.48900   0.04181   0.00000  Uiso   1.00
C34    C     0.03130   0.26100   0.45819   0.00000  Uiso   1.00
C35    C     0.34808   0.40192   0.75000   0.00000  Uiso   1.00
C36    C     0.40192   0.15192   0.25000   0.00000  Uiso   1.00
C37    C     0.09808   0.34808   0.75000   0.00000  Uiso   1.00
C38    C     0.34808   0.40192   0.25000   0.00000  Uiso   1.00
C39    C     0.15192   0.09808   0.75000   0.00000  Uiso   1.00
C40    C     0.09808   0.15192   0.75000   0.00000  Uiso   1.00
C41    C     0.40192   0.34808   0.25000   0.00000  Uiso   1.00
C42    C     0.15192   0.40192   0.75000   0.00000  Uiso   1.00
C43    C     0.34808   0.09808   0.25000   0.00000  Uiso   1.00
C44    C     0.40192   0.34808   0.75000   0.00000  Uiso   1.00
C45    C     0.26100   0.46870   0.54181   0.00000  Uiso   1.00
C46    C     0.09808   0.15192   0.25000   0.00000  Uiso   1.00
C47    C     0.34808   0.09808   0.75000   0.00000  Uiso   1.00
C48    C     0.15192   0.40192   0.25000   0.00000  Uiso   1.00
C49    C     0.25000   0.00000   0.10242   0.00000  Uiso   1.00
C50    C     0.25000   0.00000   0.89758   0.00000  Uiso   1.00
C51    C     0.00000   0.25000   0.10242   0.00000  Uiso   1.00
C52    C     0.00000   0.25000   0.89758   0.00000  Uiso   1.00
C53    C     0.00000   0.25000   0.60242   0.00000  Uiso   1.00
C54    C     0.00000   0.25000   0.39758   0.00000  Uiso   1.00
C55    C     0.25000   0.00000   0.60242   0.00000  Uiso   1.00
C56    C     0.26100   0.03130   0.45819   0.00000  Uiso   1.00
C57    C     0.25000   0.00000   0.39758   0.00000  Uiso   1.00
C58    C     0.03130   0.23900   0.54181   0.00000  Uiso   1.00
C59    C     0.46870   0.23900   0.45819   0.00000  Uiso   1.00
C60    C     0.23900   0.03130   0.54181   0.00000  Uiso   1.00
C61    C     0.23900   0.46870   0.45819   0.00000  Uiso   1.00
C62    C     0.21863   0.48924   0.08206   0.00000  Uiso   1.00
C63    C     0.28137   0.48924   0.91794   0.00000  Uiso   1.00
C64    C     0.48924   0.21863   0.08206   0.00000  Uiso   1.00
C65    C     0.28130   0.48900   0.95819   0.00000  Uiso   1.00
C66    C     0.48924   0.28137   0.91794   0.00000  Uiso   1.00
C67    C     0.28137   0.01076   0.08206   0.00000  Uiso   1.00
C68    C     0.21863   0.01076   0.91794   0.00000  Uiso   1.00
C69    C     0.01076   0.28137   0.08206   0.00000  Uiso   1.00
C70    C     0.01076   0.21863   0.91794   0.00000  Uiso   1.00
C71    C     0.46863   0.26076   0.58206   0.00000  Uiso   1.00
C72    C     0.03137   0.26076   0.41794   0.00000  Uiso   1.00
C73    C     0.26076   0.46863   0.58206   0.00000  Uiso   1.00
C74    C     0.26076   0.03137   0.41794   0.00000  Uiso   1.00
C75    C     0.03137   0.23924   0.58206   0.00000  Uiso   1.00
C76    C     0.48900   0.21870   0.04181   0.00000  Uiso   1.00
C77    C     0.46863   0.23924   0.41794   0.00000  Uiso   1.00
C78    C     0.23924   0.03137   0.58206   0.00000  Uiso   1.00
C79    C     0.23924   0.46863   0.41794   0.00000  Uiso   1.00
C80    C     0.25000   0.00000   0.02132   0.00000  Uiso   1.00
C81    C     0.25000   0.00000   0.97868   0.00000  Uiso   1.00
C82    C     0.00000   0.25000   0.02132   0.00000  Uiso   1.00
C83    C     0.00000   0.25000   0.97868   0.00000  Uiso   1.00
C84    C     0.00000   0.25000   0.52132   0.00000  Uiso   1.00
C85    C     0.00000   0.25000   0.47868   0.00000  Uiso   1.00
C86    C     0.25000   0.00000   0.52132   0.00000  Uiso   1.00
C87    C     0.48900   0.28130   0.95819   0.00000  Uiso   1.00
C88    C     0.25000   0.00000   0.47868   0.00000  Uiso   1.00
C89    C     0.25000   0.00000   0.35524   0.00000  Uiso   1.00
C90    C     0.25000   0.00000   0.64476   0.00000  Uiso   1.00
C91    C     0.00000   0.25000   0.35524   0.00000  Uiso   1.00
C92    C     0.00000   0.25000   0.64476   0.00000  Uiso   1.00
C93    C     0.00000   0.25000   0.85524   0.00000  Uiso   1.00
C94    C     0.00000   0.25000   0.14476   0.00000  Uiso   1.00
C95    C     0.25000   0.00000   0.85524   0.00000  Uiso   1.00
C96    C     0.25000   0.00000   0.14476   0.00000  Uiso   1.00
C97    C     0.17998   0.07002   0.25000   0.00000  Uiso   1.00
C98    C     0.28130   0.01100   0.04181   0.00000  Uiso   1.00
C99    C     0.32002   0.42998   0.75000   0.00000  Uiso   1.00
C100   C     0.42998   0.17998   0.25000   0.00000  Uiso   1.00
C101   C     0.07002   0.32002   0.75000   0.00000  Uiso   1.00
C102   C     0.32002   0.42998   0.25000   0.00000  Uiso   1.00
C103   C     0.17998   0.07002   0.75000   0.00000  Uiso   1.00
C104   C     0.07002   0.32002   0.25000   0.00000  Uiso   1.00
C105   C     0.42998   0.17998   0.75000   0.00000  Uiso   1.00
C106   C     0.17998   0.42998   0.75000   0.00000  Uiso   1.00
C107   C     0.32002   0.07002   0.25000   0.00000  Uiso   1.00
C108   C     0.42998   0.32002   0.75000   0.00000  Uiso   1.00
C109   C     0.21870   0.01100   0.95819   0.00000  Uiso   1.00
C110   C     0.07002   0.17998   0.25000   0.00000  Uiso   1.00
C111   C     0.32002   0.07002   0.75000   0.00000  Uiso   1.00
C112   C     0.17998   0.42998   0.25000   0.00000  Uiso   1.00
C113   C     0.07002   0.17998   0.75000   0.00000  Uiso   1.00
C114   C     0.42998   0.32002   0.25000   0.00000  Uiso   1.00
C115   C     0.14459   0.38246   0.21576   0.00000  Uiso   1.00
C116   C     0.38451   0.08844   0.74171   0.00000  Uiso   1.00
C117   C     0.08844   0.11549   0.25829   0.00000  Uiso   1.00
C118   C     0.38246   0.35541   0.78424   0.00000  Uiso   1.00
C119   C     0.35541   0.11754   0.21576   0.00000  Uiso   1.00
C120   C     0.01100   0.28130   0.04181   0.00000  Uiso   1.00
C121   C     0.11549   0.41156   0.74171   0.00000  Uiso   1.00
C122   C     0.41156   0.38451   0.25829   0.00000  Uiso   1.00
C123   C     0.11755   0.14459   0.78424   0.00000  Uiso   1.00
C124   C     0.14459   0.11755   0.78424   0.00000  Uiso   1.00
C125   C     0.38451   0.41156   0.25829   0.00000  Uiso   1.00
C126   C     0.08844   0.38451   0.74171   0.00000  Uiso   1.00
C127   C     0.38246   0.14459   0.21576   0.00000  Uiso   1.00
C128   C     0.35541   0.38246   0.78424   0.00000  Uiso   1.00
C129   C     0.11549   0.08844   0.25829   0.00000  Uiso   1.00
C130   C     0.41156   0.11549   0.74171   0.00000  Uiso   1.00
C131   C     0.01100   0.21870   0.95819   0.00000  Uiso   1.00
C132   C     0.11754   0.35541   0.21576   0.00000  Uiso   1.00
C133   C     0.36549   0.16156   0.75829   0.00000  Uiso   1.00
C134   C     0.10541   0.36754   0.28424   0.00000  Uiso   1.00
C135   C     0.36755   0.39459   0.71576   0.00000  Uiso   1.00
C136   C     0.16156   0.13451   0.24171   0.00000  Uiso   1.00
C137   C     0.13451   0.33844   0.75829   0.00000  Uiso   1.00
C138   C     0.39459   0.13246   0.28424   0.00000  Uiso   1.00
C139   C     0.13245   0.10541   0.71576   0.00000  Uiso   1.00
C140   C     0.33844   0.36549   0.24171   0.00000  Uiso   1.00
C141   C     0.36549   0.33844   0.24171   0.00000  Uiso   1.00
C142   C     0.46870   0.26100   0.54181   0.00000  Uiso   1.00
C143   C     0.10541   0.13245   0.71576   0.00000  Uiso   1.00
C144   C     0.36754   0.10541   0.28424   0.00000  Uiso   1.00
C145   C     0.16156   0.36549   0.75829   0.00000  Uiso   1.00
C146   C     0.13451   0.16156   0.24171   0.00000  Uiso   1.00
C147   C     0.39459   0.36755   0.71576   0.00000  Uiso   1.00
C148   C     0.13246   0.39459   0.28424   0.00000  Uiso   1.00
C149   C     0.33844   0.13451   0.75829   0.00000  Uiso   1.00
C150   C     0.09808   0.34808   0.25000   0.00000  Uiso   1.00
C151   C     0.40192   0.15192   0.75000   0.00000  Uiso   1.00
C152   C     0.15192   0.09808   0.25000   0.00000  Uiso   1.00
H153   H     0.19443   0.47976   0.02676   0.00000  Uiso   1.00
H154   H     0.05557   0.27024   0.47324   0.00000  Uiso   1.00
H155   H     0.27024   0.44443   0.52676   0.00000  Uiso   1.00
H156   H     0.27024   0.05557   0.47324   0.00000  Uiso   1.00
H157   H     0.05557   0.22976   0.52676   0.00000  Uiso   1.00
H158   H     0.44443   0.22976   0.47324   0.00000  Uiso   1.00
H159   H     0.22976   0.05557   0.52676   0.00000  Uiso   1.00
H160   H     0.22976   0.44443   0.47324   0.00000  Uiso   1.00
H161   H     0.19421   0.48052   0.09723   0.00000  Uiso   1.00
H162   H     0.30579   0.48052   0.90277   0.00000  Uiso   1.00
H163   H     0.48052   0.19421   0.09723   0.00000  Uiso   1.00
H164   H     0.30557   0.47976   0.97324   0.00000  Uiso   1.00
H165   H     0.48052   0.30579   0.90277   0.00000  Uiso   1.00
H166   H     0.30579   0.01949   0.09723   0.00000  Uiso   1.00
H167   H     0.19421   0.01948   0.90277   0.00000  Uiso   1.00
H168   H     0.01949   0.30579   0.09723   0.00000  Uiso   1.00
H169   H     0.01948   0.19421   0.90277   0.00000  Uiso   1.00
H170   H     0.44421   0.26948   0.59723   0.00000  Uiso   1.00
H171   H     0.05579   0.26949   0.40277   0.00000  Uiso   1.00
H172   H     0.26948   0.44421   0.59723   0.00000  Uiso   1.00
H173   H     0.26949   0.05579   0.40277   0.00000  Uiso   1.00
H174   H     0.05579   0.23052   0.59723   0.00000  Uiso   1.00
H175   H     0.47976   0.19443   0.02676   0.00000  Uiso   1.00
H176   H     0.44421   0.23052   0.40277   0.00000  Uiso   1.00
H177   H     0.23052   0.05579   0.59723   0.00000  Uiso   1.00
H178   H     0.23052   0.44421   0.40277   0.00000  Uiso   1.00
H179   H     0.47976   0.30557   0.97324   0.00000  Uiso   1.00
H180   H     0.30557   0.02024   0.02676   0.00000  Uiso   1.00
H181   H     0.19443   0.02024   0.97324   0.00000  Uiso   1.00
H182   H     0.02024   0.30557   0.02676   0.00000  Uiso   1.00
H183   H     0.02024   0.19443   0.97324   0.00000  Uiso   1.00
H184   H     0.44443   0.27024   0.52676   0.00000  Uiso   1.00
O185   O     0.25000   0.00000   0.25000   0.00000  Uiso   1.00
O186   O     0.25000   0.46964   0.66317   0.00000  Uiso   1.00
O187   O     0.46964   0.25000   0.33683   0.00000  Uiso   1.00
O188   O     0.03036   0.25000   0.66317   0.00000  Uiso   1.00
O189   O     0.00000   0.21964   0.83683   0.00000  Uiso   1.00
O190   O     0.00000   0.28036   0.16317   0.00000  Uiso   1.00
O191   O     0.28036   0.00000   0.83683   0.00000  Uiso   1.00
O192   O     0.21964   0.00000   0.16317   0.00000  Uiso   1.00
O193   O     0.00000   0.28036   0.83683   0.00000  Uiso   1.00
O194   O     0.00000   0.21964   0.16317   0.00000  Uiso   1.00
O195   O     0.21964   0.00000   0.83683   0.00000  Uiso   1.00
O196   O     0.25000   0.00000   0.75000   0.00000  Uiso   1.00
O197   O     0.28036   0.00000   0.16317   0.00000  Uiso   1.00
O198   O     0.20726   0.07307   0.27282   0.00000  Uiso   1.00
O199   O     0.29275   0.42693   0.72718   0.00000  Uiso   1.00
O200   O     0.42693   0.20726   0.27282   0.00000  Uiso   1.00
O201   O     0.07307   0.29275   0.72718   0.00000  Uiso   1.00
O202   O     0.29275   0.42693   0.27282   0.00000  Uiso   1.00
O203   O     0.20726   0.07307   0.72718   0.00000  Uiso   1.00
O204   O     0.07307   0.29275   0.27282   0.00000  Uiso   1.00
O205   O     0.42693   0.20726   0.72718   0.00000  Uiso   1.00
O206   O     0.20726   0.42693   0.72718   0.00000  Uiso   1.00
O207   O     0.00000   0.25000   0.25000   0.00000  Uiso   1.00
O208   O     0.29275   0.07307   0.27282   0.00000  Uiso   1.00
O209   O     0.42693   0.29275   0.72718   0.00000  Uiso   1.00
O210   O     0.07307   0.20726   0.27282   0.00000  Uiso   1.00
O211   O     0.29275   0.07307   0.72718   0.00000  Uiso   1.00
O212   O     0.20726   0.42693   0.27282   0.00000  Uiso   1.00
O213   O     0.07307   0.20726   0.72718   0.00000  Uiso   1.00
O214   O     0.42693   0.29275   0.27282   0.00000  Uiso   1.00
O215   O     0.45726   0.32307   0.77282   0.00000  Uiso   1.00
O216   O     0.04275   0.17693   0.22718   0.00000  Uiso   1.00
O217   O     0.17693   0.45726   0.77282   0.00000  Uiso   1.00
O218   O     0.00000   0.25000   0.75000   0.00000  Uiso   1.00
O219   O     0.32307   0.04275   0.22718   0.00000  Uiso   1.00
O220   O     0.04275   0.17693   0.77282   0.00000  Uiso   1.00
O221   O     0.45726   0.32307   0.22718   0.00000  Uiso   1.00
O222   O     0.32307   0.04275   0.77282   0.00000  Uiso   1.00
O223   O     0.17693   0.45726   0.22718   0.00000  Uiso   1.00
O224   O     0.45726   0.17693   0.22718   0.00000  Uiso   1.00
O225   O     0.04275   0.32307   0.77282   0.00000  Uiso   1.00
O226   O     0.17693   0.04275   0.22718   0.00000  Uiso   1.00
O227   O     0.32307   0.45726   0.77282   0.00000  Uiso   1.00
O228   O     0.04275   0.32307   0.22718   0.00000  Uiso   1.00
O229   O     0.25000   0.46964   0.33683   0.00000  Uiso   1.00
O230   O     0.45726   0.17693   0.77282   0.00000  Uiso   1.00
O231   O     0.32307   0.45726   0.22718   0.00000  Uiso   1.00
O232   O     0.17693   0.04275   0.77282   0.00000  Uiso   1.00
O233   O     0.25000   0.03036   0.66317   0.00000  Uiso   1.00
O234   O     0.03036   0.25000   0.33683   0.00000  Uiso   1.00
O235   O     0.46964   0.25000   0.66317   0.00000  Uiso   1.00
O236   O     0.25000   0.03036   0.33683   0.00000  Uiso   1.00
Zn237  Zn    0.20660   0.00000   0.21760   0.00000  Uiso   1.00
Zn238  Zn    0.04340   0.25000   0.28240   0.00000  Uiso   1.00
Zn239  Zn    0.25000   0.45660   0.71760   0.00000  Uiso   1.00
Zn240  Zn    0.25000   0.04340   0.28240   0.00000  Uiso   1.00
Zn241  Zn    0.04340   0.25000   0.71760   0.00000  Uiso   1.00
Zn242  Zn    0.45660   0.25000   0.28240   0.00000  Uiso   1.00
Zn243  Zn    0.25000   0.04340   0.71760   0.00000  Uiso   1.00
Zn244  Zn    0.25000   0.45660   0.28240   0.00000  Uiso   1.00
Zn245  Zn    0.29340   0.00000   0.78240   0.00000  Uiso   1.00
Zn246  Zn    0.00000   0.20660   0.21760   0.00000  Uiso   1.00
Zn247  Zn    0.00000   0.29340   0.78240   0.00000  Uiso   1.00
Zn248  Zn    0.29340   0.00000   0.21760   0.00000  Uiso   1.00
Zn249  Zn    0.20660   0.00000   0.78240   0.00000  Uiso   1.00
Zn250  Zn    0.00000   0.29340   0.21760   0.00000  Uiso   1.00
Zn251  Zn    0.00000   0.20660   0.78240   0.00000  Uiso   1.00
Zn252  Zn    0.45660   0.25000   0.71760   0.00000  Uiso   1.00
Br253  Br    0.67273   0.39162   0.16942   0.00000  Uiso   1.00
Br254  Br    0.89709   0.46140   0.27148   0.00000  Uiso   1.00
Br255  Br    0.53860   0.39709   0.72852   0.00000  Uiso   1.00
Br256  Br    0.89161   0.17274   0.16943   0.00000  Uiso   1.00
Br257  Br    0.82726   0.39161   0.83057   0.00000  Uiso   1.00
Br258  Br    0.60292   0.03860   0.27148   0.00000  Uiso   1.00
Br259  Br    0.96140   0.10292   0.72852   0.00000  Uiso   1.00
Br260  Br    0.60838   0.32727   0.16942   0.00000  Uiso   1.00
Br261  Br    0.85292   0.21140   0.77148   0.00000  Uiso   1.00
Br262  Br    0.57727   0.35838   0.33058   0.00000  Uiso   1.00
Br263  Br    0.85839   0.42274   0.66943   0.00000  Uiso   1.00
Br264  Br    0.89709   0.03860   0.72852   0.00000  Uiso   1.00
Br265  Br    0.71140   0.14708   0.22852   0.00000  Uiso   1.00
Br266  Br    0.64709   0.28860   0.77148   0.00000  Uiso   1.00
Br267  Br    0.92274   0.14161   0.33057   0.00000  Uiso   1.00
Br268  Br    0.64161   0.07726   0.66943   0.00000  Uiso   1.00
Br269  Br    0.78860   0.35292   0.22852   0.00000  Uiso   1.00
Br270  Br    0.85292   0.28860   0.22852   0.00000  Uiso   1.00
Br271  Br    0.57726   0.14161   0.66943   0.00000  Uiso   1.00
Br272  Br    0.85839   0.07726   0.33057   0.00000  Uiso   1.00
Br273  Br    0.71140   0.35292   0.77148   0.00000  Uiso   1.00
Br274  Br    0.64709   0.21140   0.22852   0.00000  Uiso   1.00
Br275  Br    0.53860   0.10292   0.27148   0.00000  Uiso   1.00
Br276  Br    0.92274   0.35839   0.66943   0.00000  Uiso   1.00
Br277  Br    0.64162   0.42273   0.33058   0.00000  Uiso   1.00
Br278  Br    0.78860   0.14709   0.77148   0.00000  Uiso   1.00
Br279  Br    0.89161   0.32726   0.83057   0.00000  Uiso   1.00
Br280  Br    0.82726   0.10839   0.16943   0.00000  Uiso   1.00
Br281  Br    0.60292   0.46140   0.72852   0.00000  Uiso   1.00
Br282  Br    0.96140   0.39709   0.27148   0.00000  Uiso   1.00
Br283  Br    0.60839   0.17274   0.83057   0.00000  Uiso   1.00
Br284  Br    0.67274   0.10839   0.83057   0.00000  Uiso   1.00
C285   C     0.71870   0.48900   0.04181   0.00000  Uiso   1.00
C286   C     0.53130   0.26100   0.45819   0.00000  Uiso   1.00
C287   C     0.84808   0.40192   0.75000   0.00000  Uiso   1.00
C288   C     0.90192   0.15192   0.25000   0.00000  Uiso   1.00
C289   C     0.59808   0.34808   0.75000   0.00000  Uiso   1.00
C290   C     0.84808   0.40192   0.25000   0.00000  Uiso   1.00
C291   C     0.65192   0.09808   0.75000   0.00000  Uiso   1.00
C292   C     0.59808   0.15192   0.75000   0.00000  Uiso   1.00
C293   C     0.90192   0.34808   0.25000   0.00000  Uiso   1.00
C294   C     0.65192   0.40192   0.75000   0.00000  Uiso   1.00
C295   C     0.84808   0.09808   0.25000   0.00000  Uiso   1.00
C296   C     0.90192   0.34808   0.75000   0.00000  Uiso   1.00
C297   C     0.76100   0.46870   0.54181   0.00000  Uiso   1.00
C298   C     0.59808   0.15192   0.25000   0.00000  Uiso   1.00
C299   C     0.84808   0.09808   0.75000   0.00000  Uiso   1.00
C300   C     0.65192   0.40192   0.25000   0.00000  Uiso   1.00
C301   C     0.75000   0.00000   0.10242   0.00000  Uiso   1.00
C302   C     0.75000   0.00000   0.89758   0.00000  Uiso   1.00
C303   C     0.50000   0.25000   0.10242   0.00000  Uiso   1.00
C304   C     0.50000   0.25000   0.89758   0.00000  Uiso   1.00
C305   C     0.50000   0.25000   0.60242   0.00000  Uiso   1.00
C306   C     0.50000   0.25000   0.39758   0.00000  Uiso   1.00
C307   C     0.75000   0.00000   0.60242   0.00000  Uiso   1.00
C308   C     0.76100   0.03130   0.45819   0.00000  Uiso   1.00
C309   C     0.75000   0.00000   0.39758   0.00000  Uiso   1.00
C310   C     0.53130   0.23900   0.54181   0.00000  Uiso   1.00
C311   C     0.96870   0.23900   0.45819   0.00000  Uiso   1.00
C312   C     0.73900   0.03130   0.54181   0.00000  Uiso   1.00
C313   C     0.73900   0.46870   0.45819   0.00000  Uiso   1.00
C314   C     0.71863   0.48924   0.08206   0.00000  Uiso   1.00
C315   C     0.78137   0.48924   0.91794   0.00000  Uiso   1.00
C316   C     0.98924   0.21863   0.08206   0.00000  Uiso   1.00
C317   C     0.78130   0.48900   0.95819   0.00000  Uiso   1.00
C318   C     0.98924   0.28137   0.91794   0.00000  Uiso   1.00
C319   C     0.78137   0.01076   0.08206   0.00000  Uiso   1.00
C320   C     0.71863   0.01076   0.91794   0.00000  Uiso   1.00
C321   C     0.51076   0.28137   0.08206   0.00000  Uiso   1.00
C322   C     0.51076   0.21863   0.91794   0.00000  Uiso   1.00
C323   C     0.96863   0.26076   0.58206   0.00000  Uiso   1.00
C324   C     0.53137   0.26076   0.41794   0.00000  Uiso   1.00
C325   C     0.76076   0.46863   0.58206   0.00000  Uiso   1.00
C326   C     0.76076   0.03137   0.41794   0.00000  Uiso   1.00
C327   C     0.53137   0.23924   0.58206   0.00000  Uiso   1.00
C328   C     0.98900   0.21870   0.04181   0.00000  Uiso   1.00
C329   C     0.96863   0.23924   0.41794   0.00000  Uiso   1.00
C330   C     0.73924   0.03137   0.58206   0.00000  Uiso   1.00
C331   C     0.73924   0.46863   0.41794   0.00000  Uiso   1.00
C332   C     0.75000   0.00000   0.02132   0.00000  Uiso   1.00
C333   C     0.75000   0.00000   0.97868   0.00000  Uiso   1.00
C334   C     0.50000   0.25000   0.02132   0.00000  Uiso   1.00
C335   C     0.50000   0.25000   0.97868   0.00000  Uiso   1.00
C336   C     0.50000   0.25000   0.52132   0.00000  Uiso   1.00
C337   C     0.50000   0.25000   0.47868   0.00000  Uiso   1.00
C338   C     0.75000   0.00000   0.52132   0.00000  Uiso   1.00
C339   C     0.98900   0.28130   0.95819   0.00000  Uiso   1.00
C340   C     0.75000   0.00000   0.47868   0.00000  Uiso   1.00
C341   C     0.75000   0.00000   0.35524   0.00000  Uiso   1.00
C342   C     0.75000   0.00000   0.64476   0.00000  Uiso   1.00
C343   C     0.50000   0.25000   0.35524   0.00000  Uiso   1.00
C344   C     0.50000   0.25000   0.64476   0.00000  Uiso   1.00
C345   C     0.50000   0.25000   0.85524   0.00000  Uiso   1.00
C346   C     0.50000   0.25000   0.14476   0.00000  Uiso   1.00
C347   C     0.75000   0.00000   0.85524   0.00000  Uiso   1.00
C348   C     0.75000   0.00000   0.14476   0.00000  Uiso   1.00
C349   C     0.67998   0.07002   0.25000   0.00000  Uiso   1.00
C350   C     0.78130   0.01100   0.04181   0.00000  Uiso   1.00
C351   C     0.82002   0.42998   0.75000   0.00000  Uiso   1.00
C352   C     0.92998   0.17998   0.25000   0.00000  Uiso   1.00
C353   C     0.57002   0.32002   0.75000   0.00000  Uiso   1.00
C354   C     0.82002   0.42998   0.25000   0.00000  Uiso   1.00
C355   C     0.67998   0.07002   0.75000   0.00000  Uiso   1.00
C356   C     0.57002   0.32002   0.25000   0.00000  Uiso   1.00
C357   C     0.92998   0.17998   0.75000   0.00000  Uiso   1.00
C358   C     0.67998   0.42998   0.75000   0.00000  Uiso   1.00
C359   C     0.82002   0.07002   0.25000   0.00000  Uiso   1.00
C360   C     0.92998   0.32002   0.75000   0.00000  Uiso   1.00
C361   C     0.71870   0.01100   0.95819   0.00000  Uiso   1.00
C362   C     0.57002   0.17998   0.25000   0.00000  Uiso   1.00
C363   C     0.82002   0.07002   0.75000   0.00000  Uiso   1.00
C364   C     0.67998   0.42998   0.25000   0.00000  Uiso   1.00
C365   C     0.57002   0.17998   0.75000   0.00000  Uiso   1.00
C366   C     0.92998   0.32002   0.25000   0.00000  Uiso   1.00
C367   C     0.64459   0.38246   0.21576   0.00000  Uiso   1.00
C368   C     0.88451   0.08844   0.74171   0.00000  Uiso   1.00
C369   C     0.58844   0.11549   0.25829   0.00000  Uiso   1.00
C370   C     0.88246   0.35541   0.78424   0.00000  Uiso   1.00
C371   C     0.85541   0.11754   0.21576   0.00000  Uiso   1.00
C372   C     0.51100   0.28130   0.04181   0.00000  Uiso   1.00
C373   C     0.61549   0.41156   0.74171   0.00000  Uiso   1.00
C374   C     0.91156   0.38451   0.25829   0.00000  Uiso   1.00
C375   C     0.61755   0.14459   0.78424   0.00000  Uiso   1.00
C376   C     0.64459   0.11755   0.78424   0.00000  Uiso   1.00
C377   C     0.88451   0.41156   0.25829   0.00000  Uiso   1.00
C378   C     0.58844   0.38451   0.74171   0.00000  Uiso   1.00
C379   C     0.88246   0.14459   0.21576   0.00000  Uiso   1.00
C380   C     0.85541   0.38246   0.78424   0.00000  Uiso   1.00
C381   C     0.61549   0.08844   0.25829   0.00000  Uiso   1.00
C382   C     0.91156   0.11549   0.74171   0.00000  Uiso   1.00
C383   C     0.51100   0.21870   0.95819   0.00000  Uiso   1.00
C384   C     0.61754   0.35541   0.21576   0.00000  Uiso   1.00
C385   C     0.86549   0.16156   0.75829   0.00000  Uiso   1.00
C386   C     0.60541   0.36754   0.28424   0.00000  Uiso   1.00
C387   C     0.86755   0.39459   0.71576   0.00000  Uiso   1.00
C388   C     0.66156   0.13451   0.24171   0.00000  Uiso   1.00
C389   C     0.63451   0.33844   0.75829   0.00000  Uiso   1.00
C390   C     0.89459   0.13246   0.28424   0.00000  Uiso   1.00
C391   C     0.63245   0.10541   0.71576   0.00000  Uiso   1.00
C392   C     0.83844   0.36549   0.24171   0.00000  Uiso   1.00
C393   C     0.86549   0.33844   0.24171   0.00000  Uiso   1.00
C394   C     0.96870   0.26100   0.54181   0.00000  Uiso   1.00
C395   C     0.60541   0.13245   0.71576   0.00000  Uiso   1.00
C396   C     0.86754   0.10541   0.28424   0.00000  Uiso   1.00
C397   C     0.66156   0.36549   0.75829   0.00000  Uiso   1.00
C398   C     0.63451   0.16156   0.24171   0.00000  Uiso   1.00
C399   C     0.89459   0.36755   0.71576   0.00000  Uiso   1.00
C400   C     0.63246   0.39459   0.28424   0.00000  Uiso   1.00
C401   C     0.83844   0.13451   0.75829   0.00000  Uiso   1.00
C402   C     0.59808   0.34808   0.25000   0.00000  Uiso   1.00
C403   C     0.90192   0.15192   0.75000   0.00000  Uiso   1.00
C404   C     0.65192   0.09808   0.25000   0.00000  Uiso   1.00
H405   H     0.69443   0.47976   0.02676   0.00000  Uiso   1.00
H406   H     0.55557   0.27024   0.47324   0.00000  Uiso   1.00
H407   H     0.77024   0.44443   0.52676   0.00000  Uiso   1.00
H408   H     0.77024   0.05557   0.47324   0.00000  Uiso   1.00
H409   H     0.55557   0.22976   0.52676   0.00000  Uiso   1.00
H410   H     0.94443   0.22976   0.47324   0.00000  Uiso   1.00
H411   H     0.72976   0.05557   0.52676   0.00000  Uiso   1.00
H412   H     0.72976   0.44443   0.47324   0.00000  Uiso   1.00
H413   H     0.69421   0.48052   0.09723   0.00000  Uiso   1.00
H414   H     0.80579   0.48052   0.90277   0.00000  Uiso   1.00
H415   H     0.98052   0.19421   0.09723   0.00000  Uiso   1.00
H416   H     0.80557   0.47976   0.97324   0.00000  Uiso   1.00
H417   H     0.98052   0.30579   0.90277   0.00000  Uiso   1.00
H418   H     0.80579   0.01949   0.09723   0.00000  Uiso   1.00
H419   H     0.69421   0.01948   0.90277   0.00000  Uiso   1.00
H420   H     0.51949   0.30579   0.09723   0.00000  Uiso   1.00
H421   H     0.51948   0.19421   0.90277   0.00000  Uiso   1.00
H422   H     0.94421   0.26948   0.59723   0.00000  Uiso   1.00
H423   H     0.55579   0.26949   0.40277   0.00000  Uiso   1.00
H424   H     0.76948   0.44421   0.59723   0.00000  Uiso   1.00
H425   H     0.76949   0.05579   0.40277   0.00000  Uiso   1.00
H426   H     0.55579   0.23052   0.59723   0.00000  Uiso   1.00
H427   H     0.97976   0.19443   0.02676   0.00000  Uiso   1.00
H428   H     0.94421   0.23052   0.40277   0.00000  Uiso   1.00
H429   H     0.73052   0.05579   0.59723   0.00000  Uiso   1.00
H430   H     0.73052   0.44421   0.40277   0.00000  Uiso   1.00
H431   H     0.97976   0.30557   0.97324   0.00000  Uiso   1.00
H432   H     0.80557   0.02024   0.02676   0.00000  Uiso   1.00
H433   H     0.69443   0.02024   0.97324   0.00000  Uiso   1.00
H434   H     0.52024   0.30557   0.02676   0.00000  Uiso   1.00
H435   H     0.52024   0.19443   0.97324   0.00000  Uiso   1.00
H436   H     0.94443   0.27024   0.52676   0.00000  Uiso   1.00
O437   O     0.75000   0.00000   0.25000   0.00000  Uiso   1.00
O438   O     0.75000   0.46964   0.66317   0.00000  Uiso   1.00
O439   O     0.96964   0.25000   0.33683   0.00000  Uiso   1.00
O440   O     0.53036   0.25000   0.66317   0.00000  Uiso   1.00
O441   O     0.50000   0.21964   0.83683   0.00000  Uiso   1.00
O442   O     0.50000   0.28036   0.16317   0.00000  Uiso   1.00
O443   O     0.78036   0.00000   0.83683   0.00000  Uiso   1.00
O444   O     0.71964   0.00000   0.16317   0.00000  Uiso   1.00
O445   O     0.50000   0.28036   0.83683   0.00000  Uiso   1.00
O446   O     0.50000   0.21964   0.16317   0.00000  Uiso   1.00
O447   O     0.71964   0.00000   0.83683   0.00000  Uiso   1.00
O448   O     0.75000   0.00000   0.75000   0.00000  Uiso   1.00
O449   O     0.78036   0.00000   0.16317   0.00000  Uiso   1.00
O450   O     0.70726   0.07307   0.27282   0.00000  Uiso   1.00
O451   O     0.79275   0.42693   0.72718   0.00000  Uiso   1.00
O452   O     0.92693   0.20726   0.27282   0.00000  Uiso   1.00
O453   O     0.57307   0.29275   0.72718   0.00000  Uiso   1.00
O454   O     0.79275   0.42693   0.27282   0.00000  Uiso   1.00
O455   O     0.70726   0.07307   0.72718   0.00000  Uiso   1.00
O456   O     0.57307   0.29275   0.27282   0.00000  Uiso   1.00
O457   O     0.92693   0.20726   0.72718   0.00000  Uiso   1.00
O458   O     0.70726   0.42693   0.72718   0.00000  Uiso   1.00
O459   O     0.50000   0.25000   0.25000   0.00000  Uiso   1.00
O460   O     0.79275   0.07307   0.27282   0.00000  Uiso   1.00
O461   O     0.92693   0.29275   0.72718   0.00000  Uiso   1.00
O462   O     0.57307   0.20726   0.27282   0.00000  Uiso   1.00
O463   O     0.79275   0.07307   0.72718   0.00000  Uiso   1.00
O464   O     0.70726   0.42693   0.27282   0.00000  Uiso   1.00
O465   O     0.57307   0.20726   0.72718   0.00000  Uiso   1.00
O466   O     0.92693   0.29275   0.27282   0.00000  Uiso   1.00
O467   O     0.95726   0.32307   0.77282   0.00000  Uiso   1.00
O468   O     0.54275   0.17693   0.22718   0.00000  Uiso   1.00
O469   O     0.67693   0.45726   0.77282   0.00000  Uiso   1.00
O470   O     0.50000   0.25000   0.75000   0.00000  Uiso   1.00
O471   O     0.82307   0.04275   0.22718   0.00000  Uiso   1.00
O472   O     0.54275   0.17693   0.77282   0.00000  Uiso   1.00
O473   O     0.95726   0.32307   0.22718   0.00000  Uiso   1.00
O474   O     0.82307   0.04275   0.77282   0.00000  Uiso   1.00
O475   O     0.67693   0.45726   0.22718   0.00000  Uiso   1.00
O476   O     0.95726   0.17693   0.22718   0.00000  Uiso   1.00
O477   O     0.54275   0.32307   0.77282   0.00000  Uiso   1.00
O478   O     0.67693   0.04275   0.22718   0.00000  Uiso   1.00
O479   O     0.82307   0.45726   0.77282   0.00000  Uiso   1.00
O480   O     0.54275   0.32307   0.22718   0.00000  Uiso   1.00
O481   O     0.75000   0.46964   0.33683   0.00000  Uiso   1.00
O482   O     0.95726   0.17693   0.77282   0.00000  Uiso   1.00
O483   O     0.82307   0.45726   0.22718   0.00000  Uiso   1.00
O484   O     0.67693   0.04275   0.77282   0.00000  Uiso   1.00
O485   O     0.75000   0.03036   0.66317   0.00000  Uiso   1.00
O486   O     0.53036   0.25000   0.33683   0.00000  Uiso   1.00
O487   O     0.96964   0.25000   0.66317   0.00000  Uiso   1.00
O488   O     0.75000   0.03036   0.33683   0.00000  Uiso   1.00
Zn489  Zn    0.70660   0.00000   0.21760   0.00000  Uiso   1.00
Zn490  Zn    0.54340   0.25000   0.28240   0.00000  Uiso   1.00
Zn491  Zn    0.75000   0.45660   0.71760   0.00000  Uiso   1.00
Zn492  Zn    0.75000   0.04340   0.28240   0.00000  Uiso   1.00
Zn493  Zn    0.54340   0.25000   0.71760   0.00000  Uiso   1.00
Zn494  Zn    0.95660   0.25000   0.28240   0.00000  Uiso   1.00
Zn495  Zn    0.75000   0.04340   0.71760   0.00000  Uiso   1.00
Zn496  Zn    0.75000   0.45660   0.28240   0.00000  Uiso   1.00
Zn497  Zn    0.79340   0.00000   0.78240   0.00000  Uiso   1.00
Zn498  Zn    0.50000   0.20660   0.21760   0.00000  Uiso   1.00
Zn499  Zn    0.50000   0.29340   0.78240   0.00000  Uiso   1.00
Zn500  Zn    0.79340   0.00000   0.21760   0.00000  Uiso   1.00
Zn501  Zn    0.70660   0.00000   0.78240   0.00000  Uiso   1.00
Zn502  Zn    0.50000   0.29340   0.21760   0.00000  Uiso   1.00
Zn503  Zn    0.50000   0.20660   0.78240   0.00000  Uiso   1.00
Zn504  Zn    0.95660   0.25000   0.71760   0.00000  Uiso   1.00
Br505  Br    0.17273   0.89162   0.16942   0.00000  Uiso   1.00
Br506  Br    0.39709   0.96140   0.27148   0.00000  Uiso   1.00
Br507  Br    0.03860   0.89709   0.72852   0.00000  Uiso   1.00
Br508  Br    0.39161   0.67274   0.16943   0.00000  Uiso   1.00
Br509  Br    0.32726   0.89161   0.83057   0.00000  Uiso   1.00
Br510  Br    0.10292   0.53860   0.27148   0.00000  Uiso   1.00
Br511  Br    0.46140   0.60292   0.72852   0.00000  Uiso   1.00
Br512  Br    0.10838   0.82727   0.16942   0.00000  Uiso   1.00
Br513  Br    0.35292   0.71140   0.77148   0.00000  Uiso   1.00
Br514  Br    0.07727   0.85838   0.33058   0.00000  Uiso   1.00
Br515  Br    0.35839   0.92274   0.66943   0.00000  Uiso   1.00
Br516  Br    0.39709   0.53860   0.72852   0.00000  Uiso   1.00
Br517  Br    0.21140   0.64708   0.22852   0.00000  Uiso   1.00
Br518  Br    0.14709   0.78860   0.77148   0.00000  Uiso   1.00
Br519  Br    0.42274   0.64161   0.33057   0.00000  Uiso   1.00
Br520  Br    0.14161   0.57726   0.66943   0.00000  Uiso   1.00
Br521  Br    0.28860   0.85292   0.22852   0.00000  Uiso   1.00
Br522  Br    0.35292   0.78860   0.22852   0.00000  Uiso   1.00
Br523  Br    0.07726   0.64161   0.66943   0.00000  Uiso   1.00
Br524  Br    0.35839   0.57726   0.33057   0.00000  Uiso   1.00
Br525  Br    0.21140   0.85292   0.77148   0.00000  Uiso   1.00
Br526  Br    0.14709   0.71140   0.22852   0.00000  Uiso   1.00
Br527  Br    0.03860   0.60292   0.27148   0.00000  Uiso   1.00
Br528  Br    0.42274   0.85839   0.66943   0.00000  Uiso   1.00
Br529  Br    0.14162   0.92273   0.33058   0.00000  Uiso   1.00
Br530  Br    0.28860   0.64709   0.77148   0.00000  Uiso   1.00
Br531  Br    0.39161   0.82726   0.83057   0.00000  Uiso   1.00
Br532  Br    0.32726   0.60839   0.16943   0.00000  Uiso   1.00
Br533  Br    0.10292   0.96140   0.72852   0.00000  Uiso   1.00
Br534  Br    0.46140   0.89709   0.27148   0.00000  Uiso   1.00
Br535  Br    0.10839   0.67274   0.83057   0.00000  Uiso   1.00
Br536  Br    0.17274   0.60839   0.83057   0.00000  Uiso   1.00
C537   C     0.21870   0.98900   0.04181   0.00000  Uiso   1.00
C538   C     0.03130   0.76100   0.45819   0.00000  Uiso   1.00
C539   C     0.34808   0.90192   0.75000   0.00000  Uiso   1.00
C540   C     0.40192   0.65192   0.25000   0.00000  Uiso   1.00
C541   C     0.09808   0.84808   0.75000   0.00000  Uiso   1.00
C542   C     0.34808   0.90192   0.25000   0.00000  Uiso   1.00
C543   C     0.15192   0.59808   0.75000   0.00000  Uiso   1.00
C544   C     0.09808   0.65192   0.75000   0.00000  Uiso   1.00
C545   C     0.40192   0.84808   0.25000   0.00000  Uiso   1.00
C546   C     0.15192   0.90192   0.75000   0.00000  Uiso   1.00
C547   C     0.34808   0.59808   0.25000   0.00000  Uiso   1.00
C548   C     0.40192   0.84808   0.75000   0.00000  Uiso   1.00
C549   C     0.26100   0.96870   0.54181   0.00000  Uiso   1.00
C550   C     0.09808   0.65192   0.25000   0.00000  Uiso   1.00
C551   C     0.34808   0.59808   0.75000   0.00000  Uiso   1.00
C552   C     0.15192   0.90192   0.25000   0.00000  Uiso   1.00
C553   C     0.25000   0.50000   0.10242   0.00000  Uiso   1.00
C554   C     0.25000   0.50000   0.89758   0.00000  Uiso   1.00
C555   C     0.00000   0.75000   0.10242   0.00000  Uiso   1.00
C556   C     0.00000   0.75000   0.89758   0.00000  Uiso   1.00
C557   C     0.00000   0.75000   0.60242   0.00000  Uiso   1.00
C558   C     0.00000   0.75000   0.39758   0.00000  Uiso   1.00
C559   C     0.25000   0.50000   0.60242   0.00000  Uiso   1.00
C560   C     0.26100   0.53130   0.45819   0.00000  Uiso   1.00
C561   C     0.25000   0.50000   0.39758   0.00000  Uiso   1.00
C562   C     0.03130   0.73900   0.54181   0.00000  Uiso   1.00
C563   C     0.46870   0.73900   0.45819   0.00000  Uiso   1.00
C564   C     0.23900   0.53130   0.54181   0.00000  Uiso   1.00
C565   C     0.23900   0.96870   0.45819   0.00000  Uiso   1.00
C566   C     0.21863   0.98924   0.08206   0.00000  Uiso   1.00
C567   C     0.28137   0.98924   0.91794   0.00000  Uiso   1.00
C568   C     0.48924   0.71863   0.08206   0.00000  Uiso   1.00
C569   C     0.28130   0.98900   0.95819   0.00000  Uiso   1.00
C570   C     0.48924   0.78137   0.91794   0.00000  Uiso   1.00
C571   C     0.28137   0.51076   0.08206   0.00000  Uiso   1.00
C572   C     0.21863   0.51076   0.91794   0.00000  Uiso   1.00
C573   C     0.01076   0.78137   0.08206   0.00000  Uiso   1.00
C574   C     0.01076   0.71863   0.91794   0.00000  Uiso   1.00
C575   C     0.46863   0.76076   0.58206   0.00000  Uiso   1.00
C576   C     0.03137   0.76076   0.41794   0.00000  Uiso   1.00
C577   C     0.26076   0.96863   0.58206   0.00000  Uiso   1.00
C578   C     0.26076   0.53137   0.41794   0.00000  Uiso   1.00
C579   C     0.03137   0.73924   0.58206   0.00000  Uiso   1.00
C580   C     0.48900   0.71870   0.04181   0.00000  Uiso   1.00
C581   C     0.46863   0.73924   0.41794   0.00000  Uiso   1.00
C582   C     0.23924   0.53137   0.58206   0.00000  Uiso   1.00
C583   C     0.23924   0.96863   0.41794   0.00000  Uiso   1.00
C584   C     0.25000   0.50000   0.02132   0.00000  Uiso   1.00
C585   C     0.25000   0.50000   0.97868   0.00000  Uiso   1.00
C586   C     0.00000   0.75000   0.02132   0.00000  Uiso   1.00
C587   C     0.00000   0.75000   0.97868   0.00000  Uiso   1.00
C588   C     0.00000   0.75000   0.52132   0.00000  Uiso   1.00
C589   C     0.00000   0.75000   0.47868   0.00000  Uiso   1.00
C590   C     0.25000   0.50000   0.52132   0.00000  Uiso   1.00
C591   C     0.48900   0.78130   0.95819   0.00000  Uiso   1.00
C592   C     0.25000   0.50000   0.47868   0.00000  Uiso   1.00
C593   C     0.25000   0.50000   0.35524   0.00000  Uiso   1.00
C594   C     0.25000   0.50000   0.64476   0.00000  Uiso   1.00
C595   C     0.00000   0.75000   0.35524   0.00000  Uiso   1.00
C596   C     0.00000   0.75000   0.64476   0.00000  Uiso   1.00
C597   C     0.00000   0.75000   0.85524   0.00000  Uiso   1.00
C598   C     0.00000   0.75000   0.14476   0.00000  Uiso   1.00
C599   C     0.25000   0.50000   0.85524   0.00000  Uiso   1.00
C600   C     0.25000   0.50000   0.14476   0.00000  Uiso   1.00
C601   C     0.17998   0.57002   0.25000   0.00000  Uiso   1.00
C602   C     0.28130   0.51100   0.04181   0.00000  Uiso   1.00
C603   C     0.32002   0.92998   0.75000   0.00000  Uiso   1.00
C604   C     0.42998   0.67998   0.25000   0.00000  Uiso   1.00
C605   C     0.07002   0.82002   0.75000   0.00000  Uiso   1.00
C606   C     0.32002   0.92998   0.25000   0.00000  Uiso   1.00
C607   C     0.17998   0.57002   0.75000   0.00000  Uiso   1.00
C608   C     0.07002   0.82002   0.25000   0.00000  Uiso   1.00
C609   C     0.42998   0.67998   0.75000   0.00000  Uiso   1.00
C610   C     0.17998   0.92998   0.75000   0.00000  Uiso   1.00
C611   C     0.32002   0.57002   0.25000   0.00000  Uiso   1.00
C612   C     0.42998   0.82002   0.75000   0.00000  Uiso   1.00
C613   C     0.21870   0.51100   0.95819   0.00000  Uiso   1.00
C614   C     0.07002   0.67998   0.25000   0.00000  Uiso   1.00
C615   C     0.32002   0.57002   0.75000   0.00000  Uiso   1.00
C616   C     0.17998   0.92998   0.25000   0.00000  Uiso   1.00
C617   C     0.07002   0.67998   0.75000   0.00000  Uiso   1.00
C618   C     0.42998   0.82002   0.25000   0.00000  Uiso   1.00
C619   C     0.14459   0.88246   0.21576   0.00000  Uiso   1.00
C620   C     0.38451   0.58844   0.74171   0.00000  Uiso   1.00
C621   C     0.08844   0.61549   0.25829   0.00000  Uiso   1.00
C622   C     0.38246   0.85541   0.78424   0.00000  Uiso   1.00
C623   C     0.35541   0.61754   0.21576   0.00000  Uiso   1.00
C624   C     0.01100   0.78130   0.04181   0.00000  Uiso   1.00
C625   C     0.11549   0.91156   0.74171   0.00000  Uiso   1.00
C626   C     0.41156   0.88451   0.25829   0.00000  Uiso   1.00
C627   C     0.11755   0.64459   0.78424   0.00000  Uiso   1.00
C628   C     0.14459   0.61755   0.78424   0.00000  Uiso   1.00
C629   C     0.38451   0.91156   0.25829   0.00000  Uiso   1.00
C630   C     0.08844   0.88451   0.74171   0.00000  Uiso   1.00
C631   C     0.38246   0.64459   0.21576   0.00000  Uiso   1.00
C632   C     0.35541   0.88246   0.78424   0.00000  Uiso   1.00
C633   C     0.11549   0.58844   0.25829   0.00000  Uiso   1.00
C634   C     0.41156   0.61549   0.74171   0.00000  Uiso   1.00
C635   C     0.01100   0.71870   0.95819   0.00000  Uiso   1.00
C636   C     0.11754   0.85541   0.21576   0.00000  Uiso   1.00
C637   C     0.36549   0.66156   0.75829   0.00000  Uiso   1.00
C638   C     0.10541   0.86754   0.28424   0.00000  Uiso   1.00
C639   C     0.36755   0.89459   0.71576   0.00000  Uiso   1.00
C640   C     0.16156   0.63451   0.24171   0.00000  Uiso   1.00
C641   C     0.13451   0.83844   0.75829   0.00000  Uiso   1.00
C642   C     0.39459   0.63246   0.28424   0.00000  Uiso   1.00
C643   C     0.13245   0.60541   0.71576   0.00000  Uiso   1.00
C644   C     0.33844   0.86549   0.24171   0.00000  Uiso   1.00
C645   C     0.36549   0.83844   0.24171   0.00000  Uiso   1.00
C646   C     0.46870   0.76100   0.54181   0.00000  Uiso   1.00
C647   C     0.10541   0.63245   0.71576   0.00000  Uiso   1.00
C648   C     0.36754   0.60541   0.28424   0.00000  Uiso   1.00
C649   C     0.16156   0.86549   0.75829   0.00000  Uiso   1.00
C650   C     0.13451   0.66156   0.24171   0.00000  Uiso   1.00
C651   C     0.39459   0.86755   0.71576   0.00000  Uiso   1.00
C652   C     0.13246   0.89459   0.28424   0.00000  Uiso   1.00
C653   C     0.33844   0.63451   0.75829   0.00000  Uiso   1.00
C654   C     0.09808   0.84808   0.25000   0.00000  Uiso   1.00
C655   C     0.40192   0.65192   0.75000   0.00000  Uiso   1.00
C656   C     0.15192   0.59808   0.25000   0.00000  Uiso   1.00
H657   H     0.19443   0.97976   0.02676   0.00000  Uiso   1.00
H658   H     0.05557   0.77024   0.47324   0.00000  Uiso   1.00
H659   H     0.27024   0.94443   0.52676   0.00000  Uiso   1.00
H660   H     0.27024   0.55557   0.47324   0.00000  Uiso   1.00
H661   H     0.05557   0.72976   0.52676   0.00000  Uiso   1.00
H662   H     0.44443   0.72976   0.47324   0.00000  Uiso   1.00
H663   H     0.22976   0.55557   0.52676   0.00000  Uiso   1.00
H664   H     0.22976   0.94443   0.47324   0.00000  Uiso   1.00
H665   H     0.19421   0.98052   0.09723   0.00000  Uiso   1.00
H666   H     0.30579   0.98052   0.90277   0.00000  Uiso   1.00
H667   H     0.48052   0.69421   0.09723   0.00000  Uiso   1.00
H668   H     0.30557   0.97976   0.97324   0.00000  Uiso   1.00
H669   H     0.48052   0.80579   0.90277   0.00000  Uiso   1.00
H670   H     0.30579   0.51949   0.09723   0.00000  Uiso   1.00
H671   H     0.19421   0.51948   0.90277   0.00000  Uiso   1.00
H672   H     0.01949   0.80579   0.09723   0.00000  Uiso   1.00
H673   H     0.01948   0.69421   0.90277   0.00000  Uiso   1.00
H674   H     0.44421   0.76948   0.59723   0.00000  Uiso   1.00
H675   H     0.05579   0.76949   0.40277   0.00000  Uiso   1.00
H676   H     0.26948   0.94421   0.59723   0.00000  Uiso   1.00
H677   H     0.26949   0.55579   0.40277   0.00000  Uiso   1.00
H678   H     0.05579   0.73052   0.59723   0.00000  Uiso   1.00
H679   H     0.47976   0.69443   0.02676   0.00000  Uiso   1.00
H680   H     0.44421   0.73052   0.40277   0.00000  Uiso   1.00
H681   H     0.23052   0.55579   0.59723   0.00000  Uiso   1.00
H682   H     0.23052   0.94421   0.40277   0.00000  Uiso   1.00
H683   H     0.47976   0.80557   0.97324   0.00000  Uiso   1.00
H684   H     0.30557   0.52024   0.02676   0.00000  Uiso   1.00
H685   H     0.19443   0.52024   0.97324   0.00000  Uiso   1.00
H686   H     0.02024   0.80557   0.02676   0.00000  Uiso   1.00
H687   H     0.02024   0.69443   0.97324   0.00000  Uiso   1.00
H688   H     0.44443   0.77024   0.52676   0.00000  Uiso   1.00
O689   O     0.25000   0.50000   0.25000   0.00000  Uiso   1.00
O690   O     0.25000   0.96964   0.66317   0.00000  Uiso   1.00
O691   O     0.46964   0.75000   0.33683   0.00000  Uiso   1.00
O692   O     0.03036   0.75000   0.66317   0.00000  Uiso   1.00
O693   O     0.00000   0.71964   0.83683   0.00000  Uiso   1.00
O694   O     0.00000   0.78036   0.16317   0.00000  Uiso   1.00
O695   O     0.28036   0.50000   0.83683   0.00000  Uiso   1.00
O696   O     0.21964   0.50000   0.16317   0.00000  Uiso   1.00
O697   O     0.00000   0.78036   0.83683   0.00000  Uiso   1.00
O698   O     0.00000   0.71964   0.16317   0.00000  Uiso   1.00
O699   O     0.21964   0.50000   0.83683   0.00000  Uiso   1.00
O700   O     0.25000   0.50000   0.75000   0.00000  Uiso   1.00
O701   O     0.28036   0.50000   0.16317   0.00000  Uiso   1.00
O702   O     0.20726   0.57307   0.27282   0.00000  Uiso   1.00
O703   O     0.29275   0.92693   0.72718   0.00000  Uiso   1.00
O704   O     0.42693   0.70726   0.27282   0.00000  Uiso   1.00
O705   O     0.07307   0.79275   0.72718   0.00000  Uiso   1.00
O706   O     0.29275   0.92693   0.27282   0.00000  Uiso   1.00
O707   O     0.20726   0.57307   0.72718   0.00000  Uiso   1.00
O708   O     0.07307   0.79275   0.27282   0.00000  Uiso   1.00
O709   O     0.42693   0.70726   0.72718   0.00000  Uiso   1.00
O710   O     0.20726   0.92693   0.72718   0.00000  Uiso   1.00
O711   O     0.00000   0.75000   0.25000   0.00000  Uiso   1.00
O712   O     0.29275   0.57307   0.27282   0.00000  Uiso   1.00
O713   O     0.42693   0.79275   0.72718   0.00000  Uiso   1.00
O714   O     0.07307   0.70726   0.27282   0.00000  Uiso   1.00
O715   O     0.29275   0.57307   0.72718   0.00000  Uiso   1.00
O716   O     0.20726   0.92693   0.27282   0.00000  Uiso   1.00
O717   O     0.07307   0.70726   0.72718   0.00000  Uiso   1.00
O718   O     0.42693   0.79275   0.27282   0.00000  Uiso   1.00
O719   O     0.45726   0.82307   0.77282   0.00000  Uiso   1.00
O720   O     0.04275   0.67693   0.22718   0.00000  Uiso   1.00
O721   O     0.17693   0.95726   0.77282   0.00000  Uiso   1.00
O722   O     0.00000   0.75000   0.75000   0.00000  Uiso   1.00
O723   O     0.32307   0.54275   0.22718   0.00000  Uiso   1.00
O724   O     0.04275   0.67693   0.77282   0.00000  Uiso   1.00
O725   O     0.45726   0.82307   0.22718   0.00000  Uiso   1.00
O726   O     0.32307   0.54275   0.77282   0.00000  Uiso   1.00
O727   O     0.17693   0.95726   0.22718   0.00000  Uiso   1.00
O728   O     0.45726   0.67693   0.22718   0.00000  Uiso   1.00
O729   O     0.04275   0.82307   0.77282   0.00000  Uiso   1.00
O730   O     0.17693   0.54275   0.22718   0.00000  Uiso   1.00
O731   O     0.32307   0.95726   0.77282   0.00000  Uiso   1.00
O732   O     0.04275   0.82307   0.22718   0.00000  Uiso   1.00
O733   O     0.25000   0.96964   0.33683   0.00000  Uiso   1.00
O734   O     0.45726   0.67693   0.77282   0.00000  Uiso   1.00
O735   O     0.32307   0.95726   0.22718   0.00000  Uiso   1.00
O736   O     0.17693   0.54275   0.77282   0.00000  Uiso   1.00
O737   O     0.25000   0.53036   0.66317   0.00000  Uiso   1.00
O738   O     0.03036   0.75000   0.33683   0.00000  Uiso   1.00
O739   O     0.46964   0.75000   0.66317   0.00000  Uiso   1.00
O740   O     0.25000   0.53036   0.33683   0.00000  Uiso   1.00
Zn741  Zn    0.20660   0.50000   0.21760   0.00000  Uiso   1.00
Zn742  Zn    0.04340   0.75000   0.28240   0.00000  Uiso   1.00
Zn743  Zn    0.25000   0.95660   0.71760   0.00000  Uiso   1.00
Zn744  Zn    0.25000   0.54340   0.28240   0.00000  Uiso   1.00
Zn745  Zn    0.04340   0.75000   0.71760   0.00000  Uiso   1.00
Zn746  Zn    0.45660   0.75000   0.28240   0.00000  Uiso   1.00
Zn747  Zn    0.25000   0.54340   0.71760   0.00000  Uiso   1.00
Zn748  Zn    0.25000   0.95660   0.28240   0.00000  Uiso   1.00
Zn749  Zn    0.29340   0.50000   0.78240   0.00000  Uiso   1.00
Zn750  Zn    0.00000   0.70660   0.21760   0.00000  Uiso   1.00
Zn751  Zn    0.00000   0.79340   0.78240   0.00000  Uiso   1.00
Zn752  Zn    0.29340   0.50000   0.21760   0.00000  Uiso   1.00
Zn753  Zn    0.20660   0.50000   0.78240   0.00000  Uiso   1.00
Zn754  Zn    0.00000   0.79340   0.21760   0.00000  Uiso   1.00
Zn755  Zn    0.00000   0.70660   0.78240   0.00000  Uiso   1.00
Zn756  Zn    0.45660   0.75000   0.71760   0.00000  Uiso   1.00
Br757  Br    0.67273   0.89162   0.16942   0.00000  Uiso   1.00
Br758  Br    0.89709   0.96140   0.27148   0.00000  Uiso   1.00
Br759  Br    0.53860   0.89709   0.72852   0.00000  Uiso   1.00
Br760  Br    0.89161   0.67274   0.16943   0.00000  Uiso   1.00
Br761  Br    0.82726   0.89161   0.83057   0.00000  Uiso   1.00
Br762  Br    0.60292   0.53860   0.27148   0.00000  Uiso   1.00
Br763  Br    0.96140   0.60292   0.72852   0.00000  Uiso   1.00
Br764  Br    0.60838   0.82727   0.16942   0.00000  Uiso   1.00
Br765  Br    0.85292   0.71140   0.77148   0.00000  Uiso   1.00
Br766  Br    0.57727   0.85838   0.33058   0.00000  Uiso   1.00
Br767  Br    0.85839   0.92274   0.66943   0.00000  Uiso   1.00
Br768  Br    0.89709   0.53860   0.72852   0.00000  Uiso   1.00
Br769  Br    0.71140   0.64708   0.22852   0.00000  Uiso   1.00
Br770  Br    0.64709   0.78860   0.77148   0.00000  Uiso   1.00
Br771  Br    0.92274   0.64161   0.33057   0.00000  Uiso   1.00
Br772  Br    0.64161   0.57726   0.66943   0.00000  Uiso   1.00
Br773  Br    0.78860   0.85292   0.22852   0.00000  Uiso   1.00
Br774  Br    0.85292   0.78860   0.22852   0.00000  Uiso   1.00
Br775  Br    0.57726   0.64161   0.66943   0.00000  Uiso   1.00
Br776  Br    0.85839   0.57726   0.33057   0.00000  Uiso   1.00
Br777  Br    0.71140   0.85292   0.77148   0.00000  Uiso   1.00
Br778  Br    0.64709   0.71140   0.22852   0.00000  Uiso   1.00
Br779  Br    0.53860   0.60292   0.27148   0.00000  Uiso   1.00
Br780  Br    0.92274   0.85839   0.66943   0.00000  Uiso   1.00
Br781  Br    0.64162   0.92273   0.33058   0.00000  Uiso   1.00
Br782  Br    0.78860   0.64709   0.77148   0.00000  Uiso   1.00
Br783  Br    0.89161   0.82726   0.83057   0.00000  Uiso   1.00
Br784  Br    0.82726   0.60839   0.16943   0.00000  Uiso   1.00
Br785  Br    0.60292   0.96140   0.72852   0.00000  Uiso   1.00
Br786  Br    0.96140   0.89709   0.27148   0.00000  Uiso   1.00
Br787  Br    0.60839   0.67274   0.83057   0.00000  Uiso   1.00
Br788  Br    0.67274   0.60839   0.83057   0.00000  Uiso   1.00
C789   C     0.71870   0.98900   0.04181   0.00000  Uiso   1.00
C790   C     0.53130   0.76100   0.45819   0.00000  Uiso   1.00
C791   C     0.84808   0.90192   0.75000   0.00000  Uiso   1.00
C792   C     0.90192   0.65192   0.25000   0.00000  Uiso   1.00
C793   C     0.59808   0.84808   0.75000   0.00000  Uiso   1.00
C794   C     0.84808   0.90192   0.25000   0.00000  Uiso   1.00
C795   C     0.65192   0.59808   0.75000   0.00000  Uiso   1.00
C796   C     0.59808   0.65192   0.75000   0.00000  Uiso   1.00
C797   C     0.90192   0.84808   0.25000   0.00000  Uiso   1.00
C798   C     0.65192   0.90192   0.75000   0.00000  Uiso   1.00
C799   C     0.84808   0.59808   0.25000   0.00000  Uiso   1.00
C800   C     0.90192   0.84808   0.75000   0.00000  Uiso   1.00
C801   C     0.76100   0.96870   0.54181   0.00000  Uiso   1.00
C802   C     0.59808   0.65192   0.25000   0.00000  Uiso   1.00
C803   C     0.84808   0.59808   0.75000   0.00000  Uiso   1.00
C804   C     0.65192   0.90192   0.25000   0.00000  Uiso   1.00
C805   C     0.75000   0.50000   0.10242   0.00000  Uiso   1.00
C806   C     0.75000   0.50000   0.89758   0.00000  Uiso   1.00
C807   C     0.50000   0.75000   0.10242   0.00000  Uiso   1.00
C808   C     0.50000   0.75000   0.89758   0.00000  Uiso   1.00
C809   C     0.50000   0.75000   0.60242   0.00000  Uiso   1.00
C810   C     0.50000   0.75000   0.39758   0.00000  Uiso   1.00
C811   C     0.75000   0.50000   0.60242   0.00000  Uiso   1.00
C812   C     0.76100   0.53130   0.45819   0.00000  Uiso   1.00
C813   C     0.75000   0.50000   0.39758   0.00000  Uiso   1.00
C814   C     0.53130   0.73900   0.54181   0.00000  Uiso   1.00
C815   C     0.96870   0.73900   0.45819   0.00000  Uiso   1.00
C816   C     0.73900   0.53130   0.54181   0.00000  Uiso   1.00
C817   C     0.73900   0.96870   0.45819   0.00000  Uiso   1.00
C818   C     0.71863   0.98924   0.08206   0.00000  Uiso   1.00
C819   C     0.78137   0.98924   0.91794   0.00000  Uiso   1.00
C820   C     0.98924   0.71863   0.08206   0.00000  Uiso   1.00
C821   C     0.78130   0.98900   0.95819   0.00000  Uiso   1.00
C822   C     0.98924   0.78137   0.91794   0.00000  Uiso   1.00
C823   C     0.78137   0.51076   0.08206   0.00000  Uiso   1.00
C824   C     0.71863   0.51076   0.91794   0.00000  Uiso   1.00
C825   C     0.51076   0.78137   0.08206   0.00000  Uiso   1.00
C826   C     0.51076   0.71863   0.91794   0.00000  Uiso   1.00
C827   C     0.96863   0.76076   0.58206   0.00000  Uiso   1.00
C828   C     0.53137   0.76076   0.41794   0.00000  Uiso   1.00
C829   C     0.76076   0.96863   0.58206   0.00000  Uiso   1.00
C830   C     0.76076   0.53137   0.41794   0.00000  Uiso   1.00
C831   C     0.53137   0.73924   0.58206   0.00000  Uiso   1.00
C832   C     0.98900   0.71870   0.04181   0.00000  Uiso   1.00
C833   C     0.96863   0.73924   0.41794   0.00000  Uiso   1.00
C834   C     0.73924   0.53137   0.58206   0.00000  Uiso   1.00
C835   C     0.73924   0.96863   0.41794   0.00000  Uiso   1.00
C836   C     0.75000   0.50000   0.02132   0.00000  Uiso   1.00
C837   C     0.75000   0.50000   0.97868   0.00000  Uiso   1.00
C838   C     0.50000   0.75000   0.02132   0.00000  Uiso   1.00
C839   C     0.50000   0.75000   0.97868   0.00000  Uiso   1.00
C840   C     0.50000   0.75000   0.52132   0.00000  Uiso   1.00
C841   C     0.50000   0.75000   0.47868   0.00000  Uiso   1.00
C842   C     0.75000   0.50000   0.52132   0.00000  Uiso   1.00
C843   C     0.98900   0.78130   0.95819   0.00000  Uiso   1.00
C844   C     0.75000   0.50000   0.47868   0.00000  Uiso   1.00
C845   C     0.75000   0.50000   0.35524   0.00000  Uiso   1.00
C846   C     0.75000   0.50000   0.64476   0.00000  Uiso   1.00
C847   C     0.50000   0.75000   0.35524   0.00000  Uiso   1.00
C848   C     0.50000   0.75000   0.64476   0.00000  Uiso   1.00
C849   C     0.50000   0.75000   0.85524   0.00000  Uiso   1.00
C850   C     0.50000   0.75000   0.14476   0.00000  Uiso   1.00
C851   C     0.75000   0.50000   0.85524   0.00000  Uiso   1.00
C852   C     0.75000   0.50000   0.14476   0.00000  Uiso   1.00
C853   C     0.67998   0.57002   0.25000   0.00000  Uiso   1.00
C854   C     0.78130   0.51100   0.04181   0.00000  Uiso   1.00
C855   C     0.82002   0.92998   0.75000   0.00000  Uiso   1.00
C856   C     0.92998   0.67998   0.25000   0.00000  Uiso   1.00
C857   C     0.57002   0.82002   0.75000   0.00000  Uiso   1.00
C858   C     0.82002   0.92998   0.25000   0.00000  Uiso   1.00
C859   C     0.67998   0.57002   0.75000   0.00000  Uiso   1.00
C860   C     0.57002   0.82002   0.25000   0.00000  Uiso   1.00
C861   C     0.92998   0.67998   0.75000   0.00000  Uiso   1.00
C862   C     0.67998   0.92998   0.75000   0.00000  Uiso   1.00
C863   C     0.82002   0.57002   0.25000   0.00000  Uiso   1.00
C864   C     0.92998   0.82002   0.75000   0.00000  Uiso   1.00
C865   C     0.71870   0.51100   0.95819   0.00000  Uiso   1.00
C866   C     0.57002   0.67998   0.25000   0.00000  Uiso   1.00
C867   C     0.82002   0.57002   0.75000   0.00000  Uiso   1.00
C868   C     0.67998   0.92998   0.25000   0.00000  Uiso   1.00
C869   C     0.57002   0.67998   0.75000   0.00000  Uiso   1.00
C870   C     0.92998   0.82002   0.25000   0.00000  Uiso   1.00
C871   C     0.64459   0.88246   0.21576   0.00000  Uiso   1.00
C872   C     0.88451   0.58844   0.74171   0.00000  Uiso   1.00
C873   C     0.58844   0.61549   0.25829   0.00000  Uiso   1.00
C874   C     0.88246   0.85541   0.78424   0.00000  Uiso   1.00
C875   C     0.85541   0.61754   0.21576   0.00000  Uiso   1.00
C876   C     0.51100   0.78130   0.04181   0.00000  Uiso   1.00
C877   C     0.61549   0.91156   0.74171   0.00000  Uiso   1.00
C878   C     0.91156   0.88451   0.25829   0.00000  Uiso   1.00
C879   C     0.61755   0.64459   0.78424   0.00000  Uiso   1.00
C880   C     0.64459   0.61755   0.78424   0.00000  Uiso   1.00
C881   C     0.88451   0.91156   0.25829   0.00000  Uiso   1.00
C882   C     0.58844   0.88451   0.74171   0.00000  Uiso   1.00
C883   C     0.88246   0.64459   0.21576   0.00000  Uiso   1.00
C884   C     0.85541   0.88246   0.78424   0.00000  Uiso   1.00
C885   C     0.61549   0.58844   0.25829   0.00000  Uiso   1.00
C886   C     0.91156   0.61549   0.74171   0.00000  Uiso   1.00
C887   C     0.51100   0.71870   0.95819   0.00000  Uiso   1.00
C888   C     0.61754   0.85541   0.21576   0.00000  Uiso   1.00
C889   C     0.86549   0.66156   0.75829   0.00000  Uiso   1.00
C890   C     0.60541   0.86754   0.28424   0.00000  Uiso   1.00
C891   C     0.86755   0.89459   0.71576   0.00000  Uiso   1.00
C892   C     0.66156   0.63451   0.24171   0.00000  Uiso   1.00
C893   C     0.63451   0.83844   0.75829   0.00000  Uiso   1.00
C894   C     0.89459   0.63246   0.28424   0.00000  Uiso   1.00
C895   C     0.63245   0.60541   0.71576   0.00000  Uiso   1.00
C896   C     0.83844   0.86549   0.24171   0.00000  Uiso   1.00
C897   C     0.86549   0.83844   0.24171   0.00000  Uiso   1.00
C898   C     0.96870   0.76100   0.54181   0.00000  Uiso   1.00
C899   C     0.60541   0.63245   0.71576   0.00000  Uiso   1.00
C900   C     0.86754   0.60541   0.28424   0.00000  Uiso   1.00
C901   C     0.66156   0.86549   0.75829   0.00000  Uiso   1.00
C902   C     0.63451   0.66156   0.24171   0.00000  Uiso   1.00
C903   C     0.89459   0.86755   0.71576   0.00000  Uiso   1.00
C904   C     0.63246   0.89459   0.28424   0.00000  Uiso   1.00
C905   C     0.83844   0.63451   0.75829   0.00000  Uiso   1.00
C906   C     0.59808   0.84808   0.25000   0.00000  Uiso   1.00
C907   C     0.90192   0.65192   0.75000   0.00000  Uiso   1.00
C908   C     0.65192   0.59808   0.25000   0.00000  Uiso   1.00
H909   H     0.69443   0.97976   0.02676   0.00000  Uiso   1.00
H910   H     0.55557   0.77024   0.47324   0.00000  Uiso   1.00
H911   H     0.77024   0.94443   0.52676   0.00000  Uiso   1.00
H912   H     0.77024   0.55557   0.47324   0.00000  Uiso   1.00
H913   H     0.55557   0.72976   0.52676   0.00000  Uiso   1.00
H914   H     0.94443   0.72976   0.47324   0.00000  Uiso   1.00
H915   H     0.72976   0.55557   0.52676   0.00000  Uiso   1.00
H916   H     0.72976   0.94443   0.47324   0.00000  Uiso   1.00
H917   H     0.69421   0.98052   0.09723   0.00000  Uiso   1.00
H918   H     0.80579   0.98052   0.90277   0.00000  Uiso   1.00
H919   H     0.98052   0.69421   0.09723   0.00000  Uiso   1.00
H920   H     0.80557   0.97976   0.97324   0.00000  Uiso   1.00
H921   H     0.98052   0.80579   0.90277   0.00000  Uiso   1.00
H922   H     0.80579   0.51949   0.09723   0.00000  Uiso   1.00
H923   H     0.69421   0.51948   0.90277   0.00000  Uiso   1.00
H924   H     0.51949   0.80579   0.09723   0.00000  Uiso   1.00
H925   H     0.51948   0.69421   0.90277   0.00000  Uiso   1.00
H926   H     0.94421   0.76948   0.59723   0.00000  Uiso   1.00
H927   H     0.55579   0.76949   0.40277   0.00000  Uiso   1.00
H928   H     0.76948   0.94421   0.59723   0.00000  Uiso   1.00
H929   H     0.76949   0.55579   0.40277   0.00000  Uiso   1.00
H930   H     0.55579   0.73052   0.59723   0.00000  Uiso   1.00
H931   H     0.97976   0.69443   0.02676   0.00000  Uiso   1.00
H932   H     0.94421   0.73052   0.40277   0.00000  Uiso   1.00
H933   H     0.73052   0.55579   0.59723   0.00000  Uiso   1.00
H934   H     0.73052   0.94421   0.40277   0.00000  Uiso   1.00
H935   H     0.97976   0.80557   0.97324   0.00000  Uiso   1.00
H936   H     0.80557   0.52024   0.02676   0.00000  Uiso   1.00
H937   H     0.69443   0.52024   0.97324   0.00000  Uiso   1.00
H938   H     0.52024   0.80557   0.02676   0.00000  Uiso   1.00
H939   H     0.52024   0.69443   0.97324   0.00000  Uiso   1.00
H940   H     0.94443   0.77024   0.52676   0.00000  Uiso   1.00
O941   O     0.75000   0.50000   0.25000   0.00000  Uiso   1.00
O942   O     0.75000   0.96964   0.66317   0.00000  Uiso   1.00
O943   O     0.96964   0.75000   0.33683   0.00000  Uiso   1.00
O944   O     0.53036   0.75000   0.66317   0.00000  Uiso   1.00
O945   O     0.50000   0.71964   0.83683   0.00000  Uiso   1.00
O946   O     0.50000   0.78036   0.16317   0.00000  Uiso   1.00
O947   O     0.78036   0.50000   0.83683   0.00000  Uiso   1.00
O948   O     0.71964   0.50000   0.16317   0.00000  Uiso   1.00
O949   O     0.50000   0.78036   0.83683   0.00000  Uiso   1.00
O950   O     0.50000   0.71964   0.16317   0.00000  Uiso   1.00
O951   O     0.71964   0.50000   0.83683   0.00000  Uiso   1.00
O952   O     0.75000   0.50000   0.75000   0.00000  Uiso   1.00
O953   O     0.78036   0.50000   0.16317   0.00000  Uiso   1.00
O954   O     0.70726   0.57307   0.27282   0.00000  Uiso   1.00
O955   O     0.79275   0.92693   0.72718   0.00000  Uiso   1.00
O956   O     0.92693   0.70726   0.27282   0.00000  Uiso   1.00
O957   O     0.57307   0.79275   0.72718   0.00000  Uiso   1.00
O958   O     0.79275   0.92693   0.27282   0.00000  Uiso   1.00
O959   O     0.70726   0.57307   0.72718   0.00000  Uiso   1.00
O960   O     0.57307   0.79275   0.27282   0.00000  Uiso   1.00
O961   O     0.92693   0.70726   0.72718   0.00000  Uiso   1.00
O962   O     0.70726   0.92693   0.72718   0.00000  Uiso   1.00
O963   O     0.50000   0.75000   0.25000   0.00000  Uiso   1.00
O964   O     0.79275   0.57307   0.27282   0.00000  Uiso   1.00
O965   O     0.92693   0.79275   0.72718   0.00000  Uiso   1.00
O966   O     0.57307   0.70726   0.27282   0.00000  Uiso   1.00
O967   O     0.79275   0.57307   0.72718   0.00000  Uiso   1.00
O968   O     0.70726   0.92693   0.27282   0.00000  Uiso   1.00
O969   O     0.57307   0.70726   0.72718   0.00000  Uiso   1.00
O970   O     0.92693   0.79275   0.27282   0.00000  Uiso   1.00
O971   O     0.95726   0.82307   0.77282   0.00000  Uiso   1.00
O972   O     0.54275   0.67693   0.22718   0.00000  Uiso   1.00
O973   O     0.67693   0.95726   0.77282   0.00000  Uiso   1.00
O974   O     0.50000   0.75000   0.75000   0.00000  Uiso   1.00
O975   O     0.82307   0.54275   0.22718   0.00000  Uiso   1.00
O976   O     0.54275   0.67693   0.77282   0.00000  Uiso   1.00
O977   O     0.95726   0.82307   0.22718   0.00000  Uiso   1.00
O978   O     0.82307   0.54275   0.77282   0.00000  Uiso   1.00
O979   O     0.67693   0.95726   0.22718   0.00000  Uiso   1.00
O980   O     0.95726   0.67693   0.22718   0.00000  Uiso   1.00
O981   O     0.54275   0.82307   0.77282   0.00000  Uiso   1.00
O982   O     0.67693   0.54275   0.22718   0.00000  Uiso   1.00
O983   O     0.82307   0.95726   0.77282   0.00000  Uiso   1.00
O984   O     0.54275   0.82307   0.22718   0.00000  Uiso   1.00
O985   O     0.75000   0.96964   0.33683   0.00000  Uiso   1.00
O986   O     0.95726   0.67693   0.77282   0.00000  Uiso   1.00
O987   O     0.82307   0.95726   0.22718   0.00000  Uiso   1.00
O988   O     0.67693   0.54275   0.77282   0.00000  Uiso   1.00
O989   O     0.75000   0.53036   0.66317   0.00000  Uiso   1.00
O990   O     0.53036   0.75000   0.33683   0.00000  Uiso   1.00
O991   O     0.96964   0.75000   0.66317   0.00000  Uiso   1.00
O992   O     0.75000   0.53036   0.33683   0.00000  Uiso   1.00
Zn993  Zn    0.70660   0.50000   0.21760   0.00000  Uiso   1.00
Zn994  Zn    0.54340   0.75000   0.28240   0.00000  Uiso   1.00
Zn995  Zn    0.75000   0.95660   0.71760   0.00000  Uiso   1.00
Zn996  Zn    0.75000   0.54340   0.28240   0.00000  Uiso   1.00
Zn997  Zn    0.54340   0.75000   0.71760   0.00000  Uiso   1.00
Zn998  Zn    0.95660   0.75000   0.28240   0.00000  Uiso   1.00
Zn999  Zn    0.75000   0.54340   0.71760   0.00000  Uiso   1.00
Zn1000 Zn    0.75000   0.95660   0.28240   0.00000  Uiso   1.00
Zn1001 Zn    0.79340   0.50000   0.78240   0.00000  Uiso   1.00
Zn1002 Zn    0.50000   0.70660   0.21760   0.00000  Uiso   1.00
Zn1003 Zn    0.50000   0.79340   0.78240   0.00000  Uiso   1.00
Zn1004 Zn    0.79340   0.50000   0.21760   0.00000  Uiso   1.00
Zn1005 Zn    0.70660   0.50000   0.78240   0.00000  Uiso   1.00
Zn1006 Zn    0.50000   0.79340   0.21760   0.00000  Uiso   1.00
Zn1007 Zn    0.50000   0.70660   0.78240   0.00000  Uiso   1.00
Zn1008 Zn    0.95660   0.75000   0.71760   0.00000  Uiso   1.00
loop_
_geom_bond_atom_site_label_1
_geom_bond_atom_site_label_2
_geom_bond_distance
_geom_bond_site_symmetry_2
_ccdc_geom_bond_type
Br1    C115    1.933   .     S
Br2    C125    1.933   .     S
Br3    C126    1.933   .     S
Br4    C127    1.933   .     S
Br5    C128    1.933   .     S
Br6    C129    1.933   .     S
Br7    C130    1.933   .     S
Br8    C132    1.933   .     S
Br9    C133    1.933   .     S
Br10   C134    1.933   .     S
Br11   C135    1.933   .     S
Br12   C116    1.933   .     S
Br13   C136    1.933   .     S
Br14   C137    1.933   .     S
Br15   C138    1.933   .     S
Br16   C139    1.933   .     S
Br17   C140    1.933   .     S
Br18   C141    1.933   .     S
Br19   C143    1.933   .     S
Br20   C144    1.933   .     S
Br21   C145    1.933   .     S
Br22   C146    1.933   .     S
Br23   C117    1.933   .     S
Br24   C147    1.933   .     S
Br25   C148    1.933   .     S
Br26   C149    1.933   .     S
Br27   C118    1.933   .     S
Br28   C119    1.933   .     S
Br29   C121    1.933   .     S
Br30   C122    1.933   .     S
Br31   C123    1.933   .     S
Br32   C124    1.933   .     S
C33    H153    1.083   .     S
C33    C62     1.392   .     A
C33    C584    1.404   .     A
C34    H154    1.083   .     S
C34    C85     1.404   .     A
C34    C72     1.392   .     A
C35    C99     1.451   .     S
C35    C135    1.407   .     A
C35    C128    1.407   .     A
C36    C138    1.407   .     A
C36    C100    1.451   .     S
C36    C127    1.407   .     A
C37    C137    1.407   .     A
C37    C126    1.407   .     A
C37    C101    1.451   .     S
C38    C125    1.407   .     A
C38    C102    1.451   .     S
C38    C140    1.407   .     A
C39    C139    1.407   .     A
C39    C124    1.407   .     A
C39    C103    1.451   .     S
C40    C113    1.451   .     S
C40    C123    1.407   .     A
C40    C143    1.407   .     A
C41    C114    1.451   .     S
C41    C141    1.407   .     A
C41    C122    1.407   .     A
C42    C121    1.407   .     A
C42    C106    1.451   .     S
C42    C145    1.407   .     A
C43    C144    1.407   .     A
C43    C107    1.451   .     S
C43    C119    1.407   .     A
C44    C147    1.407   .     A
C44    C108    1.451   .     S
C44    C118    1.407   .     A
C45    C73     1.392   .     A
C45    H155    1.083   .     S
C45    C590    1.404   .     A
C46    C117    1.407   .     A
C46    C110    1.451   .     S
C46    C146    1.407   .     A
C47    C149    1.407   .     A
C47    C111    1.451   .     S
C47    C116    1.407   .     A
C48    C115    1.407   .     A
C48    C112    1.451   .     S
C48    C148    1.407   .     A
C49    C566    1.402   1_545 A
C49    C96     1.464   .     S
C49    C67     1.402   .     S
C50    C95     1.464   .     S
C50    C567    1.402   1_545 A
C50    C68     1.402   .     S
C51    C69     1.402   .     A
C51    C94     1.464   .     S
C51    C316    1.402   1_455 S
C52    C93     1.464   .     S
C52    C70     1.402   .     A
C52    C318    1.402   1_455 S
C53    C323    1.402   1_455 A
C53    C75     1.402   .     S
C53    C92     1.464   .     S
C54    C329    1.402   1_455 A
C54    C91     1.464   .     S
C54    C72     1.402   .     S
C55    C90     1.464   .     S
C55    C78     1.402   .     A
C55    C577    1.402   1_545 S
C56    H156    1.083   .     S
C56    C74     1.392   .     A
C56    C88     1.404   .     S
C57    C89     1.464   .     S
C57    C583    1.402   1_545 A
C57    C74     1.402   .     S
C58    C75     1.392   .     A
C58    C84     1.404   .     A
C58    H157    1.083   .     S
C59    C77     1.392   .     A
C59    H158    1.083   .     S
C59    C337    1.404   .     S
C60    H159    1.083   .     S
C60    C78     1.392   .     A
C60    C86     1.404   .     S
C61    H160    1.083   .     S
C61    C592    1.404   .     A
C61    C79     1.392   .     A
C62    H161    1.083   .     S
C62    C553    1.402   .     A
C63    H162    1.083   .     S
C63    C65     1.392   .     A
C63    C554    1.402   .     A
C64    H163    1.083   .     S
C64    C76     1.392   .     A
C64    C303    1.402   .     S
C65    H164    1.083   .     S
C65    C585    1.404   .     A
C66    C87     1.392   .     A
C66    H165    1.083   .     S
C66    C304    1.402   .     S
C67    C98     1.392   .     A
C67    H166    1.083   .     S
C68    C109    1.392   .     A
C68    H167    1.083   .     S
C69    C120    1.392   .     A
C69    H168    1.083   .     S
C70    H169    1.083   .     S
C70    C131    1.392   .     A
C71    H170    1.083   .     S
C71    C142    1.392   .     A
C71    C305    1.402   .     A
C72    H171    1.083   .     S
C73    H172    1.083   .     S
C73    C559    1.402   .     S
C74    H173    1.083   .     S
C75    H174    1.083   .     S
C76    H175    1.083   .     S
C76    C334    1.404   .     S
C77    C306    1.402   .     A
C77    H176    1.083   .     S
C78    H177    1.083   .     S
C79    H178    1.083   .     S
C79    C561    1.402   .     A
C80    C537    1.404   1_545 A
C80    C81     1.474   1_554 S
C80    C98     1.404   .     S
C81    C569    1.404   1_545 A
C81    C80     1.474   1_556 S
C81    C109    1.404   .     S
C82    C120    1.404   .     A
C82    C328    1.404   1_455 S
C82    C83     1.474   1_554 S
C83    C131    1.404   .     A
C83    C82     1.474   1_556 S
C83    C339    1.404   1_455 S
C84    C85     1.474   .     S
C84    C394    1.404   1_455 S
C85    C311    1.404   1_455 S
C86    C549    1.404   1_545 A
C86    C88     1.474   .     S
C87    H179    1.083   .     S
C87    C335    1.404   .     S
C88    C565    1.404   1_545 A
C89    O733    1.279   1_545 A
C89    O236    1.279   .     S
C90    O233    1.279   .     A
C90    O690    1.279   1_545 S
C91    O439    1.279   1_455 A
C91    O234    1.279   .     S
C92    O188    1.279   .     A
C92    O487    1.279   1_455 S
C93    O189    1.279   .     A
C93    O193    1.279   .     A
C94    O190    1.279   .     A
C94    O194    1.279   .     A
C95    O191    1.279   .     S
C95    O195    1.279   .     S
C96    O192    1.279   .     S
C96    O197    1.279   .     S
C97    O226    1.276   .     A
C97    O198    1.276   .     A
C97    C152    1.451   .     S
C98    H180    1.083   .     S
C99    O199    1.276   .     A
C99    O227    1.276   .     A
C100   O224    1.276   .     A
C100   O200    1.276   .     A
C101   O201    1.276   .     A
C101   O225    1.276   .     A
C102   O231    1.276   .     A
C102   O202    1.276   .     A
C103   O232    1.276   .     A
C103   O203    1.276   .     A
C104   C150    1.451   .     S
C104   O204    1.276   .     A
C104   O228    1.276   .     A
C105   C151    1.451   .     S
C105   O205    1.276   .     A
C105   O230    1.276   .     A
C106   O206    1.276   .     A
C106   O217    1.276   .     A
C107   O208    1.276   .     A
C107   O219    1.276   .     A
C108   O209    1.276   .     A
C108   O215    1.276   .     A
C109   H181    1.083   .     S
C110   O210    1.276   .     A
C110   O216    1.276   .     A
C111   O211    1.276   .     A
C111   O222    1.276   .     A
C112   O212    1.276   .     A
C112   O223    1.276   .     A
C113   O213    1.276   .     A
C113   O220    1.276   .     A
C114   O214    1.276   .     A
C114   O221    1.276   .     A
C115   C132    1.398   .     A
C116   C130    1.398   .     A
C117   C129    1.398   .     A
C118   C128    1.398   .     A
C119   C127    1.398   .     A
C120   H182    1.083   .     S
C121   C126    1.398   .     A
C122   C125    1.398   .     A
C123   C124    1.398   .     A
C129   C152    1.407   .     A
C130   C151    1.407   .     A
C131   H183    1.083   .     S
C132   C150    1.407   .     A
C133   C151    1.407   .     A
C133   C149    1.398   .     A
C134   C150    1.407   .     A
C134   C148    1.398   .     A
C135   C147    1.398   .     A
C136   C146    1.398   .     A
C136   C152    1.407   .     A
C137   C145    1.398   .     A
C138   C144    1.398   .     A
C139   C143    1.398   .     A
C140   C141    1.398   .     A
C142   H184    1.083   .     S
C142   C336    1.404   .     S
O185   Zn237   1.942   .     S
O185   Zn240   1.942   .     S
O185   Zn248   1.942   .     S
O185   Zn748   1.942   1_545 S
O186   Zn239   1.941   .     S
O186   C594    1.279   .     S
O187   C343    1.279   .     A
O187   Zn242   1.941   .     S
O188   Zn241   1.941   .     S
O189   Zn251   1.941   .     S
O190   Zn250   1.941   .     S
O191   Zn245   1.941   .     S
O192   Zn237   1.941   .     S
O193   Zn247   1.941   .     S
O194   Zn246   1.941   .     S
O195   Zn249   1.941   .     S
O196   Zn245   1.942   .     S
O196   Zn249   1.942   .     S
O196   Zn243   1.942   .     S
O196   Zn743   1.942   1_545 S
O197   Zn248   1.941   .     S
O198   Zn240   1.931   .     S
O199   Zn239   1.931   .     S
O200   Zn242   1.931   .     S
O201   Zn241   1.931   .     S
O202   Zn244   1.931   .     S
O203   Zn243   1.931   .     S
O204   Zn238   1.931   .     S
O205   Zn252   1.931   .     S
O206   Zn239   1.931   .     S
O207   Zn494   1.942   1_455 S
O207   Zn250   1.942   .     S
O207   Zn238   1.942   .     S
O207   Zn246   1.942   .     S
O208   Zn240   1.931   .     S
O209   Zn252   1.931   .     S
O210   Zn238   1.931   .     S
O211   Zn243   1.931   .     S
O212   Zn244   1.931   .     S
O213   Zn241   1.931   .     S
O214   Zn242   1.931   .     S
O215   Zn499   1.931   .     S
O216   Zn246   1.931   .     S
O217   Zn753   1.931   .     S
O218   Zn251   1.942   .     S
O218   Zn241   1.942   .     S
O218   Zn247   1.942   .     S
O218   Zn504   1.942   1_455 S
O219   Zn248   1.931   .     S
O220   Zn251   1.931   .     S
O221   Zn502   1.931   .     S
O222   Zn245   1.931   .     S
O223   Zn741   1.931   .     S
O224   Zn498   1.931   .     S
O225   Zn247   1.931   .     S
O226   Zn237   1.931   .     S
O227   Zn749   1.931   .     S
O228   Zn250   1.931   .     S
O229   Zn244   1.941   .     S
O229   C593    1.279   .     A
O230   Zn503   1.931   .     S
O231   Zn752   1.931   .     S
O232   Zn249   1.931   .     S
O233   Zn243   1.941   .     S
O234   Zn238   1.941   .     S
O235   Zn252   1.941   .     S
O235   C344    1.279   .     S
O236   Zn240   1.941   .     S
Zn237  O727    1.931   1_545 S
Zn239  O700    1.942   .     S
Zn242  O459    1.942   .     S
Zn244  O689    1.942   .     S
Zn245  O731    1.931   1_545 S
Zn246  O476    1.931   1_455 S
Zn247  O467    1.931   1_455 S
Zn248  O735    1.931   1_545 S
Zn249  O721    1.931   1_545 S
Zn250  O473    1.931   1_455 S
Zn251  O482    1.931   1_455 S
Zn252  O470    1.942   .     S
Br253  C367    1.933   .     S
Br254  C377    1.933   .     S
Br255  C378    1.933   .     S
Br256  C379    1.933   .     S
Br257  C380    1.933   .     S
Br258  C381    1.933   .     S
Br259  C382    1.933   .     S
Br260  C384    1.933   .     S
Br261  C385    1.933   .     S
Br262  C386    1.933   .     S
Br263  C387    1.933   .     S
Br264  C368    1.933   .     S
Br265  C388    1.933   .     S
Br266  C389    1.933   .     S
Br267  C390    1.933   .     S
Br268  C391    1.933   .     S
Br269  C392    1.933   .     S
Br270  C393    1.933   .     S
Br271  C395    1.933   .     S
Br272  C396    1.933   .     S
Br273  C397    1.933   .     S
Br274  C398    1.933   .     S
Br275  C369    1.933   .     S
Br276  C399    1.933   .     S
Br277  C400    1.933   .     S
Br278  C401    1.933   .     S
Br279  C370    1.933   .     S
Br280  C371    1.933   .     S
Br281  C373    1.933   .     S
Br282  C374    1.933   .     S
Br283  C375    1.933   .     S
Br284  C376    1.933   .     S
C285   H405    1.083   .     S
C285   C314    1.392   .     A
C285   C836    1.404   .     A
C286   H406    1.083   .     S
C286   C337    1.404   .     A
C286   C324    1.392   .     A
C287   C351    1.451   .     S
C287   C387    1.407   .     A
C287   C380    1.407   .     A
C288   C390    1.407   .     A
C288   C352    1.451   .     S
C288   C379    1.407   .     A
C289   C389    1.407   .     A
C289   C378    1.407   .     A
C289   C353    1.451   .     S
C290   C377    1.407   .     A
C290   C354    1.451   .     S
C290   C392    1.407   .     A
C291   C391    1.407   .     A
C291   C376    1.407   .     A
C291   C355    1.451   .     S
C292   C365    1.451   .     S
C292   C375    1.407   .     A
C292   C395    1.407   .     A
C293   C366    1.451   .     S
C293   C393    1.407   .     A
C293   C374    1.407   .     A
C294   C373    1.407   .     A
C294   C358    1.451   .     S
C294   C397    1.407   .     A
C295   C396    1.407   .     A
C295   C359    1.451   .     S
C295   C371    1.407   .     A
C296   C399    1.407   .     A
C296   C360    1.451   .     S
C296   C370    1.407   .     A
C297   C325    1.392   .     A
C297   H407    1.083   .     S
C297   C842    1.404   .     A
C298   C369    1.407   .     A
C298   C362    1.451   .     S
C298   C398    1.407   .     A
C299   C401    1.407   .     A
C299   C363    1.451   .     S
C299   C368    1.407   .     A
C300   C367    1.407   .     A
C300   C364    1.451   .     S
C300   C400    1.407   .     A
C301   C818    1.402   1_545 A
C301   C348    1.464   .     S
C301   C319    1.402   .     S
C302   C347    1.464   .     S
C302   C819    1.402   1_545 A
C302   C320    1.402   .     S
C303   C321    1.402   .     A
C303   C346    1.464   .     S
C304   C345    1.464   .     S
C304   C322    1.402   .     A
C305   C327    1.402   .     S
C305   C344    1.464   .     S
C306   C343    1.464   .     S
C306   C324    1.402   .     S
C307   C342    1.464   .     S
C307   C330    1.402   .     A
C307   C829    1.402   1_545 S
C308   H408    1.083   .     S
C308   C326    1.392   .     A
C308   C340    1.404   .     S
C309   C341    1.464   .     S
C309   C835    1.402   1_545 A
C309   C326    1.402   .     S
C310   C327    1.392   .     A
C310   C336    1.404   .     A
C310   H409    1.083   .     S
C311   C329    1.392   .     A
C311   H410    1.083   .     S
C311   C85     1.404   1_655 S
C312   H411    1.083   .     S
C312   C330    1.392   .     A
C312   C338    1.404   .     S
C313   H412    1.083   .     S
C313   C844    1.404   .     A
C313   C331    1.392   .     A
C314   H413    1.083   .     S
C314   C805    1.402   .     A
C315   H414    1.083   .     S
C315   C317    1.392   .     A
C315   C806    1.402   .     A
C316   H415    1.083   .     S
C316   C328    1.392   .     A
C316   C51     1.402   1_655 S
C317   H416    1.083   .     S
C317   C837    1.404   .     A
C318   C339    1.392   .     A
C318   H417    1.083   .     S
C318   C52     1.402   1_655 S
C319   C350    1.392   .     A
C319   H418    1.083   .     S
C320   C361    1.392   .     A
C320   H419    1.083   .     S
C321   C372    1.392   .     A
C321   H420    1.083   .     S
C322   H421    1.083   .     S
C322   C383    1.392   .     A
C323   H422    1.083   .     S
C323   C394    1.392   .     A
C323   C53     1.402   1_655 A
C324   H423    1.083   .     S
C325   H424    1.083   .     S
C325   C811    1.402   .     S
C326   H425    1.083   .     S
C327   H426    1.083   .     S
C328   H427    1.083   .     S
C328   C82     1.404   1_655 S
C329   C54     1.402   1_655 A
C329   H428    1.083   .     S
C330   H429    1.083   .     S
C331   H430    1.083   .     S
C331   C813    1.402   .     A
C332   C789    1.404   1_545 A
C332   C333    1.474   1_554 S
C332   C350    1.404   .     S
C333   C821    1.404   1_545 A
C333   C332    1.474   1_556 S
C333   C361    1.404   .     S
C334   C372    1.404   .     A
C334   C335    1.474   1_554 S
C335   C383    1.404   .     A
C335   C334    1.474   1_556 S
C336   C337    1.474   .     S
C338   C801    1.404   1_545 A
C338   C340    1.474   .     S
C339   H431    1.083   .     S
C339   C83     1.404   1_655 S
C340   C817    1.404   1_545 A
C341   O985    1.279   1_545 A
C341   O488    1.279   .     S
C342   O485    1.279   .     A
C342   O942    1.279   1_545 S
C343   O486    1.279   .     S
C344   O440    1.279   .     A
C345   O441    1.279   .     A
C345   O445    1.279   .     A
C346   O442    1.279   .     A
C346   O446    1.279   .     A
C347   O443    1.279   .     S
C347   O447    1.279   .     S
C348   O444    1.279   .     S
C348   O449    1.279   .     S
C349   O478    1.276   .     A
C349   O450    1.276   .     A
C349   C404    1.451   .     S
C350   H432    1.083   .     S
C351   O451    1.276   .     A
C351   O479    1.276   .     A
C352   O476    1.276   .     A
C352   O452    1.276   .     A
C353   O453    1.276   .     A
C353   O477    1.276   .     A
C354   O483    1.276   .     A
C354   O454    1.276   .     A
C355   O484    1.276   .     A
C355   O455    1.276   .     A
C356   C402    1.451   .     S
C356   O456    1.276   .     A
C356   O480    1.276   .     A
C357   C403    1.451   .     S
C357   O457    1.276   .     A
C357   O482    1.276   .     A
C358   O458    1.276   .     A
C358   O469    1.276   .     A
C359   O460    1.276   .     A
C359   O471    1.276   .     A
C360   O461    1.276   .     A
C360   O467    1.276   .     A
C361   H433    1.083   .     S
C362   O462    1.276   .     A
C362   O468    1.276   .     A
C363   O463    1.276   .     A
C363   O474    1.276   .     A
C364   O464    1.276   .     A
C364   O475    1.276   .     A
C365   O465    1.276   .     A
C365   O472    1.276   .     A
C366   O466    1.276   .     A
C366   O473    1.276   .     A
C367   C384    1.398   .     A
C368   C382    1.398   .     A
C369   C381    1.398   .     A
C370   C380    1.398   .     A
C371   C379    1.398   .     A
C372   H434    1.083   .     S
C373   C378    1.398   .     A
C374   C377    1.398   .     A
C375   C376    1.398   .     A
C381   C404    1.407   .     A
C382   C403    1.407   .     A
C383   H435    1.083   .     S
C384   C402    1.407   .     A
C385   C403    1.407   .     A
C385   C401    1.398   .     A
C386   C402    1.407   .     A
C386   C400    1.398   .     A
C387   C399    1.398   .     A
C388   C398    1.398   .     A
C388   C404    1.407   .     A
C389   C397    1.398   .     A
C390   C396    1.398   .     A
C391   C395    1.398   .     A
C392   C393    1.398   .     A
C394   H436    1.083   .     S
C394   C84     1.404   1_655 S
O437   Zn489   1.942   .     S
O437   Zn492   1.942   .     S
O437   Zn500   1.942   .     S
O437   Zn1000  1.942   1_545 S
O438   Zn491   1.941   .     S
O438   C846    1.279   .     S
O439   C91     1.279   1_655 A
O439   Zn494   1.941   .     S
O440   Zn493   1.941   .     S
O441   Zn503   1.941   .     S
O442   Zn502   1.941   .     S
O443   Zn497   1.941   .     S
O444   Zn489   1.941   .     S
O445   Zn499   1.941   .     S
O446   Zn498   1.941   .     S
O447   Zn501   1.941   .     S
O448   Zn497   1.942   .     S
O448   Zn501   1.942   .     S
O448   Zn495   1.942   .     S
O448   Zn995   1.942   1_545 S
O449   Zn500   1.941   .     S
O450   Zn492   1.931   .     S
O451   Zn491   1.931   .     S
O452   Zn494   1.931   .     S
O453   Zn493   1.931   .     S
O454   Zn496   1.931   .     S
O455   Zn495   1.931   .     S
O456   Zn490   1.931   .     S
O457   Zn504   1.931   .     S
O458   Zn491   1.931   .     S
O459   Zn502   1.942   .     S
O459   Zn490   1.942   .     S
O459   Zn498   1.942   .     S
O460   Zn492   1.931   .     S
O461   Zn504   1.931   .     S
O462   Zn490   1.931   .     S
O463   Zn495   1.931   .     S
O464   Zn496   1.931   .     S
O465   Zn493   1.931   .     S
O466   Zn494   1.931   .     S
O467   Zn247   1.931   1_655 S
O468   Zn498   1.931   .     S
O469   Zn1005  1.931   .     S
O470   Zn503   1.942   .     S
O470   Zn493   1.942   .     S
O470   Zn499   1.942   .     S
O471   Zn500   1.931   .     S
O472   Zn503   1.931   .     S
O473   Zn250   1.931   1_655 S
O474   Zn497   1.931   .     S
O475   Zn993   1.931   .     S
O476   Zn246   1.931   1_655 S
O477   Zn499   1.931   .     S
O478   Zn489   1.931   .     S
O479   Zn1001  1.931   .     S
O480   Zn502   1.931   .     S
O481   Zn496   1.941   .     S
O481   C845    1.279   .     A
O482   Zn251   1.931   1_655 S
O483   Zn1004  1.931   .     S
O484   Zn501   1.931   .     S
O485   Zn495   1.941   .     S
O486   Zn490   1.941   .     S
O487   Zn504   1.941   .     S
O487   C92     1.279   1_655 S
O488   Zn492   1.941   .     S
Zn489  O979    1.931   1_545 S
Zn491  O952    1.942   .     S
Zn494  O207    1.942   1_655 S
Zn496  O941    1.942   .     S
Zn497  O983    1.931   1_545 S
Zn500  O987    1.931   1_545 S
Zn501  O973    1.931   1_545 S
Zn504  O218    1.942   1_655 S
Br505  C619    1.933   .     S
Br506  C629    1.933   .     S
Br507  C630    1.933   .     S
Br508  C631    1.933   .     S
Br509  C632    1.933   .     S
Br510  C633    1.933   .     S
Br511  C634    1.933   .     S
Br512  C636    1.933   .     S
Br513  C637    1.933   .     S
Br514  C638    1.933   .     S
Br515  C639    1.933   .     S
Br516  C620    1.933   .     S
Br517  C640    1.933   .     S
Br518  C641    1.933   .     S
Br519  C642    1.933   .     S
Br520  C643    1.933   .     S
Br521  C644    1.933   .     S
Br522  C645    1.933   .     S
Br523  C647    1.933   .     S
Br524  C648    1.933   .     S
Br525  C649    1.933   .     S
Br526  C650    1.933   .     S
Br527  C621    1.933   .     S
Br528  C651    1.933   .     S
Br529  C652    1.933   .     S
Br530  C653    1.933   .     S
Br531  C622    1.933   .     S
Br532  C623    1.933   .     S
Br533  C625    1.933   .     S
Br534  C626    1.933   .     S
Br535  C627    1.933   .     S
Br536  C628    1.933   .     S
C537   H657    1.083   .     S
C537   C566    1.392   .     A
C537   C80     1.404   1_565 A
C538   H658    1.083   .     S
C538   C589    1.404   .     A
C538   C576    1.392   .     A
C539   C603    1.451   .     S
C539   C639    1.407   .     A
C539   C632    1.407   .     A
C540   C642    1.407   .     A
C540   C604    1.451   .     S
C540   C631    1.407   .     A
C541   C641    1.407   .     A
C541   C630    1.407   .     A
C541   C605    1.451   .     S
C542   C629    1.407   .     A
C542   C606    1.451   .     S
C542   C644    1.407   .     A
C543   C643    1.407   .     A
C543   C628    1.407   .     A
C543   C607    1.451   .     S
C544   C617    1.451   .     S
C544   C627    1.407   .     A
C544   C647    1.407   .     A
C545   C618    1.451   .     S
C545   C645    1.407   .     A
C545   C626    1.407   .     A
C546   C625    1.407   .     A
C546   C610    1.451   .     S
C546   C649    1.407   .     A
C547   C648    1.407   .     A
C547   C611    1.451   .     S
C547   C623    1.407   .     A
C548   C651    1.407   .     A
C548   C612    1.451   .     S
C548   C622    1.407   .     A
C549   C577    1.392   .     A
C549   H659    1.083   .     S
C549   C86     1.404   1_565 A
C550   C621    1.407   .     A
C550   C614    1.451   .     S
C550   C650    1.407   .     A
C551   C653    1.407   .     A
C551   C615    1.451   .     S
C551   C620    1.407   .     A
C552   C619    1.407   .     A
C552   C616    1.451   .     S
C552   C652    1.407   .     A
C553   C600    1.464   .     S
C553   C571    1.402   .     S
C554   C599    1.464   .     S
C554   C572    1.402   .     S
C555   C573    1.402   .     A
C555   C598    1.464   .     S
C555   C820    1.402   1_455 S
C556   C597    1.464   .     S
C556   C574    1.402   .     A
C556   C822    1.402   1_455 S
C557   C827    1.402   1_455 A
C557   C579    1.402   .     S
C557   C596    1.464   .     S
C558   C833    1.402   1_455 A
C558   C595    1.464   .     S
C558   C576    1.402   .     S
C559   C594    1.464   .     S
C559   C582    1.402   .     A
C560   H660    1.083   .     S
C560   C578    1.392   .     A
C560   C592    1.404   .     S
C561   C593    1.464   .     S
C561   C578    1.402   .     S
C562   C579    1.392   .     A
C562   C588    1.404   .     A
C562   H661    1.083   .     S
C563   C581    1.392   .     A
C563   H662    1.083   .     S
C563   C841    1.404   .     S
C564   H663    1.083   .     S
C564   C582    1.392   .     A
C564   C590    1.404   .     S
C565   H664    1.083   .     S
C565   C88     1.404   1_565 A
C565   C583    1.392   .     A
C566   H665    1.083   .     S
C566   C49     1.402   1_565 A
C567   H666    1.083   .     S
C567   C569    1.392   .     A
C567   C50     1.402   1_565 A
C568   H667    1.083   .     S
C568   C580    1.392   .     A
C568   C807    1.402   .     S
C569   H668    1.083   .     S
C569   C81     1.404   1_565 A
C570   C591    1.392   .     A
C570   H669    1.083   .     S
C570   C808    1.402   .     S
C571   C602    1.392   .     A
C571   H670    1.083   .     S
C572   C613    1.392   .     A
C572   H671    1.083   .     S
C573   C624    1.392   .     A
C573   H672    1.083   .     S
C574   H673    1.083   .     S
C574   C635    1.392   .     A
C575   H674    1.083   .     S
C575   C646    1.392   .     A
C575   C809    1.402   .     A
C576   H675    1.083   .     S
C577   H676    1.083   .     S
C577   C55     1.402   1_565 S
C578   H677    1.083   .     S
C579   H678    1.083   .     S
C580   H679    1.083   .     S
C580   C838    1.404   .     S
C581   C810    1.402   .     A
C581   H680    1.083   .     S
C582   H681    1.083   .     S
C583   H682    1.083   .     S
C583   C57     1.402   1_565 A
C584   C585    1.474   1_554 S
C584   C602    1.404   .     S
C585   C584    1.474   1_556 S
C585   C613    1.404   .     S
C586   C624    1.404   .     A
C586   C832    1.404   1_455 S
C586   C587    1.474   1_554 S
C587   C635    1.404   .     A
C587   C586    1.474   1_556 S
C587   C843    1.404   1_455 S
C588   C589    1.474   .     S
C588   C898    1.404   1_455 S
C589   C815    1.404   1_455 S
C590   C592    1.474   .     S
C591   H683    1.083   .     S
C591   C839    1.404   .     S
C593   O740    1.279   .     S
C594   O737    1.279   .     A
C595   O943    1.279   1_455 A
C595   O738    1.279   .     S
C596   O692    1.279   .     A
C596   O991    1.279   1_455 S
C597   O693    1.279   .     A
C597   O697    1.279   .     A
C598   O694    1.279   .     A
C598   O698    1.279   .     A
C599   O695    1.279   .     S
C599   O699    1.279   .     S
C600   O696    1.279   .     S
C600   O701    1.279   .     S
C601   O730    1.276   .     A
C601   O702    1.276   .     A
C601   C656    1.451   .     S
C602   H684    1.083   .     S
C603   O703    1.276   .     A
C603   O731    1.276   .     A
C604   O728    1.276   .     A
C604   O704    1.276   .     A
C605   O705    1.276   .     A
C605   O729    1.276   .     A
C606   O735    1.276   .     A
C606   O706    1.276   .     A
C607   O736    1.276   .     A
C607   O707    1.276   .     A
C608   C654    1.451   .     S
C608   O708    1.276   .     A
C608   O732    1.276   .     A
C609   C655    1.451   .     S
C609   O709    1.276   .     A
C609   O734    1.276   .     A
C610   O710    1.276   .     A
C610   O721    1.276   .     A
C611   O712    1.276   .     A
C611   O723    1.276   .     A
C612   O713    1.276   .     A
C612   O719    1.276   .     A
C613   H685    1.083   .     S
C614   O714    1.276   .     A
C614   O720    1.276   .     A
C615   O715    1.276   .     A
C615   O726    1.276   .     A
C616   O716    1.276   .     A
C616   O727    1.276   .     A
C617   O717    1.276   .     A
C617   O724    1.276   .     A
C618   O718    1.276   .     A
C618   O725    1.276   .     A
C619   C636    1.398   .     A
C620   C634    1.398   .     A
C621   C633    1.398   .     A
C622   C632    1.398   .     A
C623   C631    1.398   .     A
C624   H686    1.083   .     S
C625   C630    1.398   .     A
C626   C629    1.398   .     A
C627   C628    1.398   .     A
C633   C656    1.407   .     A
C634   C655    1.407   .     A
C635   H687    1.083   .     S
C636   C654    1.407   .     A
C637   C655    1.407   .     A
C637   C653    1.398   .     A
C638   C654    1.407   .     A
C638   C652    1.398   .     A
C639   C651    1.398   .     A
C640   C650    1.398   .     A
C640   C656    1.407   .     A
C641   C649    1.398   .     A
C642   C648    1.398   .     A
C643   C647    1.398   .     A
C644   C645    1.398   .     A
C646   H688    1.083   .     S
C646   C840    1.404   .     S
O689   Zn741   1.942   .     S
O689   Zn744   1.942   .     S
O689   Zn752   1.942   .     S
O690   Zn743   1.941   .     S
O690   C90     1.279   1_565 S
O691   C847    1.279   .     A
O691   Zn746   1.941   .     S
O692   Zn745   1.941   .     S
O693   Zn755   1.941   .     S
O694   Zn754   1.941   .     S
O695   Zn749   1.941   .     S
O696   Zn741   1.941   .     S
O697   Zn751   1.941   .     S
O698   Zn750   1.941   .     S
O699   Zn753   1.941   .     S
O700   Zn749   1.942   .     S
O700   Zn753   1.942   .     S
O700   Zn747   1.942   .     S
O701   Zn752   1.941   .     S
O702   Zn744   1.931   .     S
O703   Zn743   1.931   .     S
O704   Zn746   1.931   .     S
O705   Zn745   1.931   .     S
O706   Zn748   1.931   .     S
O707   Zn747   1.931   .     S
O708   Zn742   1.931   .     S
O709   Zn756   1.931   .     S
O710   Zn743   1.931   .     S
O711   Zn998   1.942   1_455 S
O711   Zn754   1.942   .     S
O711   Zn742   1.942   .     S
O711   Zn750   1.942   .     S
O712   Zn744   1.931   .     S
O713   Zn756   1.931   .     S
O714   Zn742   1.931   .     S
O715   Zn747   1.931   .     S
O716   Zn748   1.931   .     S
O717   Zn745   1.931   .     S
O718   Zn746   1.931   .     S
O719   Zn1003  1.931   .     S
O720   Zn750   1.931   .     S
O721   Zn249   1.931   1_565 S
O722   Zn755   1.942   .     S
O722   Zn745   1.942   .     S
O722   Zn751   1.942   .     S
O722   Zn1008  1.942   1_455 S
O723   Zn752   1.931   .     S
O724   Zn755   1.931   .     S
O725   Zn1006  1.931   .     S
O726   Zn749   1.931   .     S
O727   Zn237   1.931   1_565 S
O728   Zn1002  1.931   .     S
O729   Zn751   1.931   .     S
O730   Zn741   1.931   .     S
O731   Zn245   1.931   1_565 S
O732   Zn754   1.931   .     S
O733   Zn748   1.941   .     S
O733   C89     1.279   1_565 A
O734   Zn1007  1.931   .     S
O735   Zn248   1.931   1_565 S
O736   Zn753   1.931   .     S
O737   Zn747   1.941   .     S
O738   Zn742   1.941   .     S
O739   Zn756   1.941   .     S
O739   C848    1.279   .     S
O740   Zn744   1.941   .     S
Zn743  O196    1.942   1_565 S
Zn746  O963    1.942   .     S
Zn748  O185    1.942   1_565 S
Zn750  O980    1.931   1_455 S
Zn751  O971    1.931   1_455 S
Zn754  O977    1.931   1_455 S
Zn755  O986    1.931   1_455 S
Zn756  O974    1.942   .     S
Br757  C871    1.933   .     S
Br758  C881    1.933   .     S
Br759  C882    1.933   .     S
Br760  C883    1.933   .     S
Br761  C884    1.933   .     S
Br762  C885    1.933   .     S
Br763  C886    1.933   .     S
Br764  C888    1.933   .     S
Br765  C889    1.933   .     S
Br766  C890    1.933   .     S
Br767  C891    1.933   .     S
Br768  C872    1.933   .     S
Br769  C892    1.933   .     S
Br770  C893    1.933   .     S
Br771  C894    1.933   .     S
Br772  C895    1.933   .     S
Br773  C896    1.933   .     S
Br774  C897    1.933   .     S
Br775  C899    1.933   .     S
Br776  C900    1.933   .     S
Br777  C901    1.933   .     S
Br778  C902    1.933   .     S
Br779  C873    1.933   .     S
Br780  C903    1.933   .     S
Br781  C904    1.933   .     S
Br782  C905    1.933   .     S
Br783  C874    1.933   .     S
Br784  C875    1.933   .     S
Br785  C877    1.933   .     S
Br786  C878    1.933   .     S
Br787  C879    1.933   .     S
Br788  C880    1.933   .     S
C789   H909    1.083   .     S
C789   C818    1.392   .     A
C789   C332    1.404   1_565 A
C790   H910    1.083   .     S
C790   C841    1.404   .     A
C790   C828    1.392   .     A
C791   C855    1.451   .     S
C791   C891    1.407   .     A
C791   C884    1.407   .     A
C792   C894    1.407   .     A
C792   C856    1.451   .     S
C792   C883    1.407   .     A
C793   C893    1.407   .     A
C793   C882    1.407   .     A
C793   C857    1.451   .     S
C794   C881    1.407   .     A
C794   C858    1.451   .     S
C794   C896    1.407   .     A
C795   C895    1.407   .     A
C795   C880    1.407   .     A
C795   C859    1.451   .     S
C796   C869    1.451   .     S
C796   C879    1.407   .     A
C796   C899    1.407   .     A
C797   C870    1.451   .     S
C797   C897    1.407   .     A
C797   C878    1.407   .     A
C798   C877    1.407   .     A
C798   C862    1.451   .     S
C798   C901    1.407   .     A
C799   C900    1.407   .     A
C799   C863    1.451   .     S
C799   C875    1.407   .     A
C800   C903    1.407   .     A
C800   C864    1.451   .     S
C800   C874    1.407   .     A
C801   C829    1.392   .     A
C801   H911    1.083   .     S
C801   C338    1.404   1_565 A
C802   C873    1.407   .     A
C802   C866    1.451   .     S
C802   C902    1.407   .     A
C803   C905    1.407   .     A
C803   C867    1.451   .     S
C803   C872    1.407   .     A
C804   C871    1.407   .     A
C804   C868    1.451   .     S
C804   C904    1.407   .     A
C805   C852    1.464   .     S
C805   C823    1.402   .     S
C806   C851    1.464   .     S
C806   C824    1.402   .     S
C807   C825    1.402   .     A
C807   C850    1.464   .     S
C808   C849    1.464   .     S
C808   C826    1.402   .     A
C809   C831    1.402   .     S
C809   C848    1.464   .     S
C810   C847    1.464   .     S
C810   C828    1.402   .     S
C811   C846    1.464   .     S
C811   C834    1.402   .     A
C812   H912    1.083   .     S
C812   C830    1.392   .     A
C812   C844    1.404   .     S
C813   C845    1.464   .     S
C813   C830    1.402   .     S
C814   C831    1.392   .     A
C814   C840    1.404   .     A
C814   H913    1.083   .     S
C815   C833    1.392   .     A
C815   H914    1.083   .     S
C815   C589    1.404   1_655 S
C816   H915    1.083   .     S
C816   C834    1.392   .     A
C816   C842    1.404   .     S
C817   H916    1.083   .     S
C817   C340    1.404   1_565 A
C817   C835    1.392   .     A
C818   H917    1.083   .     S
C818   C301    1.402   1_565 A
C819   H918    1.083   .     S
C819   C821    1.392   .     A
C819   C302    1.402   1_565 A
C820   H919    1.083   .     S
C820   C832    1.392   .     A
C820   C555    1.402   1_655 S
C821   H920    1.083   .     S
C821   C333    1.404   1_565 A
C822   C843    1.392   .     A
C822   H921    1.083   .     S
C822   C556    1.402   1_655 S
C823   C854    1.392   .     A
C823   H922    1.083   .     S
C824   C865    1.392   .     A
C824   H923    1.083   .     S
C825   C876    1.392   .     A
C825   H924    1.083   .     S
C826   H925    1.083   .     S
C826   C887    1.392   .     A
C827   H926    1.083   .     S
C827   C898    1.392   .     A
C827   C557    1.402   1_655 A
C828   H927    1.083   .     S
C829   H928    1.083   .     S
C829   C307    1.402   1_565 S
C830   H929    1.083   .     S
C831   H930    1.083   .     S
C832   H931    1.083   .     S
C832   C586    1.404   1_655 S
C833   C558    1.402   1_655 A
C833   H932    1.083   .     S
C834   H933    1.083   .     S
C835   H934    1.083   .     S
C835   C309    1.402   1_565 A
C836   C837    1.474   1_554 S
C836   C854    1.404   .     S
C837   C836    1.474   1_556 S
C837   C865    1.404   .     S
C838   C876    1.404   .     A
C838   C839    1.474   1_554 S
C839   C887    1.404   .     A
C839   C838    1.474   1_556 S
C840   C841    1.474   .     S
C842   C844    1.474   .     S
C843   H935    1.083   .     S
C843   C587    1.404   1_655 S
C845   O992    1.279   .     S
C846   O989    1.279   .     A
C847   O990    1.279   .     S
C848   O944    1.279   .     A
C849   O945    1.279   .     A
C849   O949    1.279   .     A
C850   O946    1.279   .     A
C850   O950    1.279   .     A
C851   O947    1.279   .     S
C851   O951    1.279   .     S
C852   O948    1.279   .     S
C852   O953    1.279   .     S
C853   O982    1.276   .     A
C853   O954    1.276   .     A
C853   C908    1.451   .     S
C854   H936    1.083   .     S
C855   O955    1.276   .     A
C855   O983    1.276   .     A
C856   O980    1.276   .     A
C856   O956    1.276   .     A
C857   O957    1.276   .     A
C857   O981    1.276   .     A
C858   O987    1.276   .     A
C858   O958    1.276   .     A
C859   O988    1.276   .     A
C859   O959    1.276   .     A
C860   C906    1.451   .     S
C860   O960    1.276   .     A
C860   O984    1.276   .     A
C861   C907    1.451   .     S
C861   O961    1.276   .     A
C861   O986    1.276   .     A
C862   O962    1.276   .     A
C862   O973    1.276   .     A
C863   O964    1.276   .     A
C863   O975    1.276   .     A
C864   O965    1.276   .     A
C864   O971    1.276   .     A
C865   H937    1.083   .     S
C866   O966    1.276   .     A
C866   O972    1.276   .     A
C867   O967    1.276   .     A
C867   O978    1.276   .     A
C868   O968    1.276   .     A
C868   O979    1.276   .     A
C869   O969    1.276   .     A
C869   O976    1.276   .     A
C870   O970    1.276   .     A
C870   O977    1.276   .     A
C871   C888    1.398   .     A
C872   C886    1.398   .     A
C873   C885    1.398   .     A
C874   C884    1.398   .     A
C875   C883    1.398   .     A
C876   H938    1.083   .     S
C877   C882    1.398   .     A
C878   C881    1.398   .     A
C879   C880    1.398   .     A
C885   C908    1.407   .     A
C886   C907    1.407   .     A
C887   H939    1.083   .     S
C888   C906    1.407   .     A
C889   C907    1.407   .     A
C889   C905    1.398   .     A
C890   C906    1.407   .     A
C890   C904    1.398   .     A
C891   C903    1.398   .     A
C892   C902    1.398   .     A
C892   C908    1.407   .     A
C893   C901    1.398   .     A
C894   C900    1.398   .     A
C895   C899    1.398   .     A
C896   C897    1.398   .     A
C898   H940    1.083   .     S
C898   C588    1.404   1_655 S
O941   Zn993   1.942   .     S
O941   Zn996   1.942   .     S
O941   Zn1004  1.942   .     S
O942   Zn995   1.941   .     S
O942   C342    1.279   1_565 S
O943   C595    1.279   1_655 A
O943   Zn998   1.941   .     S
O944   Zn997   1.941   .     S
O945   Zn1007  1.941   .     S
O946   Zn1006  1.941   .     S
O947   Zn1001  1.941   .     S
O948   Zn993   1.941   .     S
O949   Zn1003  1.941   .     S
O950   Zn1002  1.941   .     S
O951   Zn1005  1.941   .     S
O952   Zn1001  1.942   .     S
O952   Zn1005  1.942   .     S
O952   Zn999   1.942   .     S
O953   Zn1004  1.941   .     S
O954   Zn996   1.931   .     S
O955   Zn995   1.931   .     S
O956   Zn998   1.931   .     S
O957   Zn997   1.931   .     S
O958   Zn1000  1.931   .     S
O959   Zn999   1.931   .     S
O960   Zn994   1.931   .     S
O961   Zn1008  1.931   .     S
O962   Zn995   1.931   .     S
O963   Zn1006  1.942   .     S
O963   Zn994   1.942   .     S
O963   Zn1002  1.942   .     S
O964   Zn996   1.931   .     S
O965   Zn1008  1.931   .     S
O966   Zn994   1.931   .     S
O967   Zn999   1.931   .     S
O968   Zn1000  1.931   .     S
O969   Zn997   1.931   .     S
O970   Zn998   1.931   .     S
O971   Zn751   1.931   1_655 S
O972   Zn1002  1.931   .     S
O973   Zn501   1.931   1_565 S
O974   Zn1007  1.942   .     S
O974   Zn997   1.942   .     S
O974   Zn1003  1.942   .     S
O975   Zn1004  1.931   .     S
O976   Zn1007  1.931   .     S
O977   Zn754   1.931   1_655 S
O978   Zn1001  1.931   .     S
O979   Zn489   1.931   1_565 S
O980   Zn750   1.931   1_655 S
O981   Zn1003  1.931   .     S
O982   Zn993   1.931   .     S
O983   Zn497   1.931   1_565 S
O984   Zn1006  1.931   .     S
O985   Zn1000  1.941   .     S
O985   C341    1.279   1_565 A
O986   Zn755   1.931   1_655 S
O987   Zn500   1.931   1_565 S
O988   Zn1005  1.931   .     S
O989   Zn999   1.941   .     S
O990   Zn994   1.941   .     S
O991   Zn1008  1.941   .     S
O991   C596    1.279   1_655 S
O992   Zn996   1.941   .     S
Zn995  O448    1.942   1_565 S
Zn998  O711    1.942   1_655 S
Zn1000 O437    1.942   1_565 S
Zn1008 O722    1.942   1_655 S
