data_str_m1_o10_o18_pcu_sym.233
_audit_creation_date              2020-01-03
_audit_creation_method            'Materials Studio'
_symmetry_space_group_name_H-M    'P1'
_symmetry_Int_Tables_number       1
_symmetry_cell_setting            triclinic
loop_
_symmetry_equiv_pos_as_xyz
  x,y,z
_cell_length_a                    32.8284
_cell_length_b                    32.4686
_cell_length_c                    35.4450
_cell_angle_alpha                 97.8770
_cell_angle_beta                  72.8753
_cell_angle_gamma                 98.7499
loop_
_atom_site_label
_atom_site_type_symbol
_atom_site_fract_x
_atom_site_fract_y
_atom_site_fract_z
_atom_site_U_iso_or_equiv
_atom_site_adp_type
_atom_site_occupancy
C1     C     0.05278   0.15947   0.25908   0.00000  Uiso   1.00
C2     C     0.19635   0.12413   0.45884   0.00000  Uiso   1.00
C3     C     0.21949   0.10598   0.47814   0.00000  Uiso   1.00
C4     C     0.28138   0.17331   0.24098   0.00000  Uiso   1.00
C5     C     0.21093   0.11352   0.01955   0.00000  Uiso   1.00
C6     C     0.17578   0.13549   0.04155   0.00000  Uiso   1.00
C7     C     0.23804   0.10112   0.03915   0.00000  Uiso   1.00
C8     C     0.23152   0.11101   0.08003   0.00000  Uiso   1.00
C9     C     0.17243   0.14868   0.08156   0.00000  Uiso   1.00
C10    C     0.32772   0.17554   0.23754   0.00000  Uiso   1.00
C11    C     0.00752   0.15563   0.26296   0.00000  Uiso   1.00
C12    C     0.09446   0.20928   0.42340   0.00000  Uiso   1.00
C13    C     0.18124   0.32232   0.23794   0.00000  Uiso   1.00
C14    C     0.15187   0.01199   0.26198   0.00000  Uiso   1.00
C15    C     0.15610   0.05609   0.25881   0.00000  Uiso   1.00
C16    C     0.17699   0.27771   0.24126   0.00000  Uiso   1.00
C17    C     0.18835   0.14528   0.14392   0.00000  Uiso   1.00
C18    C     0.14504   0.18734   0.35646   0.00000  Uiso   1.00
C19    C     0.13163   0.19113   0.40047   0.00000  Uiso   1.00
C20    C     0.19832   0.13520   0.10110   0.00000  Uiso   1.00
C21    C     0.08069   0.20689   0.46442   0.00000  Uiso   1.00
C22    C     0.02888   0.19983   0.20578   0.00000  Uiso   1.00
C23    C     0.15490   0.17261   0.41967   0.00000  Uiso   1.00
C24    C     0.01480   0.21806   0.17472   0.00000  Uiso   1.00
C25    C     0.31170   0.12728   0.29397   0.00000  Uiso   1.00
C26    C     0.00151   0.10482   0.31544   0.00000  Uiso   1.00
C27    C     0.26106   0.09663   0.10003   0.00000  Uiso   1.00
C28    C     0.24028   0.05751   0.12103   0.00000  Uiso   1.00
C29    C     0.24119   0.03759   0.45312   0.00000  Uiso   1.00
C30    C     0.03465   0.20086   0.39594   0.00000  Uiso   1.00
C31    C     0.07706   0.14076   0.08095   0.00000  Uiso   1.00
C32    C     0.07389   0.09306   0.07844   0.00000  Uiso   1.00
C33    C     0.14003   0.16796   0.46061   0.00000  Uiso   1.00
C34    C     0.10236   0.18553   0.48286   0.00000  Uiso   1.00
C35    C     0.16176   0.14681   0.48010   0.00000  Uiso   1.00
C36    C     0.14751   0.14709   0.02215   0.00000  Uiso   1.00
C37    C     0.10528   0.15797   0.04242   0.00000  Uiso   1.00
C38    C     0.08493   0.17945   0.02286   0.00000  Uiso   1.00
H39    H     0.05392   0.18980   0.03847   0.00000  Uiso   1.00
H40    H     0.32773   0.24342   0.18873   0.00000  Uiso   1.00
H41    H     0.04367   0.23208   0.15298   0.00000  Uiso   1.00
H42    H     0.04590   0.22601   0.22107   0.00000  Uiso   1.00
H43    H     0.05281   0.17840   0.18877   0.00000  Uiso   1.00
H44    H     0.02264   0.08338   0.29403   0.00000  Uiso   1.00
H45    H     0.02088   0.12779   0.33126   0.00000  Uiso   1.00
H46    H     0.31081   0.08597   0.33760   0.00000  Uiso   1.00
H47    H     0.28947   0.14638   0.31711   0.00000  Uiso   1.00
H48    H     0.29317   0.10211   0.27910   0.00000  Uiso   1.00
H49    H     0.21085   0.06401   0.14505   0.00000  Uiso   1.00
H50    H     0.26471   0.08404   0.02268   0.00000  Uiso   1.00
H51    H     0.23187   0.03181   0.09950   0.00000  Uiso   1.00
H52    H     0.26316   0.04711   0.13440   0.00000  Uiso   1.00
H53    H     0.29159   0.08932   0.07782   0.00000  Uiso   1.00
H54    H     0.26998   0.12202   0.12158   0.00000  Uiso   1.00
H55    H     0.26864   0.09250   0.42771   0.00000  Uiso   1.00
H56    H     0.21618   0.02878   0.43713   0.00000  Uiso   1.00
H57    H     0.22877   0.02689   0.48332   0.00000  Uiso   1.00
H58    H     0.26974   0.02148   0.43684   0.00000  Uiso   1.00
H59    H     0.05980   0.25627   0.42118   0.00000  Uiso   1.00
H60    H     0.00990   0.19206   0.42353   0.00000  Uiso   1.00
H61    H     0.20840   0.00319   0.21585   0.00000  Uiso   1.00
H62    H     0.04651   0.17210   0.37798   0.00000  Uiso   1.00
H63    H     0.01978   0.21677   0.37844   0.00000  Uiso   1.00
H64    H     0.05001   0.08171   0.10545   0.00000  Uiso   1.00
H65    H     0.06326   0.07869   0.05210   0.00000  Uiso   1.00
H66    H     0.10516   0.08272   0.07655   0.00000  Uiso   1.00
H67    H     0.08661   0.15513   0.10757   0.00000  Uiso   1.00
H68    H     0.04368   0.14843   0.08720   0.00000  Uiso   1.00
H69    H     0.12426   0.33183   0.28404   0.00000  Uiso   1.00
H70    H     0.15173   0.17182   0.09749   0.00000  Uiso   1.00
H71    H     0.05171   0.22023   0.48166   0.00000  Uiso   1.00
H72    H     0.18470   0.16190   0.40175   0.00000  Uiso   1.00
H73    H     0.20508   0.11820   0.42699   0.00000  Uiso   1.00
H74    H     0.33130   0.19308   0.15812   0.00000  Uiso   1.00
N75    N     0.25326   0.08240   0.45529   0.00000  Uiso   1.00
N76    N     0.06979   0.22868   0.40551   0.00000  Uiso   1.00
O77    O     0.16667   0.16667   0.25000   0.00000  Uiso   1.00
O78    O     0.15693   0.12393   0.16625   0.00000  Uiso   1.00
O79    O     0.12687   0.20646   0.33749   0.00000  Uiso   1.00
O80    O     0.21088   0.17493   0.15877   0.00000  Uiso   1.00
O81    O     0.17198   0.16135   0.33749   0.00000  Uiso   1.00
O82    O     0.17849   0.08101   0.27820   0.00000  Uiso   1.00
O83    O     0.14581   0.26136   0.26767   0.00000  Uiso   1.00
O84    O     0.07452   0.13251   0.23607   0.00000  Uiso   1.00
O85    O     0.26785   0.19179   0.21805   0.00000  Uiso   1.00
O86    O     0.06990   0.18960   0.27820   0.00000  Uiso   1.00
O87    O     0.25440   0.15277   0.26767   0.00000  Uiso   1.00
O88    O     0.13800   0.06903   0.23607   0.00000  Uiso   1.00
O89    O     0.20437   0.25527   0.21805   0.00000  Uiso   1.00
Zn90   Zn    0.19244   0.14090   0.28277   0.00000  Uiso   1.00
Zn91   Zn    0.13459   0.12378   0.22257   0.00000  Uiso   1.00
Zn92   Zn    0.21166   0.19664   0.21188   0.00000  Uiso   1.00
Zn93   Zn    0.12798   0.20535   0.28277   0.00000  Uiso   1.00
C94    C     0.38611   0.15947   0.25908   0.00000  Uiso   1.00
C95    C     0.52969   0.12413   0.45884   0.00000  Uiso   1.00
C96    C     0.55282   0.10598   0.47814   0.00000  Uiso   1.00
C97    C     0.61471   0.17331   0.24098   0.00000  Uiso   1.00
C98    C     0.54426   0.11352   0.01955   0.00000  Uiso   1.00
C99    C     0.50912   0.13549   0.04155   0.00000  Uiso   1.00
C100   C     0.57137   0.10112   0.03915   0.00000  Uiso   1.00
C101   C     0.56485   0.11101   0.08003   0.00000  Uiso   1.00
C102   C     0.50577   0.14868   0.08156   0.00000  Uiso   1.00
C103   C     0.66105   0.17554   0.23754   0.00000  Uiso   1.00
C104   C     0.34085   0.15563   0.26296   0.00000  Uiso   1.00
C105   C     0.42780   0.20928   0.42340   0.00000  Uiso   1.00
C106   C     0.51457   0.32232   0.23794   0.00000  Uiso   1.00
C107   C     0.48520   0.01199   0.26198   0.00000  Uiso   1.00
C108   C     0.48943   0.05609   0.25881   0.00000  Uiso   1.00
C109   C     0.51033   0.27771   0.24126   0.00000  Uiso   1.00
C110   C     0.52169   0.14528   0.14392   0.00000  Uiso   1.00
C111   C     0.47837   0.18734   0.35646   0.00000  Uiso   1.00
C112   C     0.46496   0.19113   0.40047   0.00000  Uiso   1.00
C113   C     0.53165   0.13520   0.10110   0.00000  Uiso   1.00
C114   C     0.41402   0.20689   0.46442   0.00000  Uiso   1.00
C115   C     0.36221   0.19983   0.20578   0.00000  Uiso   1.00
C116   C     0.48823   0.17261   0.41967   0.00000  Uiso   1.00
C117   C     0.34813   0.21806   0.17472   0.00000  Uiso   1.00
C118   C     0.64503   0.12728   0.29397   0.00000  Uiso   1.00
C119   C     0.33485   0.10482   0.31544   0.00000  Uiso   1.00
C120   C     0.59440   0.09663   0.10003   0.00000  Uiso   1.00
C121   C     0.57361   0.05751   0.12103   0.00000  Uiso   1.00
C122   C     0.57453   0.03759   0.45312   0.00000  Uiso   1.00
C123   C     0.36799   0.20086   0.39594   0.00000  Uiso   1.00
C124   C     0.41040   0.14076   0.08095   0.00000  Uiso   1.00
C125   C     0.40722   0.09306   0.07844   0.00000  Uiso   1.00
C126   C     0.47337   0.16796   0.46061   0.00000  Uiso   1.00
C127   C     0.43570   0.18553   0.48286   0.00000  Uiso   1.00
C128   C     0.49509   0.14681   0.48010   0.00000  Uiso   1.00
C129   C     0.48085   0.14709   0.02215   0.00000  Uiso   1.00
C130   C     0.43861   0.15797   0.04242   0.00000  Uiso   1.00
C131   C     0.41826   0.17945   0.02286   0.00000  Uiso   1.00
H132   H     0.38725   0.18980   0.03847   0.00000  Uiso   1.00
H133   H     0.66106   0.24342   0.18873   0.00000  Uiso   1.00
H134   H     0.37700   0.23208   0.15298   0.00000  Uiso   1.00
H135   H     0.37923   0.22601   0.22107   0.00000  Uiso   1.00
H136   H     0.38614   0.17840   0.18877   0.00000  Uiso   1.00
H137   H     0.35597   0.08338   0.29403   0.00000  Uiso   1.00
H138   H     0.35422   0.12779   0.33126   0.00000  Uiso   1.00
H139   H     0.64414   0.08597   0.33760   0.00000  Uiso   1.00
H140   H     0.62280   0.14638   0.31711   0.00000  Uiso   1.00
H141   H     0.62650   0.10211   0.27910   0.00000  Uiso   1.00
H142   H     0.54418   0.06401   0.14505   0.00000  Uiso   1.00
H143   H     0.59805   0.08404   0.02268   0.00000  Uiso   1.00
H144   H     0.56520   0.03181   0.09950   0.00000  Uiso   1.00
H145   H     0.59649   0.04711   0.13440   0.00000  Uiso   1.00
H146   H     0.62492   0.08932   0.07782   0.00000  Uiso   1.00
H147   H     0.60331   0.12202   0.12158   0.00000  Uiso   1.00
H148   H     0.60197   0.09250   0.42771   0.00000  Uiso   1.00
H149   H     0.54951   0.02878   0.43713   0.00000  Uiso   1.00
H150   H     0.56210   0.02689   0.48332   0.00000  Uiso   1.00
H151   H     0.60308   0.02148   0.43684   0.00000  Uiso   1.00
H152   H     0.39314   0.25627   0.42118   0.00000  Uiso   1.00
H153   H     0.34324   0.19206   0.42353   0.00000  Uiso   1.00
H154   H     0.54173   0.00319   0.21585   0.00000  Uiso   1.00
H155   H     0.37985   0.17210   0.37798   0.00000  Uiso   1.00
H156   H     0.35312   0.21677   0.37844   0.00000  Uiso   1.00
H157   H     0.38334   0.08171   0.10545   0.00000  Uiso   1.00
H158   H     0.39659   0.07869   0.05210   0.00000  Uiso   1.00
H159   H     0.43849   0.08272   0.07655   0.00000  Uiso   1.00
H160   H     0.41995   0.15513   0.10757   0.00000  Uiso   1.00
H161   H     0.37701   0.14843   0.08720   0.00000  Uiso   1.00
H162   H     0.45759   0.33183   0.28404   0.00000  Uiso   1.00
H163   H     0.48507   0.17182   0.09749   0.00000  Uiso   1.00
H164   H     0.38504   0.22023   0.48166   0.00000  Uiso   1.00
H165   H     0.51803   0.16190   0.40175   0.00000  Uiso   1.00
H166   H     0.53842   0.11820   0.42699   0.00000  Uiso   1.00
H167   H     0.66463   0.19308   0.15812   0.00000  Uiso   1.00
N168   N     0.58659   0.08240   0.45529   0.00000  Uiso   1.00
N169   N     0.40312   0.22868   0.40551   0.00000  Uiso   1.00
O170   O     0.50000   0.16667   0.25000   0.00000  Uiso   1.00
O171   O     0.49027   0.12393   0.16625   0.00000  Uiso   1.00
O172   O     0.46020   0.20646   0.33749   0.00000  Uiso   1.00
O173   O     0.54421   0.17493   0.15877   0.00000  Uiso   1.00
O174   O     0.50532   0.16135   0.33749   0.00000  Uiso   1.00
O175   O     0.51182   0.08101   0.27820   0.00000  Uiso   1.00
O176   O     0.47914   0.26136   0.26767   0.00000  Uiso   1.00
O177   O     0.40785   0.13251   0.23607   0.00000  Uiso   1.00
O178   O     0.60119   0.19179   0.21805   0.00000  Uiso   1.00
O179   O     0.40323   0.18960   0.27820   0.00000  Uiso   1.00
O180   O     0.58773   0.15277   0.26767   0.00000  Uiso   1.00
O181   O     0.47133   0.06903   0.23607   0.00000  Uiso   1.00
O182   O     0.53771   0.25527   0.21805   0.00000  Uiso   1.00
Zn183  Zn    0.52577   0.14090   0.28277   0.00000  Uiso   1.00
Zn184  Zn    0.46792   0.12378   0.22257   0.00000  Uiso   1.00
Zn185  Zn    0.54500   0.19664   0.21188   0.00000  Uiso   1.00
Zn186  Zn    0.46131   0.20535   0.28277   0.00000  Uiso   1.00
C187   C     0.71945   0.15947   0.25908   0.00000  Uiso   1.00
C188   C     0.86302   0.12413   0.45884   0.00000  Uiso   1.00
C189   C     0.88616   0.10598   0.47814   0.00000  Uiso   1.00
C190   C     0.94804   0.17331   0.24098   0.00000  Uiso   1.00
C191   C     0.87760   0.11352   0.01955   0.00000  Uiso   1.00
C192   C     0.84245   0.13549   0.04155   0.00000  Uiso   1.00
C193   C     0.90471   0.10112   0.03915   0.00000  Uiso   1.00
C194   C     0.89819   0.11101   0.08003   0.00000  Uiso   1.00
C195   C     0.83910   0.14868   0.08156   0.00000  Uiso   1.00
C196   C     0.99439   0.17554   0.23754   0.00000  Uiso   1.00
C197   C     0.67418   0.15563   0.26296   0.00000  Uiso   1.00
C198   C     0.76113   0.20928   0.42340   0.00000  Uiso   1.00
C199   C     0.84791   0.32232   0.23794   0.00000  Uiso   1.00
C200   C     0.81853   0.01199   0.26198   0.00000  Uiso   1.00
C201   C     0.82276   0.05609   0.25881   0.00000  Uiso   1.00
C202   C     0.84366   0.27771   0.24126   0.00000  Uiso   1.00
C203   C     0.85502   0.14528   0.14392   0.00000  Uiso   1.00
C204   C     0.81171   0.18734   0.35646   0.00000  Uiso   1.00
C205   C     0.79829   0.19113   0.40047   0.00000  Uiso   1.00
C206   C     0.86499   0.13520   0.10110   0.00000  Uiso   1.00
C207   C     0.74735   0.20689   0.46442   0.00000  Uiso   1.00
C208   C     0.69555   0.19983   0.20578   0.00000  Uiso   1.00
C209   C     0.82156   0.17261   0.41967   0.00000  Uiso   1.00
C210   C     0.68147   0.21806   0.17472   0.00000  Uiso   1.00
C211   C     0.97837   0.12728   0.29397   0.00000  Uiso   1.00
C212   C     0.66818   0.10482   0.31544   0.00000  Uiso   1.00
C213   C     0.92773   0.09663   0.10003   0.00000  Uiso   1.00
C214   C     0.90695   0.05751   0.12103   0.00000  Uiso   1.00
C215   C     0.90786   0.03759   0.45312   0.00000  Uiso   1.00
C216   C     0.70132   0.20086   0.39594   0.00000  Uiso   1.00
C217   C     0.74373   0.14076   0.08095   0.00000  Uiso   1.00
C218   C     0.74055   0.09306   0.07844   0.00000  Uiso   1.00
C219   C     0.80670   0.16796   0.46061   0.00000  Uiso   1.00
C220   C     0.76903   0.18553   0.48286   0.00000  Uiso   1.00
C221   C     0.82843   0.14681   0.48010   0.00000  Uiso   1.00
C222   C     0.81418   0.14709   0.02215   0.00000  Uiso   1.00
C223   C     0.77194   0.15797   0.04242   0.00000  Uiso   1.00
C224   C     0.75159   0.17945   0.02286   0.00000  Uiso   1.00
H225   H     0.72058   0.18980   0.03847   0.00000  Uiso   1.00
H226   H     0.99440   0.24342   0.18873   0.00000  Uiso   1.00
H227   H     0.71034   0.23208   0.15298   0.00000  Uiso   1.00
H228   H     0.71257   0.22601   0.22107   0.00000  Uiso   1.00
H229   H     0.71947   0.17840   0.18877   0.00000  Uiso   1.00
H230   H     0.68930   0.08338   0.29403   0.00000  Uiso   1.00
H231   H     0.68755   0.12779   0.33126   0.00000  Uiso   1.00
H232   H     0.97747   0.08597   0.33760   0.00000  Uiso   1.00
H233   H     0.95614   0.14638   0.31711   0.00000  Uiso   1.00
H234   H     0.95983   0.10211   0.27910   0.00000  Uiso   1.00
H235   H     0.87752   0.06401   0.14505   0.00000  Uiso   1.00
H236   H     0.93138   0.08404   0.02268   0.00000  Uiso   1.00
H237   H     0.89853   0.03181   0.09950   0.00000  Uiso   1.00
H238   H     0.92983   0.04711   0.13440   0.00000  Uiso   1.00
H239   H     0.95826   0.08932   0.07782   0.00000  Uiso   1.00
H240   H     0.93665   0.12202   0.12158   0.00000  Uiso   1.00
H241   H     0.93531   0.09250   0.42771   0.00000  Uiso   1.00
H242   H     0.88285   0.02878   0.43713   0.00000  Uiso   1.00
H243   H     0.89544   0.02689   0.48332   0.00000  Uiso   1.00
H244   H     0.93641   0.02148   0.43684   0.00000  Uiso   1.00
H245   H     0.72647   0.25627   0.42118   0.00000  Uiso   1.00
H246   H     0.67657   0.19206   0.42353   0.00000  Uiso   1.00
H247   H     0.87506   0.00319   0.21585   0.00000  Uiso   1.00
H248   H     0.71318   0.17210   0.37798   0.00000  Uiso   1.00
H249   H     0.68645   0.21677   0.37844   0.00000  Uiso   1.00
H250   H     0.71668   0.08171   0.10545   0.00000  Uiso   1.00
H251   H     0.72992   0.07869   0.05210   0.00000  Uiso   1.00
H252   H     0.77183   0.08272   0.07655   0.00000  Uiso   1.00
H253   H     0.75328   0.15513   0.10757   0.00000  Uiso   1.00
H254   H     0.71034   0.14843   0.08720   0.00000  Uiso   1.00
H255   H     0.79093   0.33183   0.28404   0.00000  Uiso   1.00
H256   H     0.81840   0.17182   0.09749   0.00000  Uiso   1.00
H257   H     0.71838   0.22023   0.48166   0.00000  Uiso   1.00
H258   H     0.85137   0.16190   0.40175   0.00000  Uiso   1.00
H259   H     0.87175   0.11820   0.42699   0.00000  Uiso   1.00
H260   H     0.99797   0.19308   0.15812   0.00000  Uiso   1.00
N261   N     0.91992   0.08240   0.45529   0.00000  Uiso   1.00
N262   N     0.73646   0.22868   0.40551   0.00000  Uiso   1.00
O263   O     0.83333   0.16667   0.25000   0.00000  Uiso   1.00
O264   O     0.82360   0.12393   0.16625   0.00000  Uiso   1.00
O265   O     0.79354   0.20646   0.33749   0.00000  Uiso   1.00
O266   O     0.87755   0.17493   0.15877   0.00000  Uiso   1.00
O267   O     0.83865   0.16135   0.33749   0.00000  Uiso   1.00
O268   O     0.84515   0.08101   0.27820   0.00000  Uiso   1.00
O269   O     0.81247   0.26136   0.26767   0.00000  Uiso   1.00
O270   O     0.74119   0.13251   0.23607   0.00000  Uiso   1.00
O271   O     0.93452   0.19179   0.21805   0.00000  Uiso   1.00
O272   O     0.73656   0.18960   0.27820   0.00000  Uiso   1.00
O273   O     0.92106   0.15277   0.26767   0.00000  Uiso   1.00
O274   O     0.80467   0.06903   0.23607   0.00000  Uiso   1.00
O275   O     0.87104   0.25527   0.21805   0.00000  Uiso   1.00
Zn276  Zn    0.85910   0.14090   0.28277   0.00000  Uiso   1.00
Zn277  Zn    0.80125   0.12378   0.22257   0.00000  Uiso   1.00
Zn278  Zn    0.87833   0.19664   0.21188   0.00000  Uiso   1.00
Zn279  Zn    0.79465   0.20535   0.28277   0.00000  Uiso   1.00
C280   C     0.05278   0.49280   0.25908   0.00000  Uiso   1.00
C281   C     0.19635   0.45746   0.45884   0.00000  Uiso   1.00
C282   C     0.21949   0.43931   0.47814   0.00000  Uiso   1.00
C283   C     0.28138   0.50665   0.24098   0.00000  Uiso   1.00
C284   C     0.21093   0.44685   0.01955   0.00000  Uiso   1.00
C285   C     0.17578   0.46882   0.04155   0.00000  Uiso   1.00
C286   C     0.23804   0.43445   0.03915   0.00000  Uiso   1.00
C287   C     0.23152   0.44434   0.08003   0.00000  Uiso   1.00
C288   C     0.17243   0.48201   0.08156   0.00000  Uiso   1.00
C289   C     0.32772   0.50887   0.23754   0.00000  Uiso   1.00
C290   C     0.00752   0.48897   0.26296   0.00000  Uiso   1.00
C291   C     0.09446   0.54262   0.42340   0.00000  Uiso   1.00
C292   C     0.18124   0.65565   0.23794   0.00000  Uiso   1.00
C293   C     0.15187   0.34532   0.26198   0.00000  Uiso   1.00
C294   C     0.15610   0.38942   0.25881   0.00000  Uiso   1.00
C295   C     0.17699   0.61105   0.24126   0.00000  Uiso   1.00
C296   C     0.18835   0.47861   0.14392   0.00000  Uiso   1.00
C297   C     0.14504   0.52068   0.35646   0.00000  Uiso   1.00
C298   C     0.13163   0.52447   0.40047   0.00000  Uiso   1.00
C299   C     0.19832   0.46854   0.10110   0.00000  Uiso   1.00
C300   C     0.08069   0.54023   0.46442   0.00000  Uiso   1.00
C301   C     0.02888   0.53316   0.20578   0.00000  Uiso   1.00
C302   C     0.15490   0.50594   0.41967   0.00000  Uiso   1.00
C303   C     0.01480   0.55140   0.17472   0.00000  Uiso   1.00
C304   C     0.31170   0.46062   0.29397   0.00000  Uiso   1.00
C305   C     0.00151   0.43816   0.31544   0.00000  Uiso   1.00
C306   C     0.26106   0.42997   0.10003   0.00000  Uiso   1.00
C307   C     0.24028   0.39084   0.12103   0.00000  Uiso   1.00
C308   C     0.24119   0.37092   0.45312   0.00000  Uiso   1.00
C309   C     0.03465   0.53419   0.39594   0.00000  Uiso   1.00
C310   C     0.07706   0.47409   0.08095   0.00000  Uiso   1.00
C311   C     0.07389   0.42639   0.07844   0.00000  Uiso   1.00
C312   C     0.14003   0.50129   0.46061   0.00000  Uiso   1.00
C313   C     0.10236   0.51887   0.48286   0.00000  Uiso   1.00
C314   C     0.16176   0.48015   0.48010   0.00000  Uiso   1.00
C315   C     0.14751   0.48043   0.02215   0.00000  Uiso   1.00
C316   C     0.10528   0.49131   0.04242   0.00000  Uiso   1.00
C317   C     0.08493   0.51278   0.02286   0.00000  Uiso   1.00
H318   H     0.05392   0.52314   0.03847   0.00000  Uiso   1.00
H319   H     0.32773   0.57675   0.18873   0.00000  Uiso   1.00
H320   H     0.04367   0.56542   0.15298   0.00000  Uiso   1.00
H321   H     0.04590   0.55935   0.22107   0.00000  Uiso   1.00
H322   H     0.05281   0.51174   0.18877   0.00000  Uiso   1.00
H323   H     0.02264   0.41671   0.29403   0.00000  Uiso   1.00
H324   H     0.02088   0.46112   0.33126   0.00000  Uiso   1.00
H325   H     0.31081   0.41931   0.33760   0.00000  Uiso   1.00
H326   H     0.28947   0.47971   0.31711   0.00000  Uiso   1.00
H327   H     0.29317   0.43544   0.27910   0.00000  Uiso   1.00
H328   H     0.21085   0.39734   0.14505   0.00000  Uiso   1.00
H329   H     0.26471   0.41737   0.02268   0.00000  Uiso   1.00
H330   H     0.23187   0.36515   0.09950   0.00000  Uiso   1.00
H331   H     0.26316   0.38044   0.13440   0.00000  Uiso   1.00
H332   H     0.29159   0.42265   0.07782   0.00000  Uiso   1.00
H333   H     0.26998   0.45535   0.12158   0.00000  Uiso   1.00
H334   H     0.26864   0.42584   0.42771   0.00000  Uiso   1.00
H335   H     0.21618   0.36212   0.43713   0.00000  Uiso   1.00
H336   H     0.22877   0.36023   0.48332   0.00000  Uiso   1.00
H337   H     0.26974   0.35482   0.43684   0.00000  Uiso   1.00
H338   H     0.05980   0.58960   0.42118   0.00000  Uiso   1.00
H339   H     0.00990   0.52539   0.42353   0.00000  Uiso   1.00
H340   H     0.20840   0.33653   0.21585   0.00000  Uiso   1.00
H341   H     0.04651   0.50543   0.37798   0.00000  Uiso   1.00
H342   H     0.01978   0.55011   0.37844   0.00000  Uiso   1.00
H343   H     0.05001   0.41505   0.10545   0.00000  Uiso   1.00
H344   H     0.06326   0.41202   0.05210   0.00000  Uiso   1.00
H345   H     0.10516   0.41606   0.07655   0.00000  Uiso   1.00
H346   H     0.08661   0.48846   0.10757   0.00000  Uiso   1.00
H347   H     0.04368   0.48177   0.08720   0.00000  Uiso   1.00
H348   H     0.12426   0.66516   0.28404   0.00000  Uiso   1.00
H349   H     0.15173   0.50515   0.09749   0.00000  Uiso   1.00
H350   H     0.05171   0.55357   0.48166   0.00000  Uiso   1.00
H351   H     0.18470   0.49523   0.40175   0.00000  Uiso   1.00
H352   H     0.20508   0.45153   0.42699   0.00000  Uiso   1.00
H353   H     0.33130   0.52642   0.15812   0.00000  Uiso   1.00
N354   N     0.25326   0.41574   0.45529   0.00000  Uiso   1.00
N355   N     0.06979   0.56201   0.40551   0.00000  Uiso   1.00
O356   O     0.16667   0.50000   0.25000   0.00000  Uiso   1.00
O357   O     0.15693   0.45726   0.16625   0.00000  Uiso   1.00
O358   O     0.12687   0.53979   0.33749   0.00000  Uiso   1.00
O359   O     0.21088   0.50826   0.15877   0.00000  Uiso   1.00
O360   O     0.17198   0.49468   0.33749   0.00000  Uiso   1.00
O361   O     0.17849   0.41434   0.27820   0.00000  Uiso   1.00
O362   O     0.14581   0.59469   0.26767   0.00000  Uiso   1.00
O363   O     0.07452   0.46584   0.23607   0.00000  Uiso   1.00
O364   O     0.26785   0.52512   0.21805   0.00000  Uiso   1.00
O365   O     0.06990   0.52293   0.27820   0.00000  Uiso   1.00
O366   O     0.25440   0.48610   0.26767   0.00000  Uiso   1.00
O367   O     0.13800   0.40236   0.23607   0.00000  Uiso   1.00
O368   O     0.20437   0.58860   0.21805   0.00000  Uiso   1.00
Zn369  Zn    0.19244   0.47423   0.28277   0.00000  Uiso   1.00
Zn370  Zn    0.13459   0.45711   0.22257   0.00000  Uiso   1.00
Zn371  Zn    0.21166   0.52997   0.21188   0.00000  Uiso   1.00
Zn372  Zn    0.12798   0.53868   0.28277   0.00000  Uiso   1.00
C373   C     0.38611   0.49280   0.25908   0.00000  Uiso   1.00
C374   C     0.52969   0.45746   0.45884   0.00000  Uiso   1.00
C375   C     0.55282   0.43931   0.47814   0.00000  Uiso   1.00
C376   C     0.61471   0.50665   0.24098   0.00000  Uiso   1.00
C377   C     0.54426   0.44685   0.01955   0.00000  Uiso   1.00
C378   C     0.50912   0.46882   0.04155   0.00000  Uiso   1.00
C379   C     0.57137   0.43445   0.03915   0.00000  Uiso   1.00
C380   C     0.56485   0.44434   0.08003   0.00000  Uiso   1.00
C381   C     0.50577   0.48201   0.08156   0.00000  Uiso   1.00
C382   C     0.66105   0.50887   0.23754   0.00000  Uiso   1.00
C383   C     0.34085   0.48897   0.26296   0.00000  Uiso   1.00
C384   C     0.42780   0.54262   0.42340   0.00000  Uiso   1.00
C385   C     0.51457   0.65565   0.23794   0.00000  Uiso   1.00
C386   C     0.48520   0.34532   0.26198   0.00000  Uiso   1.00
C387   C     0.48943   0.38942   0.25881   0.00000  Uiso   1.00
C388   C     0.51033   0.61105   0.24126   0.00000  Uiso   1.00
C389   C     0.52169   0.47861   0.14392   0.00000  Uiso   1.00
C390   C     0.47837   0.52068   0.35646   0.00000  Uiso   1.00
C391   C     0.46496   0.52447   0.40047   0.00000  Uiso   1.00
C392   C     0.53165   0.46854   0.10110   0.00000  Uiso   1.00
C393   C     0.41402   0.54023   0.46442   0.00000  Uiso   1.00
C394   C     0.36221   0.53316   0.20578   0.00000  Uiso   1.00
C395   C     0.48823   0.50594   0.41967   0.00000  Uiso   1.00
C396   C     0.34813   0.55140   0.17472   0.00000  Uiso   1.00
C397   C     0.64503   0.46062   0.29397   0.00000  Uiso   1.00
C398   C     0.33485   0.43816   0.31544   0.00000  Uiso   1.00
C399   C     0.59440   0.42997   0.10003   0.00000  Uiso   1.00
C400   C     0.57361   0.39084   0.12103   0.00000  Uiso   1.00
C401   C     0.57453   0.37092   0.45312   0.00000  Uiso   1.00
C402   C     0.36799   0.53419   0.39594   0.00000  Uiso   1.00
C403   C     0.41040   0.47409   0.08095   0.00000  Uiso   1.00
C404   C     0.40722   0.42639   0.07844   0.00000  Uiso   1.00
C405   C     0.47337   0.50129   0.46061   0.00000  Uiso   1.00
C406   C     0.43570   0.51887   0.48286   0.00000  Uiso   1.00
C407   C     0.49509   0.48015   0.48010   0.00000  Uiso   1.00
C408   C     0.48085   0.48043   0.02215   0.00000  Uiso   1.00
C409   C     0.43861   0.49131   0.04242   0.00000  Uiso   1.00
C410   C     0.41826   0.51278   0.02286   0.00000  Uiso   1.00
H411   H     0.38725   0.52314   0.03847   0.00000  Uiso   1.00
H412   H     0.66106   0.57675   0.18873   0.00000  Uiso   1.00
H413   H     0.37700   0.56542   0.15298   0.00000  Uiso   1.00
H414   H     0.37923   0.55935   0.22107   0.00000  Uiso   1.00
H415   H     0.38614   0.51174   0.18877   0.00000  Uiso   1.00
H416   H     0.35597   0.41671   0.29403   0.00000  Uiso   1.00
H417   H     0.35422   0.46112   0.33126   0.00000  Uiso   1.00
H418   H     0.64414   0.41931   0.33760   0.00000  Uiso   1.00
H419   H     0.62280   0.47971   0.31711   0.00000  Uiso   1.00
H420   H     0.62650   0.43544   0.27910   0.00000  Uiso   1.00
H421   H     0.54418   0.39734   0.14505   0.00000  Uiso   1.00
H422   H     0.59805   0.41737   0.02268   0.00000  Uiso   1.00
H423   H     0.56520   0.36515   0.09950   0.00000  Uiso   1.00
H424   H     0.59649   0.38044   0.13440   0.00000  Uiso   1.00
H425   H     0.62492   0.42265   0.07782   0.00000  Uiso   1.00
H426   H     0.60331   0.45535   0.12158   0.00000  Uiso   1.00
H427   H     0.60197   0.42584   0.42771   0.00000  Uiso   1.00
H428   H     0.54951   0.36212   0.43713   0.00000  Uiso   1.00
H429   H     0.56210   0.36023   0.48332   0.00000  Uiso   1.00
H430   H     0.60308   0.35482   0.43684   0.00000  Uiso   1.00
H431   H     0.39314   0.58960   0.42118   0.00000  Uiso   1.00
H432   H     0.34324   0.52539   0.42353   0.00000  Uiso   1.00
H433   H     0.54173   0.33653   0.21585   0.00000  Uiso   1.00
H434   H     0.37985   0.50543   0.37798   0.00000  Uiso   1.00
H435   H     0.35312   0.55011   0.37844   0.00000  Uiso   1.00
H436   H     0.38334   0.41505   0.10545   0.00000  Uiso   1.00
H437   H     0.39659   0.41202   0.05210   0.00000  Uiso   1.00
H438   H     0.43849   0.41606   0.07655   0.00000  Uiso   1.00
H439   H     0.41995   0.48846   0.10757   0.00000  Uiso   1.00
H440   H     0.37701   0.48177   0.08720   0.00000  Uiso   1.00
H441   H     0.45759   0.66516   0.28404   0.00000  Uiso   1.00
H442   H     0.48507   0.50515   0.09749   0.00000  Uiso   1.00
H443   H     0.38504   0.55357   0.48166   0.00000  Uiso   1.00
H444   H     0.51803   0.49523   0.40175   0.00000  Uiso   1.00
H445   H     0.53842   0.45153   0.42699   0.00000  Uiso   1.00
H446   H     0.66463   0.52642   0.15812   0.00000  Uiso   1.00
N447   N     0.58659   0.41574   0.45529   0.00000  Uiso   1.00
N448   N     0.40312   0.56201   0.40551   0.00000  Uiso   1.00
O449   O     0.50000   0.50000   0.25000   0.00000  Uiso   1.00
O450   O     0.49027   0.45726   0.16625   0.00000  Uiso   1.00
O451   O     0.46020   0.53979   0.33749   0.00000  Uiso   1.00
O452   O     0.54421   0.50826   0.15877   0.00000  Uiso   1.00
O453   O     0.50532   0.49468   0.33749   0.00000  Uiso   1.00
O454   O     0.51182   0.41434   0.27820   0.00000  Uiso   1.00
O455   O     0.47914   0.59469   0.26767   0.00000  Uiso   1.00
O456   O     0.40785   0.46584   0.23607   0.00000  Uiso   1.00
O457   O     0.60119   0.52512   0.21805   0.00000  Uiso   1.00
O458   O     0.40323   0.52293   0.27820   0.00000  Uiso   1.00
O459   O     0.58773   0.48610   0.26767   0.00000  Uiso   1.00
O460   O     0.47133   0.40236   0.23607   0.00000  Uiso   1.00
O461   O     0.53771   0.58860   0.21805   0.00000  Uiso   1.00
Zn462  Zn    0.52577   0.47423   0.28277   0.00000  Uiso   1.00
Zn463  Zn    0.46792   0.45711   0.22257   0.00000  Uiso   1.00
Zn464  Zn    0.54500   0.52997   0.21188   0.00000  Uiso   1.00
Zn465  Zn    0.46131   0.53868   0.28277   0.00000  Uiso   1.00
C466   C     0.71945   0.49280   0.25908   0.00000  Uiso   1.00
C467   C     0.86302   0.45746   0.45884   0.00000  Uiso   1.00
C468   C     0.88616   0.43931   0.47814   0.00000  Uiso   1.00
C469   C     0.94804   0.50665   0.24098   0.00000  Uiso   1.00
C470   C     0.87760   0.44685   0.01955   0.00000  Uiso   1.00
C471   C     0.84245   0.46882   0.04155   0.00000  Uiso   1.00
C472   C     0.90471   0.43445   0.03915   0.00000  Uiso   1.00
C473   C     0.89819   0.44434   0.08003   0.00000  Uiso   1.00
C474   C     0.83910   0.48201   0.08156   0.00000  Uiso   1.00
C475   C     0.99439   0.50887   0.23754   0.00000  Uiso   1.00
C476   C     0.67418   0.48897   0.26296   0.00000  Uiso   1.00
C477   C     0.76113   0.54262   0.42340   0.00000  Uiso   1.00
C478   C     0.84791   0.65565   0.23794   0.00000  Uiso   1.00
C479   C     0.81853   0.34532   0.26198   0.00000  Uiso   1.00
C480   C     0.82276   0.38942   0.25881   0.00000  Uiso   1.00
C481   C     0.84366   0.61105   0.24126   0.00000  Uiso   1.00
C482   C     0.85502   0.47861   0.14392   0.00000  Uiso   1.00
C483   C     0.81171   0.52068   0.35646   0.00000  Uiso   1.00
C484   C     0.79829   0.52447   0.40047   0.00000  Uiso   1.00
C485   C     0.86499   0.46854   0.10110   0.00000  Uiso   1.00
C486   C     0.74735   0.54023   0.46442   0.00000  Uiso   1.00
C487   C     0.69555   0.53316   0.20578   0.00000  Uiso   1.00
C488   C     0.82156   0.50594   0.41967   0.00000  Uiso   1.00
C489   C     0.68147   0.55140   0.17472   0.00000  Uiso   1.00
C490   C     0.97837   0.46062   0.29397   0.00000  Uiso   1.00
C491   C     0.66818   0.43816   0.31544   0.00000  Uiso   1.00
C492   C     0.92773   0.42997   0.10003   0.00000  Uiso   1.00
C493   C     0.90695   0.39084   0.12103   0.00000  Uiso   1.00
C494   C     0.90786   0.37092   0.45312   0.00000  Uiso   1.00
C495   C     0.70132   0.53419   0.39594   0.00000  Uiso   1.00
C496   C     0.74373   0.47409   0.08095   0.00000  Uiso   1.00
C497   C     0.74055   0.42639   0.07844   0.00000  Uiso   1.00
C498   C     0.80670   0.50129   0.46061   0.00000  Uiso   1.00
C499   C     0.76903   0.51887   0.48286   0.00000  Uiso   1.00
C500   C     0.82843   0.48015   0.48010   0.00000  Uiso   1.00
C501   C     0.81418   0.48043   0.02215   0.00000  Uiso   1.00
C502   C     0.77194   0.49131   0.04242   0.00000  Uiso   1.00
C503   C     0.75159   0.51278   0.02286   0.00000  Uiso   1.00
H504   H     0.72058   0.52314   0.03847   0.00000  Uiso   1.00
H505   H     0.99440   0.57675   0.18873   0.00000  Uiso   1.00
H506   H     0.71034   0.56542   0.15298   0.00000  Uiso   1.00
H507   H     0.71257   0.55935   0.22107   0.00000  Uiso   1.00
H508   H     0.71947   0.51174   0.18877   0.00000  Uiso   1.00
H509   H     0.68930   0.41671   0.29403   0.00000  Uiso   1.00
H510   H     0.68755   0.46112   0.33126   0.00000  Uiso   1.00
H511   H     0.97747   0.41931   0.33760   0.00000  Uiso   1.00
H512   H     0.95614   0.47971   0.31711   0.00000  Uiso   1.00
H513   H     0.95983   0.43544   0.27910   0.00000  Uiso   1.00
H514   H     0.87752   0.39734   0.14505   0.00000  Uiso   1.00
H515   H     0.93138   0.41737   0.02268   0.00000  Uiso   1.00
H516   H     0.89853   0.36515   0.09950   0.00000  Uiso   1.00
H517   H     0.92983   0.38044   0.13440   0.00000  Uiso   1.00
H518   H     0.95826   0.42265   0.07782   0.00000  Uiso   1.00
H519   H     0.93665   0.45535   0.12158   0.00000  Uiso   1.00
H520   H     0.93531   0.42584   0.42771   0.00000  Uiso   1.00
H521   H     0.88285   0.36212   0.43713   0.00000  Uiso   1.00
H522   H     0.89544   0.36023   0.48332   0.00000  Uiso   1.00
H523   H     0.93641   0.35482   0.43684   0.00000  Uiso   1.00
H524   H     0.72647   0.58960   0.42118   0.00000  Uiso   1.00
H525   H     0.67657   0.52539   0.42353   0.00000  Uiso   1.00
H526   H     0.87506   0.33653   0.21585   0.00000  Uiso   1.00
H527   H     0.71318   0.50543   0.37798   0.00000  Uiso   1.00
H528   H     0.68645   0.55011   0.37844   0.00000  Uiso   1.00
H529   H     0.71668   0.41505   0.10545   0.00000  Uiso   1.00
H530   H     0.72992   0.41202   0.05210   0.00000  Uiso   1.00
H531   H     0.77183   0.41606   0.07655   0.00000  Uiso   1.00
H532   H     0.75328   0.48846   0.10757   0.00000  Uiso   1.00
H533   H     0.71034   0.48177   0.08720   0.00000  Uiso   1.00
H534   H     0.79093   0.66516   0.28404   0.00000  Uiso   1.00
H535   H     0.81840   0.50515   0.09749   0.00000  Uiso   1.00
H536   H     0.71838   0.55357   0.48166   0.00000  Uiso   1.00
H537   H     0.85137   0.49523   0.40175   0.00000  Uiso   1.00
H538   H     0.87175   0.45153   0.42699   0.00000  Uiso   1.00
H539   H     0.99797   0.52642   0.15812   0.00000  Uiso   1.00
N540   N     0.91992   0.41574   0.45529   0.00000  Uiso   1.00
N541   N     0.73646   0.56201   0.40551   0.00000  Uiso   1.00
O542   O     0.83333   0.50000   0.25000   0.00000  Uiso   1.00
O543   O     0.82360   0.45726   0.16625   0.00000  Uiso   1.00
O544   O     0.79354   0.53979   0.33749   0.00000  Uiso   1.00
O545   O     0.87755   0.50826   0.15877   0.00000  Uiso   1.00
O546   O     0.83865   0.49468   0.33749   0.00000  Uiso   1.00
O547   O     0.84515   0.41434   0.27820   0.00000  Uiso   1.00
O548   O     0.81247   0.59469   0.26767   0.00000  Uiso   1.00
O549   O     0.74119   0.46584   0.23607   0.00000  Uiso   1.00
O550   O     0.93452   0.52512   0.21805   0.00000  Uiso   1.00
O551   O     0.73656   0.52293   0.27820   0.00000  Uiso   1.00
O552   O     0.92106   0.48610   0.26767   0.00000  Uiso   1.00
O553   O     0.80467   0.40236   0.23607   0.00000  Uiso   1.00
O554   O     0.87104   0.58860   0.21805   0.00000  Uiso   1.00
Zn555  Zn    0.85910   0.47423   0.28277   0.00000  Uiso   1.00
Zn556  Zn    0.80125   0.45711   0.22257   0.00000  Uiso   1.00
Zn557  Zn    0.87833   0.52997   0.21188   0.00000  Uiso   1.00
Zn558  Zn    0.79465   0.53868   0.28277   0.00000  Uiso   1.00
C559   C     0.05278   0.82613   0.25908   0.00000  Uiso   1.00
C560   C     0.19635   0.79079   0.45884   0.00000  Uiso   1.00
C561   C     0.21949   0.77265   0.47814   0.00000  Uiso   1.00
C562   C     0.28138   0.83998   0.24098   0.00000  Uiso   1.00
C563   C     0.21093   0.78018   0.01955   0.00000  Uiso   1.00
C564   C     0.17578   0.80215   0.04155   0.00000  Uiso   1.00
C565   C     0.23804   0.76779   0.03915   0.00000  Uiso   1.00
C566   C     0.23152   0.77767   0.08003   0.00000  Uiso   1.00
C567   C     0.17243   0.81534   0.08156   0.00000  Uiso   1.00
C568   C     0.32772   0.84221   0.23754   0.00000  Uiso   1.00
C569   C     0.00752   0.82230   0.26296   0.00000  Uiso   1.00
C570   C     0.09446   0.87595   0.42340   0.00000  Uiso   1.00
C571   C     0.18124   0.98898   0.23794   0.00000  Uiso   1.00
C572   C     0.15187   0.67865   0.26198   0.00000  Uiso   1.00
C573   C     0.15610   0.72275   0.25881   0.00000  Uiso   1.00
C574   C     0.17699   0.94438   0.24126   0.00000  Uiso   1.00
C575   C     0.18835   0.81195   0.14392   0.00000  Uiso   1.00
C576   C     0.14504   0.85401   0.35646   0.00000  Uiso   1.00
C577   C     0.13163   0.85780   0.40047   0.00000  Uiso   1.00
C578   C     0.19832   0.80187   0.10110   0.00000  Uiso   1.00
C579   C     0.08069   0.87356   0.46442   0.00000  Uiso   1.00
C580   C     0.02888   0.86649   0.20578   0.00000  Uiso   1.00
C581   C     0.15490   0.83927   0.41967   0.00000  Uiso   1.00
C582   C     0.01480   0.88473   0.17472   0.00000  Uiso   1.00
C583   C     0.31170   0.79395   0.29397   0.00000  Uiso   1.00
C584   C     0.00151   0.77149   0.31544   0.00000  Uiso   1.00
C585   C     0.26106   0.76330   0.10003   0.00000  Uiso   1.00
C586   C     0.24028   0.72418   0.12103   0.00000  Uiso   1.00
C587   C     0.24119   0.70426   0.45312   0.00000  Uiso   1.00
C588   C     0.03465   0.86753   0.39594   0.00000  Uiso   1.00
C589   C     0.07706   0.80742   0.08095   0.00000  Uiso   1.00
C590   C     0.07389   0.75972   0.07844   0.00000  Uiso   1.00
C591   C     0.14003   0.83462   0.46061   0.00000  Uiso   1.00
C592   C     0.10236   0.85220   0.48286   0.00000  Uiso   1.00
C593   C     0.16176   0.81348   0.48010   0.00000  Uiso   1.00
C594   C     0.14751   0.81376   0.02215   0.00000  Uiso   1.00
C595   C     0.10528   0.82464   0.04242   0.00000  Uiso   1.00
C596   C     0.08493   0.84612   0.02286   0.00000  Uiso   1.00
H597   H     0.05392   0.85647   0.03847   0.00000  Uiso   1.00
H598   H     0.32773   0.91009   0.18873   0.00000  Uiso   1.00
H599   H     0.04367   0.89875   0.15298   0.00000  Uiso   1.00
H600   H     0.04590   0.89268   0.22107   0.00000  Uiso   1.00
H601   H     0.05281   0.84507   0.18877   0.00000  Uiso   1.00
H602   H     0.02264   0.75004   0.29403   0.00000  Uiso   1.00
H603   H     0.02088   0.79446   0.33126   0.00000  Uiso   1.00
H604   H     0.31081   0.75264   0.33760   0.00000  Uiso   1.00
H605   H     0.28947   0.81305   0.31711   0.00000  Uiso   1.00
H606   H     0.29317   0.76878   0.27910   0.00000  Uiso   1.00
H607   H     0.21085   0.73067   0.14505   0.00000  Uiso   1.00
H608   H     0.26471   0.75071   0.02268   0.00000  Uiso   1.00
H609   H     0.23187   0.69848   0.09950   0.00000  Uiso   1.00
H610   H     0.26316   0.71378   0.13440   0.00000  Uiso   1.00
H611   H     0.29159   0.75599   0.07782   0.00000  Uiso   1.00
H612   H     0.26998   0.78869   0.12158   0.00000  Uiso   1.00
H613   H     0.26864   0.75917   0.42771   0.00000  Uiso   1.00
H614   H     0.21618   0.69545   0.43713   0.00000  Uiso   1.00
H615   H     0.22877   0.69356   0.48332   0.00000  Uiso   1.00
H616   H     0.26974   0.68815   0.43684   0.00000  Uiso   1.00
H617   H     0.05980   0.92294   0.42118   0.00000  Uiso   1.00
H618   H     0.00990   0.85873   0.42353   0.00000  Uiso   1.00
H619   H     0.20840   0.66986   0.21585   0.00000  Uiso   1.00
H620   H     0.04651   0.83876   0.37798   0.00000  Uiso   1.00
H621   H     0.01978   0.88344   0.37844   0.00000  Uiso   1.00
H622   H     0.05001   0.74838   0.10545   0.00000  Uiso   1.00
H623   H     0.06326   0.74536   0.05210   0.00000  Uiso   1.00
H624   H     0.10516   0.74939   0.07655   0.00000  Uiso   1.00
H625   H     0.08661   0.82180   0.10757   0.00000  Uiso   1.00
H626   H     0.04368   0.81510   0.08720   0.00000  Uiso   1.00
H627   H     0.12426   0.99849   0.28404   0.00000  Uiso   1.00
H628   H     0.15173   0.83848   0.09749   0.00000  Uiso   1.00
H629   H     0.05171   0.88690   0.48166   0.00000  Uiso   1.00
H630   H     0.18470   0.82857   0.40175   0.00000  Uiso   1.00
H631   H     0.20508   0.78486   0.42699   0.00000  Uiso   1.00
H632   H     0.33130   0.85975   0.15812   0.00000  Uiso   1.00
N633   N     0.25326   0.74907   0.45529   0.00000  Uiso   1.00
N634   N     0.06979   0.89534   0.40551   0.00000  Uiso   1.00
O635   O     0.16667   0.83333   0.25000   0.00000  Uiso   1.00
O636   O     0.15693   0.79060   0.16625   0.00000  Uiso   1.00
O637   O     0.12687   0.87313   0.33749   0.00000  Uiso   1.00
O638   O     0.21088   0.84159   0.15877   0.00000  Uiso   1.00
O639   O     0.17198   0.82802   0.33749   0.00000  Uiso   1.00
O640   O     0.17849   0.74768   0.27820   0.00000  Uiso   1.00
O641   O     0.14581   0.92803   0.26767   0.00000  Uiso   1.00
O642   O     0.07452   0.79917   0.23607   0.00000  Uiso   1.00
O643   O     0.26785   0.85845   0.21805   0.00000  Uiso   1.00
O644   O     0.06990   0.85627   0.27820   0.00000  Uiso   1.00
O645   O     0.25440   0.81944   0.26767   0.00000  Uiso   1.00
O646   O     0.13800   0.73570   0.23607   0.00000  Uiso   1.00
O647   O     0.20437   0.92193   0.21805   0.00000  Uiso   1.00
Zn648  Zn    0.19244   0.80756   0.28277   0.00000  Uiso   1.00
Zn649  Zn    0.13459   0.79044   0.22257   0.00000  Uiso   1.00
Zn650  Zn    0.21166   0.86331   0.21188   0.00000  Uiso   1.00
Zn651  Zn    0.12798   0.87202   0.28277   0.00000  Uiso   1.00
C652   C     0.38611   0.82613   0.25908   0.00000  Uiso   1.00
C653   C     0.52969   0.79079   0.45884   0.00000  Uiso   1.00
C654   C     0.55282   0.77265   0.47814   0.00000  Uiso   1.00
C655   C     0.61471   0.83998   0.24098   0.00000  Uiso   1.00
C656   C     0.54426   0.78018   0.01955   0.00000  Uiso   1.00
C657   C     0.50912   0.80215   0.04155   0.00000  Uiso   1.00
C658   C     0.57137   0.76779   0.03915   0.00000  Uiso   1.00
C659   C     0.56485   0.77767   0.08003   0.00000  Uiso   1.00
C660   C     0.50577   0.81534   0.08156   0.00000  Uiso   1.00
C661   C     0.66105   0.84221   0.23754   0.00000  Uiso   1.00
C662   C     0.34085   0.82230   0.26296   0.00000  Uiso   1.00
C663   C     0.42780   0.87595   0.42340   0.00000  Uiso   1.00
C664   C     0.51457   0.98898   0.23794   0.00000  Uiso   1.00
C665   C     0.48520   0.67865   0.26198   0.00000  Uiso   1.00
C666   C     0.48943   0.72275   0.25881   0.00000  Uiso   1.00
C667   C     0.51033   0.94438   0.24126   0.00000  Uiso   1.00
C668   C     0.52169   0.81195   0.14392   0.00000  Uiso   1.00
C669   C     0.47837   0.85401   0.35646   0.00000  Uiso   1.00
C670   C     0.46496   0.85780   0.40047   0.00000  Uiso   1.00
C671   C     0.53165   0.80187   0.10110   0.00000  Uiso   1.00
C672   C     0.41402   0.87356   0.46442   0.00000  Uiso   1.00
C673   C     0.36221   0.86649   0.20578   0.00000  Uiso   1.00
C674   C     0.48823   0.83927   0.41967   0.00000  Uiso   1.00
C675   C     0.34813   0.88473   0.17472   0.00000  Uiso   1.00
C676   C     0.64503   0.79395   0.29397   0.00000  Uiso   1.00
C677   C     0.33485   0.77149   0.31544   0.00000  Uiso   1.00
C678   C     0.59440   0.76330   0.10003   0.00000  Uiso   1.00
C679   C     0.57361   0.72418   0.12103   0.00000  Uiso   1.00
C680   C     0.57453   0.70426   0.45312   0.00000  Uiso   1.00
C681   C     0.36799   0.86753   0.39594   0.00000  Uiso   1.00
C682   C     0.41040   0.80742   0.08095   0.00000  Uiso   1.00
C683   C     0.40722   0.75972   0.07844   0.00000  Uiso   1.00
C684   C     0.47337   0.83462   0.46061   0.00000  Uiso   1.00
C685   C     0.43570   0.85220   0.48286   0.00000  Uiso   1.00
C686   C     0.49509   0.81348   0.48010   0.00000  Uiso   1.00
C687   C     0.48085   0.81376   0.02215   0.00000  Uiso   1.00
C688   C     0.43861   0.82464   0.04242   0.00000  Uiso   1.00
C689   C     0.41826   0.84612   0.02286   0.00000  Uiso   1.00
H690   H     0.38725   0.85647   0.03847   0.00000  Uiso   1.00
H691   H     0.66106   0.91009   0.18873   0.00000  Uiso   1.00
H692   H     0.37700   0.89875   0.15298   0.00000  Uiso   1.00
H693   H     0.37923   0.89268   0.22107   0.00000  Uiso   1.00
H694   H     0.38614   0.84507   0.18877   0.00000  Uiso   1.00
H695   H     0.35597   0.75004   0.29403   0.00000  Uiso   1.00
H696   H     0.35422   0.79446   0.33126   0.00000  Uiso   1.00
H697   H     0.64414   0.75264   0.33760   0.00000  Uiso   1.00
H698   H     0.62280   0.81305   0.31711   0.00000  Uiso   1.00
H699   H     0.62650   0.76878   0.27910   0.00000  Uiso   1.00
H700   H     0.54418   0.73067   0.14505   0.00000  Uiso   1.00
H701   H     0.59805   0.75071   0.02268   0.00000  Uiso   1.00
H702   H     0.56520   0.69848   0.09950   0.00000  Uiso   1.00
H703   H     0.59649   0.71378   0.13440   0.00000  Uiso   1.00
H704   H     0.62492   0.75599   0.07782   0.00000  Uiso   1.00
H705   H     0.60331   0.78869   0.12158   0.00000  Uiso   1.00
H706   H     0.60197   0.75917   0.42771   0.00000  Uiso   1.00
H707   H     0.54951   0.69545   0.43713   0.00000  Uiso   1.00
H708   H     0.56210   0.69356   0.48332   0.00000  Uiso   1.00
H709   H     0.60308   0.68815   0.43684   0.00000  Uiso   1.00
H710   H     0.39314   0.92294   0.42118   0.00000  Uiso   1.00
H711   H     0.34324   0.85873   0.42353   0.00000  Uiso   1.00
H712   H     0.54173   0.66986   0.21585   0.00000  Uiso   1.00
H713   H     0.37985   0.83876   0.37798   0.00000  Uiso   1.00
H714   H     0.35312   0.88344   0.37844   0.00000  Uiso   1.00
H715   H     0.38334   0.74838   0.10545   0.00000  Uiso   1.00
H716   H     0.39659   0.74536   0.05210   0.00000  Uiso   1.00
H717   H     0.43849   0.74939   0.07655   0.00000  Uiso   1.00
H718   H     0.41995   0.82180   0.10757   0.00000  Uiso   1.00
H719   H     0.37701   0.81510   0.08720   0.00000  Uiso   1.00
H720   H     0.45759   0.99849   0.28404   0.00000  Uiso   1.00
H721   H     0.48507   0.83848   0.09749   0.00000  Uiso   1.00
H722   H     0.38504   0.88690   0.48166   0.00000  Uiso   1.00
H723   H     0.51803   0.82857   0.40175   0.00000  Uiso   1.00
H724   H     0.53842   0.78486   0.42699   0.00000  Uiso   1.00
H725   H     0.66463   0.85975   0.15812   0.00000  Uiso   1.00
N726   N     0.58659   0.74907   0.45529   0.00000  Uiso   1.00
N727   N     0.40312   0.89534   0.40551   0.00000  Uiso   1.00
O728   O     0.50000   0.83333   0.25000   0.00000  Uiso   1.00
O729   O     0.49027   0.79060   0.16625   0.00000  Uiso   1.00
O730   O     0.46020   0.87313   0.33749   0.00000  Uiso   1.00
O731   O     0.54421   0.84159   0.15877   0.00000  Uiso   1.00
O732   O     0.50532   0.82802   0.33749   0.00000  Uiso   1.00
O733   O     0.51182   0.74768   0.27820   0.00000  Uiso   1.00
O734   O     0.47914   0.92803   0.26767   0.00000  Uiso   1.00
O735   O     0.40785   0.79917   0.23607   0.00000  Uiso   1.00
O736   O     0.60119   0.85845   0.21805   0.00000  Uiso   1.00
O737   O     0.40323   0.85627   0.27820   0.00000  Uiso   1.00
O738   O     0.58773   0.81944   0.26767   0.00000  Uiso   1.00
O739   O     0.47133   0.73570   0.23607   0.00000  Uiso   1.00
O740   O     0.53771   0.92193   0.21805   0.00000  Uiso   1.00
Zn741  Zn    0.52577   0.80756   0.28277   0.00000  Uiso   1.00
Zn742  Zn    0.46792   0.79044   0.22257   0.00000  Uiso   1.00
Zn743  Zn    0.54500   0.86331   0.21188   0.00000  Uiso   1.00
Zn744  Zn    0.46131   0.87202   0.28277   0.00000  Uiso   1.00
C745   C     0.71945   0.82613   0.25908   0.00000  Uiso   1.00
C746   C     0.86302   0.79079   0.45884   0.00000  Uiso   1.00
C747   C     0.88616   0.77265   0.47814   0.00000  Uiso   1.00
C748   C     0.94804   0.83998   0.24098   0.00000  Uiso   1.00
C749   C     0.87760   0.78018   0.01955   0.00000  Uiso   1.00
C750   C     0.84245   0.80215   0.04155   0.00000  Uiso   1.00
C751   C     0.90471   0.76779   0.03915   0.00000  Uiso   1.00
C752   C     0.89819   0.77767   0.08003   0.00000  Uiso   1.00
C753   C     0.83910   0.81534   0.08156   0.00000  Uiso   1.00
C754   C     0.99439   0.84221   0.23754   0.00000  Uiso   1.00
C755   C     0.67418   0.82230   0.26296   0.00000  Uiso   1.00
C756   C     0.76113   0.87595   0.42340   0.00000  Uiso   1.00
C757   C     0.84791   0.98898   0.23794   0.00000  Uiso   1.00
C758   C     0.81853   0.67865   0.26198   0.00000  Uiso   1.00
C759   C     0.82276   0.72275   0.25881   0.00000  Uiso   1.00
C760   C     0.84366   0.94438   0.24126   0.00000  Uiso   1.00
C761   C     0.85502   0.81195   0.14392   0.00000  Uiso   1.00
C762   C     0.81171   0.85401   0.35646   0.00000  Uiso   1.00
C763   C     0.79829   0.85780   0.40047   0.00000  Uiso   1.00
C764   C     0.86499   0.80187   0.10110   0.00000  Uiso   1.00
C765   C     0.74735   0.87356   0.46442   0.00000  Uiso   1.00
C766   C     0.69555   0.86649   0.20578   0.00000  Uiso   1.00
C767   C     0.82156   0.83927   0.41967   0.00000  Uiso   1.00
C768   C     0.68147   0.88473   0.17472   0.00000  Uiso   1.00
C769   C     0.97837   0.79395   0.29397   0.00000  Uiso   1.00
C770   C     0.66818   0.77149   0.31544   0.00000  Uiso   1.00
C771   C     0.92773   0.76330   0.10003   0.00000  Uiso   1.00
C772   C     0.90695   0.72418   0.12103   0.00000  Uiso   1.00
C773   C     0.90786   0.70426   0.45312   0.00000  Uiso   1.00
C774   C     0.70132   0.86753   0.39594   0.00000  Uiso   1.00
C775   C     0.74373   0.80742   0.08095   0.00000  Uiso   1.00
C776   C     0.74055   0.75972   0.07844   0.00000  Uiso   1.00
C777   C     0.80670   0.83462   0.46061   0.00000  Uiso   1.00
C778   C     0.76903   0.85220   0.48286   0.00000  Uiso   1.00
C779   C     0.82843   0.81348   0.48010   0.00000  Uiso   1.00
C780   C     0.81418   0.81376   0.02215   0.00000  Uiso   1.00
C781   C     0.77194   0.82464   0.04242   0.00000  Uiso   1.00
C782   C     0.75159   0.84612   0.02286   0.00000  Uiso   1.00
H783   H     0.72058   0.85647   0.03847   0.00000  Uiso   1.00
H784   H     0.99440   0.91009   0.18873   0.00000  Uiso   1.00
H785   H     0.71034   0.89875   0.15298   0.00000  Uiso   1.00
H786   H     0.71257   0.89268   0.22107   0.00000  Uiso   1.00
H787   H     0.71947   0.84507   0.18877   0.00000  Uiso   1.00
H788   H     0.68930   0.75004   0.29403   0.00000  Uiso   1.00
H789   H     0.68755   0.79446   0.33126   0.00000  Uiso   1.00
H790   H     0.97747   0.75264   0.33760   0.00000  Uiso   1.00
H791   H     0.95614   0.81305   0.31711   0.00000  Uiso   1.00
H792   H     0.95983   0.76878   0.27910   0.00000  Uiso   1.00
H793   H     0.87752   0.73067   0.14505   0.00000  Uiso   1.00
H794   H     0.93138   0.75071   0.02268   0.00000  Uiso   1.00
H795   H     0.89853   0.69848   0.09950   0.00000  Uiso   1.00
H796   H     0.92983   0.71378   0.13440   0.00000  Uiso   1.00
H797   H     0.95826   0.75599   0.07782   0.00000  Uiso   1.00
H798   H     0.93665   0.78869   0.12158   0.00000  Uiso   1.00
H799   H     0.93531   0.75917   0.42771   0.00000  Uiso   1.00
H800   H     0.88285   0.69545   0.43713   0.00000  Uiso   1.00
H801   H     0.89544   0.69356   0.48332   0.00000  Uiso   1.00
H802   H     0.93641   0.68815   0.43684   0.00000  Uiso   1.00
H803   H     0.72647   0.92294   0.42118   0.00000  Uiso   1.00
H804   H     0.67657   0.85873   0.42353   0.00000  Uiso   1.00
H805   H     0.87506   0.66986   0.21585   0.00000  Uiso   1.00
H806   H     0.71318   0.83876   0.37798   0.00000  Uiso   1.00
H807   H     0.68645   0.88344   0.37844   0.00000  Uiso   1.00
H808   H     0.71668   0.74838   0.10545   0.00000  Uiso   1.00
H809   H     0.72992   0.74536   0.05210   0.00000  Uiso   1.00
H810   H     0.77183   0.74939   0.07655   0.00000  Uiso   1.00
H811   H     0.75328   0.82180   0.10757   0.00000  Uiso   1.00
H812   H     0.71034   0.81510   0.08720   0.00000  Uiso   1.00
H813   H     0.79093   0.99849   0.28404   0.00000  Uiso   1.00
H814   H     0.81840   0.83848   0.09749   0.00000  Uiso   1.00
H815   H     0.71838   0.88690   0.48166   0.00000  Uiso   1.00
H816   H     0.85137   0.82857   0.40175   0.00000  Uiso   1.00
H817   H     0.87175   0.78486   0.42699   0.00000  Uiso   1.00
H818   H     0.99797   0.85975   0.15812   0.00000  Uiso   1.00
N819   N     0.91992   0.74907   0.45529   0.00000  Uiso   1.00
N820   N     0.73646   0.89534   0.40551   0.00000  Uiso   1.00
O821   O     0.83333   0.83333   0.25000   0.00000  Uiso   1.00
O822   O     0.82360   0.79060   0.16625   0.00000  Uiso   1.00
O823   O     0.79354   0.87313   0.33749   0.00000  Uiso   1.00
O824   O     0.87755   0.84159   0.15877   0.00000  Uiso   1.00
O825   O     0.83865   0.82802   0.33749   0.00000  Uiso   1.00
O826   O     0.84515   0.74768   0.27820   0.00000  Uiso   1.00
O827   O     0.81247   0.92803   0.26767   0.00000  Uiso   1.00
O828   O     0.74119   0.79917   0.23607   0.00000  Uiso   1.00
O829   O     0.93452   0.85845   0.21805   0.00000  Uiso   1.00
O830   O     0.73656   0.85627   0.27820   0.00000  Uiso   1.00
O831   O     0.92106   0.81944   0.26767   0.00000  Uiso   1.00
O832   O     0.80467   0.73570   0.23607   0.00000  Uiso   1.00
O833   O     0.87104   0.92193   0.21805   0.00000  Uiso   1.00
Zn834  Zn    0.85910   0.80756   0.28277   0.00000  Uiso   1.00
Zn835  Zn    0.80125   0.79044   0.22257   0.00000  Uiso   1.00
Zn836  Zn    0.87833   0.86331   0.21188   0.00000  Uiso   1.00
Zn837  Zn    0.79465   0.87202   0.28277   0.00000  Uiso   1.00
C838   C     0.05278   0.15947   0.75908   0.00000  Uiso   1.00
C839   C     0.19635   0.12413   0.95884   0.00000  Uiso   1.00
C840   C     0.21949   0.10598   0.97814   0.00000  Uiso   1.00
C841   C     0.28138   0.17331   0.74098   0.00000  Uiso   1.00
C842   C     0.21093   0.11352   0.51955   0.00000  Uiso   1.00
C843   C     0.17578   0.13549   0.54155   0.00000  Uiso   1.00
C844   C     0.23804   0.10112   0.53915   0.00000  Uiso   1.00
C845   C     0.23152   0.11101   0.58003   0.00000  Uiso   1.00
C846   C     0.17243   0.14868   0.58156   0.00000  Uiso   1.00
C847   C     0.32772   0.17554   0.73754   0.00000  Uiso   1.00
C848   C     0.00752   0.15563   0.76296   0.00000  Uiso   1.00
C849   C     0.09446   0.20928   0.92340   0.00000  Uiso   1.00
C850   C     0.18124   0.32232   0.73794   0.00000  Uiso   1.00
C851   C     0.15187   0.01199   0.76198   0.00000  Uiso   1.00
C852   C     0.15610   0.05609   0.75881   0.00000  Uiso   1.00
C853   C     0.17699   0.27771   0.74126   0.00000  Uiso   1.00
C854   C     0.18835   0.14528   0.64392   0.00000  Uiso   1.00
C855   C     0.14504   0.18734   0.85646   0.00000  Uiso   1.00
C856   C     0.13163   0.19113   0.90047   0.00000  Uiso   1.00
C857   C     0.19832   0.13520   0.60110   0.00000  Uiso   1.00
C858   C     0.08069   0.20689   0.96442   0.00000  Uiso   1.00
C859   C     0.02888   0.19983   0.70578   0.00000  Uiso   1.00
C860   C     0.15490   0.17261   0.91967   0.00000  Uiso   1.00
C861   C     0.01480   0.21806   0.67472   0.00000  Uiso   1.00
C862   C     0.31170   0.12728   0.79397   0.00000  Uiso   1.00
C863   C     0.00151   0.10482   0.81544   0.00000  Uiso   1.00
C864   C     0.26106   0.09663   0.60003   0.00000  Uiso   1.00
C865   C     0.24028   0.05751   0.62103   0.00000  Uiso   1.00
C866   C     0.24119   0.03759   0.95312   0.00000  Uiso   1.00
C867   C     0.03465   0.20086   0.89594   0.00000  Uiso   1.00
C868   C     0.07706   0.14076   0.58095   0.00000  Uiso   1.00
C869   C     0.07389   0.09306   0.57844   0.00000  Uiso   1.00
C870   C     0.14003   0.16796   0.96061   0.00000  Uiso   1.00
C871   C     0.10236   0.18553   0.98286   0.00000  Uiso   1.00
C872   C     0.16176   0.14681   0.98010   0.00000  Uiso   1.00
C873   C     0.14751   0.14709   0.52215   0.00000  Uiso   1.00
C874   C     0.10528   0.15797   0.54242   0.00000  Uiso   1.00
C875   C     0.08493   0.17945   0.52286   0.00000  Uiso   1.00
H876   H     0.05392   0.18980   0.53847   0.00000  Uiso   1.00
H877   H     0.32773   0.24342   0.68873   0.00000  Uiso   1.00
H878   H     0.04367   0.23208   0.65298   0.00000  Uiso   1.00
H879   H     0.04590   0.22601   0.72107   0.00000  Uiso   1.00
H880   H     0.05281   0.17840   0.68877   0.00000  Uiso   1.00
H881   H     0.02264   0.08338   0.79403   0.00000  Uiso   1.00
H882   H     0.02088   0.12779   0.83126   0.00000  Uiso   1.00
H883   H     0.31081   0.08597   0.83760   0.00000  Uiso   1.00
H884   H     0.28947   0.14638   0.81711   0.00000  Uiso   1.00
H885   H     0.29317   0.10211   0.77910   0.00000  Uiso   1.00
H886   H     0.21085   0.06401   0.64505   0.00000  Uiso   1.00
H887   H     0.26471   0.08404   0.52268   0.00000  Uiso   1.00
H888   H     0.23187   0.03181   0.59950   0.00000  Uiso   1.00
H889   H     0.26316   0.04711   0.63440   0.00000  Uiso   1.00
H890   H     0.29159   0.08932   0.57782   0.00000  Uiso   1.00
H891   H     0.26998   0.12202   0.62158   0.00000  Uiso   1.00
H892   H     0.26864   0.09250   0.92771   0.00000  Uiso   1.00
H893   H     0.21618   0.02878   0.93713   0.00000  Uiso   1.00
H894   H     0.22877   0.02689   0.98332   0.00000  Uiso   1.00
H895   H     0.26974   0.02148   0.93684   0.00000  Uiso   1.00
H896   H     0.05980   0.25627   0.92118   0.00000  Uiso   1.00
H897   H     0.00990   0.19206   0.92353   0.00000  Uiso   1.00
H898   H     0.20840   0.00319   0.71585   0.00000  Uiso   1.00
H899   H     0.04651   0.17210   0.87798   0.00000  Uiso   1.00
H900   H     0.01978   0.21677   0.87844   0.00000  Uiso   1.00
H901   H     0.05001   0.08171   0.60545   0.00000  Uiso   1.00
H902   H     0.06326   0.07869   0.55210   0.00000  Uiso   1.00
H903   H     0.10516   0.08272   0.57655   0.00000  Uiso   1.00
H904   H     0.08661   0.15513   0.60757   0.00000  Uiso   1.00
H905   H     0.04368   0.14843   0.58720   0.00000  Uiso   1.00
H906   H     0.12426   0.33183   0.78404   0.00000  Uiso   1.00
H907   H     0.15173   0.17182   0.59749   0.00000  Uiso   1.00
H908   H     0.05171   0.22023   0.98166   0.00000  Uiso   1.00
H909   H     0.18470   0.16190   0.90175   0.00000  Uiso   1.00
H910   H     0.20508   0.11820   0.92699   0.00000  Uiso   1.00
H911   H     0.33130   0.19308   0.65812   0.00000  Uiso   1.00
N912   N     0.25326   0.08240   0.95529   0.00000  Uiso   1.00
N913   N     0.06979   0.22868   0.90551   0.00000  Uiso   1.00
O914   O     0.16667   0.16667   0.75000   0.00000  Uiso   1.00
O915   O     0.15693   0.12393   0.66625   0.00000  Uiso   1.00
O916   O     0.12687   0.20646   0.83749   0.00000  Uiso   1.00
O917   O     0.21088   0.17493   0.65877   0.00000  Uiso   1.00
O918   O     0.17198   0.16135   0.83749   0.00000  Uiso   1.00
O919   O     0.17849   0.08101   0.77820   0.00000  Uiso   1.00
O920   O     0.14581   0.26136   0.76767   0.00000  Uiso   1.00
O921   O     0.07452   0.13251   0.73607   0.00000  Uiso   1.00
O922   O     0.26785   0.19179   0.71805   0.00000  Uiso   1.00
O923   O     0.06990   0.18960   0.77820   0.00000  Uiso   1.00
O924   O     0.25440   0.15277   0.76767   0.00000  Uiso   1.00
O925   O     0.13800   0.06903   0.73607   0.00000  Uiso   1.00
O926   O     0.20437   0.25527   0.71805   0.00000  Uiso   1.00
Zn927  Zn    0.19244   0.14090   0.78277   0.00000  Uiso   1.00
Zn928  Zn    0.13459   0.12378   0.72257   0.00000  Uiso   1.00
Zn929  Zn    0.21166   0.19664   0.71188   0.00000  Uiso   1.00
Zn930  Zn    0.12798   0.20535   0.78277   0.00000  Uiso   1.00
C931   C     0.38611   0.15947   0.75908   0.00000  Uiso   1.00
C932   C     0.52969   0.12413   0.95884   0.00000  Uiso   1.00
C933   C     0.55282   0.10598   0.97814   0.00000  Uiso   1.00
C934   C     0.61471   0.17331   0.74098   0.00000  Uiso   1.00
C935   C     0.54426   0.11352   0.51955   0.00000  Uiso   1.00
C936   C     0.50912   0.13549   0.54155   0.00000  Uiso   1.00
C937   C     0.57137   0.10112   0.53915   0.00000  Uiso   1.00
C938   C     0.56485   0.11101   0.58003   0.00000  Uiso   1.00
C939   C     0.50577   0.14868   0.58156   0.00000  Uiso   1.00
C940   C     0.66105   0.17554   0.73754   0.00000  Uiso   1.00
C941   C     0.34085   0.15563   0.76296   0.00000  Uiso   1.00
C942   C     0.42780   0.20928   0.92340   0.00000  Uiso   1.00
C943   C     0.51457   0.32232   0.73794   0.00000  Uiso   1.00
C944   C     0.48520   0.01199   0.76198   0.00000  Uiso   1.00
C945   C     0.48943   0.05609   0.75881   0.00000  Uiso   1.00
C946   C     0.51033   0.27771   0.74126   0.00000  Uiso   1.00
C947   C     0.52169   0.14528   0.64392   0.00000  Uiso   1.00
C948   C     0.47837   0.18734   0.85646   0.00000  Uiso   1.00
C949   C     0.46496   0.19113   0.90047   0.00000  Uiso   1.00
C950   C     0.53165   0.13520   0.60110   0.00000  Uiso   1.00
C951   C     0.41402   0.20689   0.96442   0.00000  Uiso   1.00
C952   C     0.36221   0.19983   0.70578   0.00000  Uiso   1.00
C953   C     0.48823   0.17261   0.91967   0.00000  Uiso   1.00
C954   C     0.34813   0.21806   0.67472   0.00000  Uiso   1.00
C955   C     0.64503   0.12728   0.79397   0.00000  Uiso   1.00
C956   C     0.33485   0.10482   0.81544   0.00000  Uiso   1.00
C957   C     0.59440   0.09663   0.60003   0.00000  Uiso   1.00
C958   C     0.57361   0.05751   0.62103   0.00000  Uiso   1.00
C959   C     0.57453   0.03759   0.95312   0.00000  Uiso   1.00
C960   C     0.36799   0.20086   0.89594   0.00000  Uiso   1.00
C961   C     0.41040   0.14076   0.58095   0.00000  Uiso   1.00
C962   C     0.40722   0.09306   0.57844   0.00000  Uiso   1.00
C963   C     0.47337   0.16796   0.96061   0.00000  Uiso   1.00
C964   C     0.43570   0.18553   0.98286   0.00000  Uiso   1.00
C965   C     0.49509   0.14681   0.98010   0.00000  Uiso   1.00
C966   C     0.48085   0.14709   0.52215   0.00000  Uiso   1.00
C967   C     0.43861   0.15797   0.54242   0.00000  Uiso   1.00
C968   C     0.41826   0.17945   0.52286   0.00000  Uiso   1.00
H969   H     0.38725   0.18980   0.53847   0.00000  Uiso   1.00
H970   H     0.66106   0.24342   0.68873   0.00000  Uiso   1.00
H971   H     0.37700   0.23208   0.65298   0.00000  Uiso   1.00
H972   H     0.37923   0.22601   0.72107   0.00000  Uiso   1.00
H973   H     0.38614   0.17840   0.68877   0.00000  Uiso   1.00
H974   H     0.35597   0.08338   0.79403   0.00000  Uiso   1.00
H975   H     0.35422   0.12779   0.83126   0.00000  Uiso   1.00
H976   H     0.64414   0.08597   0.83760   0.00000  Uiso   1.00
H977   H     0.62280   0.14638   0.81711   0.00000  Uiso   1.00
H978   H     0.62650   0.10211   0.77910   0.00000  Uiso   1.00
H979   H     0.54418   0.06401   0.64505   0.00000  Uiso   1.00
H980   H     0.59805   0.08404   0.52268   0.00000  Uiso   1.00
H981   H     0.56520   0.03181   0.59950   0.00000  Uiso   1.00
H982   H     0.59649   0.04711   0.63440   0.00000  Uiso   1.00
H983   H     0.62492   0.08932   0.57782   0.00000  Uiso   1.00
H984   H     0.60331   0.12202   0.62158   0.00000  Uiso   1.00
H985   H     0.60197   0.09250   0.92771   0.00000  Uiso   1.00
H986   H     0.54951   0.02878   0.93713   0.00000  Uiso   1.00
H987   H     0.56210   0.02689   0.98332   0.00000  Uiso   1.00
H988   H     0.60308   0.02148   0.93684   0.00000  Uiso   1.00
H989   H     0.39314   0.25627   0.92118   0.00000  Uiso   1.00
H990   H     0.34324   0.19206   0.92353   0.00000  Uiso   1.00
H991   H     0.54173   0.00319   0.71585   0.00000  Uiso   1.00
H992   H     0.37985   0.17210   0.87798   0.00000  Uiso   1.00
H993   H     0.35312   0.21677   0.87844   0.00000  Uiso   1.00
H994   H     0.38334   0.08171   0.60545   0.00000  Uiso   1.00
H995   H     0.39659   0.07869   0.55210   0.00000  Uiso   1.00
H996   H     0.43849   0.08272   0.57655   0.00000  Uiso   1.00
H997   H     0.41995   0.15513   0.60757   0.00000  Uiso   1.00
H998   H     0.37701   0.14843   0.58720   0.00000  Uiso   1.00
H999   H     0.45759   0.33183   0.78404   0.00000  Uiso   1.00
H1000  H     0.48507   0.17182   0.59749   0.00000  Uiso   1.00
H1001  H     0.38504   0.22023   0.98166   0.00000  Uiso   1.00
H1002  H     0.51803   0.16190   0.90175   0.00000  Uiso   1.00
H1003  H     0.53842   0.11820   0.92699   0.00000  Uiso   1.00
H1004  H     0.66463   0.19308   0.65812   0.00000  Uiso   1.00
N1005  N     0.58659   0.08240   0.95529   0.00000  Uiso   1.00
N1006  N     0.40312   0.22868   0.90551   0.00000  Uiso   1.00
O1007  O     0.50000   0.16667   0.75000   0.00000  Uiso   1.00
O1008  O     0.49027   0.12393   0.66625   0.00000  Uiso   1.00
O1009  O     0.46020   0.20646   0.83749   0.00000  Uiso   1.00
O1010  O     0.54421   0.17493   0.65877   0.00000  Uiso   1.00
O1011  O     0.50532   0.16135   0.83749   0.00000  Uiso   1.00
O1012  O     0.51182   0.08101   0.77820   0.00000  Uiso   1.00
O1013  O     0.47914   0.26136   0.76767   0.00000  Uiso   1.00
O1014  O     0.40785   0.13251   0.73607   0.00000  Uiso   1.00
O1015  O     0.60119   0.19179   0.71805   0.00000  Uiso   1.00
O1016  O     0.40323   0.18960   0.77820   0.00000  Uiso   1.00
O1017  O     0.58773   0.15277   0.76767   0.00000  Uiso   1.00
O1018  O     0.47133   0.06903   0.73607   0.00000  Uiso   1.00
O1019  O     0.53771   0.25527   0.71805   0.00000  Uiso   1.00
Zn1020 Zn    0.52577   0.14090   0.78277   0.00000  Uiso   1.00
Zn1021 Zn    0.46792   0.12378   0.72257   0.00000  Uiso   1.00
Zn1022 Zn    0.54500   0.19664   0.71188   0.00000  Uiso   1.00
Zn1023 Zn    0.46131   0.20535   0.78277   0.00000  Uiso   1.00
C1024  C     0.71945   0.15947   0.75908   0.00000  Uiso   1.00
C1025  C     0.86302   0.12413   0.95884   0.00000  Uiso   1.00
C1026  C     0.88616   0.10598   0.97814   0.00000  Uiso   1.00
C1027  C     0.94804   0.17331   0.74098   0.00000  Uiso   1.00
C1028  C     0.87760   0.11352   0.51955   0.00000  Uiso   1.00
C1029  C     0.84245   0.13549   0.54155   0.00000  Uiso   1.00
C1030  C     0.90471   0.10112   0.53915   0.00000  Uiso   1.00
C1031  C     0.89819   0.11101   0.58003   0.00000  Uiso   1.00
C1032  C     0.83910   0.14868   0.58156   0.00000  Uiso   1.00
C1033  C     0.99439   0.17554   0.73754   0.00000  Uiso   1.00
C1034  C     0.67418   0.15563   0.76296   0.00000  Uiso   1.00
C1035  C     0.76113   0.20928   0.92340   0.00000  Uiso   1.00
C1036  C     0.84791   0.32232   0.73794   0.00000  Uiso   1.00
C1037  C     0.81853   0.01199   0.76198   0.00000  Uiso   1.00
C1038  C     0.82276   0.05609   0.75881   0.00000  Uiso   1.00
C1039  C     0.84366   0.27771   0.74126   0.00000  Uiso   1.00
C1040  C     0.85502   0.14528   0.64392   0.00000  Uiso   1.00
C1041  C     0.81171   0.18734   0.85646   0.00000  Uiso   1.00
C1042  C     0.79829   0.19113   0.90047   0.00000  Uiso   1.00
C1043  C     0.86499   0.13520   0.60110   0.00000  Uiso   1.00
C1044  C     0.74735   0.20689   0.96442   0.00000  Uiso   1.00
C1045  C     0.69555   0.19983   0.70578   0.00000  Uiso   1.00
C1046  C     0.82156   0.17261   0.91967   0.00000  Uiso   1.00
C1047  C     0.68147   0.21806   0.67472   0.00000  Uiso   1.00
C1048  C     0.97837   0.12728   0.79397   0.00000  Uiso   1.00
C1049  C     0.66818   0.10482   0.81544   0.00000  Uiso   1.00
C1050  C     0.92773   0.09663   0.60003   0.00000  Uiso   1.00
C1051  C     0.90695   0.05751   0.62103   0.00000  Uiso   1.00
C1052  C     0.90786   0.03759   0.95312   0.00000  Uiso   1.00
C1053  C     0.70132   0.20086   0.89594   0.00000  Uiso   1.00
C1054  C     0.74373   0.14076   0.58095   0.00000  Uiso   1.00
C1055  C     0.74055   0.09306   0.57844   0.00000  Uiso   1.00
C1056  C     0.80670   0.16796   0.96061   0.00000  Uiso   1.00
C1057  C     0.76903   0.18553   0.98286   0.00000  Uiso   1.00
C1058  C     0.82843   0.14681   0.98010   0.00000  Uiso   1.00
C1059  C     0.81418   0.14709   0.52215   0.00000  Uiso   1.00
C1060  C     0.77194   0.15797   0.54242   0.00000  Uiso   1.00
C1061  C     0.75159   0.17945   0.52286   0.00000  Uiso   1.00
H1062  H     0.72058   0.18980   0.53847   0.00000  Uiso   1.00
H1063  H     0.99440   0.24342   0.68873   0.00000  Uiso   1.00
H1064  H     0.71034   0.23208   0.65298   0.00000  Uiso   1.00
H1065  H     0.71257   0.22601   0.72107   0.00000  Uiso   1.00
H1066  H     0.71947   0.17840   0.68877   0.00000  Uiso   1.00
H1067  H     0.68930   0.08338   0.79403   0.00000  Uiso   1.00
H1068  H     0.68755   0.12779   0.83126   0.00000  Uiso   1.00
H1069  H     0.97747   0.08597   0.83760   0.00000  Uiso   1.00
H1070  H     0.95614   0.14638   0.81711   0.00000  Uiso   1.00
H1071  H     0.95983   0.10211   0.77910   0.00000  Uiso   1.00
H1072  H     0.87752   0.06401   0.64505   0.00000  Uiso   1.00
H1073  H     0.93138   0.08404   0.52268   0.00000  Uiso   1.00
H1074  H     0.89853   0.03181   0.59950   0.00000  Uiso   1.00
H1075  H     0.92983   0.04711   0.63440   0.00000  Uiso   1.00
H1076  H     0.95826   0.08932   0.57782   0.00000  Uiso   1.00
H1077  H     0.93665   0.12202   0.62158   0.00000  Uiso   1.00
H1078  H     0.93531   0.09250   0.92771   0.00000  Uiso   1.00
H1079  H     0.88285   0.02878   0.93713   0.00000  Uiso   1.00
H1080  H     0.89544   0.02689   0.98332   0.00000  Uiso   1.00
H1081  H     0.93641   0.02148   0.93684   0.00000  Uiso   1.00
H1082  H     0.72647   0.25627   0.92118   0.00000  Uiso   1.00
H1083  H     0.67657   0.19206   0.92353   0.00000  Uiso   1.00
H1084  H     0.87506   0.00319   0.71585   0.00000  Uiso   1.00
H1085  H     0.71318   0.17210   0.87798   0.00000  Uiso   1.00
H1086  H     0.68645   0.21677   0.87844   0.00000  Uiso   1.00
H1087  H     0.71668   0.08171   0.60545   0.00000  Uiso   1.00
H1088  H     0.72992   0.07869   0.55210   0.00000  Uiso   1.00
H1089  H     0.77183   0.08272   0.57655   0.00000  Uiso   1.00
H1090  H     0.75328   0.15513   0.60757   0.00000  Uiso   1.00
H1091  H     0.71034   0.14843   0.58720   0.00000  Uiso   1.00
H1092  H     0.79093   0.33183   0.78404   0.00000  Uiso   1.00
H1093  H     0.81840   0.17182   0.59749   0.00000  Uiso   1.00
H1094  H     0.71838   0.22023   0.98166   0.00000  Uiso   1.00
H1095  H     0.85137   0.16190   0.90175   0.00000  Uiso   1.00
H1096  H     0.87175   0.11820   0.92699   0.00000  Uiso   1.00
H1097  H     0.99797   0.19308   0.65812   0.00000  Uiso   1.00
N1098  N     0.91992   0.08240   0.95529   0.00000  Uiso   1.00
N1099  N     0.73646   0.22868   0.90551   0.00000  Uiso   1.00
O1100  O     0.83333   0.16667   0.75000   0.00000  Uiso   1.00
O1101  O     0.82360   0.12393   0.66625   0.00000  Uiso   1.00
O1102  O     0.79354   0.20646   0.83749   0.00000  Uiso   1.00
O1103  O     0.87755   0.17493   0.65877   0.00000  Uiso   1.00
O1104  O     0.83865   0.16135   0.83749   0.00000  Uiso   1.00
O1105  O     0.84515   0.08101   0.77820   0.00000  Uiso   1.00
O1106  O     0.81247   0.26136   0.76767   0.00000  Uiso   1.00
O1107  O     0.74119   0.13251   0.73607   0.00000  Uiso   1.00
O1108  O     0.93452   0.19179   0.71805   0.00000  Uiso   1.00
O1109  O     0.73656   0.18960   0.77820   0.00000  Uiso   1.00
O1110  O     0.92106   0.15277   0.76767   0.00000  Uiso   1.00
O1111  O     0.80467   0.06903   0.73607   0.00000  Uiso   1.00
O1112  O     0.87104   0.25527   0.71805   0.00000  Uiso   1.00
Zn1113 Zn    0.85910   0.14090   0.78277   0.00000  Uiso   1.00
Zn1114 Zn    0.80125   0.12378   0.72257   0.00000  Uiso   1.00
Zn1115 Zn    0.87833   0.19664   0.71188   0.00000  Uiso   1.00
Zn1116 Zn    0.79465   0.20535   0.78277   0.00000  Uiso   1.00
C1117  C     0.05278   0.49280   0.75908   0.00000  Uiso   1.00
C1118  C     0.19635   0.45746   0.95884   0.00000  Uiso   1.00
C1119  C     0.21949   0.43931   0.97814   0.00000  Uiso   1.00
C1120  C     0.28138   0.50665   0.74098   0.00000  Uiso   1.00
C1121  C     0.21093   0.44685   0.51955   0.00000  Uiso   1.00
C1122  C     0.17578   0.46882   0.54155   0.00000  Uiso   1.00
C1123  C     0.23804   0.43445   0.53915   0.00000  Uiso   1.00
C1124  C     0.23152   0.44434   0.58003   0.00000  Uiso   1.00
C1125  C     0.17243   0.48201   0.58156   0.00000  Uiso   1.00
C1126  C     0.32772   0.50887   0.73754   0.00000  Uiso   1.00
C1127  C     0.00752   0.48897   0.76296   0.00000  Uiso   1.00
C1128  C     0.09446   0.54262   0.92340   0.00000  Uiso   1.00
C1129  C     0.18124   0.65565   0.73794   0.00000  Uiso   1.00
C1130  C     0.15187   0.34532   0.76198   0.00000  Uiso   1.00
C1131  C     0.15610   0.38942   0.75881   0.00000  Uiso   1.00
C1132  C     0.17699   0.61105   0.74126   0.00000  Uiso   1.00
C1133  C     0.18835   0.47861   0.64392   0.00000  Uiso   1.00
C1134  C     0.14504   0.52068   0.85646   0.00000  Uiso   1.00
C1135  C     0.13163   0.52447   0.90047   0.00000  Uiso   1.00
C1136  C     0.19832   0.46854   0.60110   0.00000  Uiso   1.00
C1137  C     0.08069   0.54023   0.96442   0.00000  Uiso   1.00
C1138  C     0.02888   0.53316   0.70578   0.00000  Uiso   1.00
C1139  C     0.15490   0.50594   0.91967   0.00000  Uiso   1.00
C1140  C     0.01480   0.55140   0.67472   0.00000  Uiso   1.00
C1141  C     0.31170   0.46062   0.79397   0.00000  Uiso   1.00
C1142  C     0.00151   0.43816   0.81544   0.00000  Uiso   1.00
C1143  C     0.26106   0.42997   0.60003   0.00000  Uiso   1.00
C1144  C     0.24028   0.39084   0.62103   0.00000  Uiso   1.00
C1145  C     0.24119   0.37092   0.95312   0.00000  Uiso   1.00
C1146  C     0.03465   0.53419   0.89594   0.00000  Uiso   1.00
C1147  C     0.07706   0.47409   0.58095   0.00000  Uiso   1.00
C1148  C     0.07389   0.42639   0.57844   0.00000  Uiso   1.00
C1149  C     0.14003   0.50129   0.96061   0.00000  Uiso   1.00
C1150  C     0.10236   0.51887   0.98286   0.00000  Uiso   1.00
C1151  C     0.16176   0.48015   0.98010   0.00000  Uiso   1.00
C1152  C     0.14751   0.48043   0.52215   0.00000  Uiso   1.00
C1153  C     0.10528   0.49131   0.54242   0.00000  Uiso   1.00
C1154  C     0.08493   0.51278   0.52286   0.00000  Uiso   1.00
H1155  H     0.05392   0.52314   0.53847   0.00000  Uiso   1.00
H1156  H     0.32773   0.57675   0.68873   0.00000  Uiso   1.00
H1157  H     0.04367   0.56542   0.65298   0.00000  Uiso   1.00
H1158  H     0.04590   0.55935   0.72107   0.00000  Uiso   1.00
H1159  H     0.05281   0.51174   0.68877   0.00000  Uiso   1.00
H1160  H     0.02264   0.41671   0.79403   0.00000  Uiso   1.00
H1161  H     0.02088   0.46112   0.83126   0.00000  Uiso   1.00
H1162  H     0.31081   0.41931   0.83760   0.00000  Uiso   1.00
H1163  H     0.28947   0.47971   0.81711   0.00000  Uiso   1.00
H1164  H     0.29317   0.43544   0.77910   0.00000  Uiso   1.00
H1165  H     0.21085   0.39734   0.64505   0.00000  Uiso   1.00
H1166  H     0.26471   0.41737   0.52268   0.00000  Uiso   1.00
H1167  H     0.23187   0.36515   0.59950   0.00000  Uiso   1.00
H1168  H     0.26316   0.38044   0.63440   0.00000  Uiso   1.00
H1169  H     0.29159   0.42265   0.57782   0.00000  Uiso   1.00
H1170  H     0.26998   0.45535   0.62158   0.00000  Uiso   1.00
H1171  H     0.26864   0.42584   0.92771   0.00000  Uiso   1.00
H1172  H     0.21618   0.36212   0.93713   0.00000  Uiso   1.00
H1173  H     0.22877   0.36023   0.98332   0.00000  Uiso   1.00
H1174  H     0.26974   0.35482   0.93684   0.00000  Uiso   1.00
H1175  H     0.05980   0.58960   0.92118   0.00000  Uiso   1.00
H1176  H     0.00990   0.52539   0.92353   0.00000  Uiso   1.00
H1177  H     0.20840   0.33653   0.71585   0.00000  Uiso   1.00
H1178  H     0.04651   0.50543   0.87798   0.00000  Uiso   1.00
H1179  H     0.01978   0.55011   0.87844   0.00000  Uiso   1.00
H1180  H     0.05001   0.41505   0.60545   0.00000  Uiso   1.00
H1181  H     0.06326   0.41202   0.55210   0.00000  Uiso   1.00
H1182  H     0.10516   0.41606   0.57655   0.00000  Uiso   1.00
H1183  H     0.08661   0.48846   0.60757   0.00000  Uiso   1.00
H1184  H     0.04368   0.48177   0.58720   0.00000  Uiso   1.00
H1185  H     0.12426   0.66516   0.78404   0.00000  Uiso   1.00
H1186  H     0.15173   0.50515   0.59749   0.00000  Uiso   1.00
H1187  H     0.05171   0.55357   0.98166   0.00000  Uiso   1.00
H1188  H     0.18470   0.49523   0.90175   0.00000  Uiso   1.00
H1189  H     0.20508   0.45153   0.92699   0.00000  Uiso   1.00
H1190  H     0.33130   0.52642   0.65812   0.00000  Uiso   1.00
N1191  N     0.25326   0.41574   0.95529   0.00000  Uiso   1.00
N1192  N     0.06979   0.56201   0.90551   0.00000  Uiso   1.00
O1193  O     0.16667   0.50000   0.75000   0.00000  Uiso   1.00
O1194  O     0.15693   0.45726   0.66625   0.00000  Uiso   1.00
O1195  O     0.12687   0.53979   0.83749   0.00000  Uiso   1.00
O1196  O     0.21088   0.50826   0.65877   0.00000  Uiso   1.00
O1197  O     0.17198   0.49468   0.83749   0.00000  Uiso   1.00
O1198  O     0.17849   0.41434   0.77820   0.00000  Uiso   1.00
O1199  O     0.14581   0.59469   0.76767   0.00000  Uiso   1.00
O1200  O     0.07452   0.46584   0.73607   0.00000  Uiso   1.00
O1201  O     0.26785   0.52512   0.71805   0.00000  Uiso   1.00
O1202  O     0.06990   0.52293   0.77820   0.00000  Uiso   1.00
O1203  O     0.25440   0.48610   0.76767   0.00000  Uiso   1.00
O1204  O     0.13800   0.40236   0.73607   0.00000  Uiso   1.00
O1205  O     0.20437   0.58860   0.71805   0.00000  Uiso   1.00
Zn1206 Zn    0.19244   0.47423   0.78277   0.00000  Uiso   1.00
Zn1207 Zn    0.13459   0.45711   0.72257   0.00000  Uiso   1.00
Zn1208 Zn    0.21166   0.52997   0.71188   0.00000  Uiso   1.00
Zn1209 Zn    0.12798   0.53868   0.78277   0.00000  Uiso   1.00
C1210  C     0.38611   0.49280   0.75908   0.00000  Uiso   1.00
C1211  C     0.52969   0.45746   0.95884   0.00000  Uiso   1.00
C1212  C     0.55282   0.43931   0.97814   0.00000  Uiso   1.00
C1213  C     0.61471   0.50665   0.74098   0.00000  Uiso   1.00
C1214  C     0.54426   0.44685   0.51955   0.00000  Uiso   1.00
C1215  C     0.50912   0.46882   0.54155   0.00000  Uiso   1.00
C1216  C     0.57137   0.43445   0.53915   0.00000  Uiso   1.00
C1217  C     0.56485   0.44434   0.58003   0.00000  Uiso   1.00
C1218  C     0.50577   0.48201   0.58156   0.00000  Uiso   1.00
C1219  C     0.66105   0.50887   0.73754   0.00000  Uiso   1.00
C1220  C     0.34085   0.48897   0.76296   0.00000  Uiso   1.00
C1221  C     0.42780   0.54262   0.92340   0.00000  Uiso   1.00
C1222  C     0.51457   0.65565   0.73794   0.00000  Uiso   1.00
C1223  C     0.48520   0.34532   0.76198   0.00000  Uiso   1.00
C1224  C     0.48943   0.38942   0.75881   0.00000  Uiso   1.00
C1225  C     0.51033   0.61105   0.74126   0.00000  Uiso   1.00
C1226  C     0.52169   0.47861   0.64392   0.00000  Uiso   1.00
C1227  C     0.47837   0.52068   0.85646   0.00000  Uiso   1.00
C1228  C     0.46496   0.52447   0.90047   0.00000  Uiso   1.00
C1229  C     0.53165   0.46854   0.60110   0.00000  Uiso   1.00
C1230  C     0.41402   0.54023   0.96442   0.00000  Uiso   1.00
C1231  C     0.36221   0.53316   0.70578   0.00000  Uiso   1.00
C1232  C     0.48823   0.50594   0.91967   0.00000  Uiso   1.00
C1233  C     0.34813   0.55140   0.67472   0.00000  Uiso   1.00
C1234  C     0.64503   0.46062   0.79397   0.00000  Uiso   1.00
C1235  C     0.33485   0.43816   0.81544   0.00000  Uiso   1.00
C1236  C     0.59440   0.42997   0.60003   0.00000  Uiso   1.00
C1237  C     0.57361   0.39084   0.62103   0.00000  Uiso   1.00
C1238  C     0.57453   0.37092   0.95312   0.00000  Uiso   1.00
C1239  C     0.36799   0.53419   0.89594   0.00000  Uiso   1.00
C1240  C     0.41040   0.47409   0.58095   0.00000  Uiso   1.00
C1241  C     0.40722   0.42639   0.57844   0.00000  Uiso   1.00
C1242  C     0.47337   0.50129   0.96061   0.00000  Uiso   1.00
C1243  C     0.43570   0.51887   0.98286   0.00000  Uiso   1.00
C1244  C     0.49509   0.48015   0.98010   0.00000  Uiso   1.00
C1245  C     0.48085   0.48043   0.52215   0.00000  Uiso   1.00
C1246  C     0.43861   0.49131   0.54242   0.00000  Uiso   1.00
C1247  C     0.41826   0.51278   0.52286   0.00000  Uiso   1.00
H1248  H     0.38725   0.52314   0.53847   0.00000  Uiso   1.00
H1249  H     0.66106   0.57675   0.68873   0.00000  Uiso   1.00
H1250  H     0.37700   0.56542   0.65298   0.00000  Uiso   1.00
H1251  H     0.37923   0.55935   0.72107   0.00000  Uiso   1.00
H1252  H     0.38614   0.51174   0.68877   0.00000  Uiso   1.00
H1253  H     0.35597   0.41671   0.79403   0.00000  Uiso   1.00
H1254  H     0.35422   0.46112   0.83126   0.00000  Uiso   1.00
H1255  H     0.64414   0.41931   0.83760   0.00000  Uiso   1.00
H1256  H     0.62280   0.47971   0.81711   0.00000  Uiso   1.00
H1257  H     0.62650   0.43544   0.77910   0.00000  Uiso   1.00
H1258  H     0.54418   0.39734   0.64505   0.00000  Uiso   1.00
H1259  H     0.59805   0.41737   0.52268   0.00000  Uiso   1.00
H1260  H     0.56520   0.36515   0.59950   0.00000  Uiso   1.00
H1261  H     0.59649   0.38044   0.63440   0.00000  Uiso   1.00
H1262  H     0.62492   0.42265   0.57782   0.00000  Uiso   1.00
H1263  H     0.60331   0.45535   0.62158   0.00000  Uiso   1.00
H1264  H     0.60197   0.42584   0.92771   0.00000  Uiso   1.00
H1265  H     0.54951   0.36212   0.93713   0.00000  Uiso   1.00
H1266  H     0.56210   0.36023   0.98332   0.00000  Uiso   1.00
H1267  H     0.60308   0.35482   0.93684   0.00000  Uiso   1.00
H1268  H     0.39314   0.58960   0.92118   0.00000  Uiso   1.00
H1269  H     0.34324   0.52539   0.92353   0.00000  Uiso   1.00
H1270  H     0.54173   0.33653   0.71585   0.00000  Uiso   1.00
H1271  H     0.37985   0.50543   0.87798   0.00000  Uiso   1.00
H1272  H     0.35312   0.55011   0.87844   0.00000  Uiso   1.00
H1273  H     0.38334   0.41505   0.60545   0.00000  Uiso   1.00
H1274  H     0.39659   0.41202   0.55210   0.00000  Uiso   1.00
H1275  H     0.43849   0.41606   0.57655   0.00000  Uiso   1.00
H1276  H     0.41995   0.48846   0.60757   0.00000  Uiso   1.00
H1277  H     0.37701   0.48177   0.58720   0.00000  Uiso   1.00
H1278  H     0.45759   0.66516   0.78404   0.00000  Uiso   1.00
H1279  H     0.48507   0.50515   0.59749   0.00000  Uiso   1.00
H1280  H     0.38504   0.55357   0.98166   0.00000  Uiso   1.00
H1281  H     0.51803   0.49523   0.90175   0.00000  Uiso   1.00
H1282  H     0.53842   0.45153   0.92699   0.00000  Uiso   1.00
H1283  H     0.66463   0.52642   0.65812   0.00000  Uiso   1.00
N1284  N     0.58659   0.41574   0.95529   0.00000  Uiso   1.00
N1285  N     0.40312   0.56201   0.90551   0.00000  Uiso   1.00
O1286  O     0.50000   0.50000   0.75000   0.00000  Uiso   1.00
O1287  O     0.49027   0.45726   0.66625   0.00000  Uiso   1.00
O1288  O     0.46020   0.53979   0.83749   0.00000  Uiso   1.00
O1289  O     0.54421   0.50826   0.65877   0.00000  Uiso   1.00
O1290  O     0.50532   0.49468   0.83749   0.00000  Uiso   1.00
O1291  O     0.51182   0.41434   0.77820   0.00000  Uiso   1.00
O1292  O     0.47914   0.59469   0.76767   0.00000  Uiso   1.00
O1293  O     0.40785   0.46584   0.73607   0.00000  Uiso   1.00
O1294  O     0.60119   0.52512   0.71805   0.00000  Uiso   1.00
O1295  O     0.40323   0.52293   0.77820   0.00000  Uiso   1.00
O1296  O     0.58773   0.48610   0.76767   0.00000  Uiso   1.00
O1297  O     0.47133   0.40236   0.73607   0.00000  Uiso   1.00
O1298  O     0.53771   0.58860   0.71805   0.00000  Uiso   1.00
Zn1299 Zn    0.52577   0.47423   0.78277   0.00000  Uiso   1.00
Zn1300 Zn    0.46792   0.45711   0.72257   0.00000  Uiso   1.00
Zn1301 Zn    0.54500   0.52997   0.71188   0.00000  Uiso   1.00
Zn1302 Zn    0.46131   0.53868   0.78277   0.00000  Uiso   1.00
C1303  C     0.71945   0.49280   0.75908   0.00000  Uiso   1.00
C1304  C     0.86302   0.45746   0.95884   0.00000  Uiso   1.00
C1305  C     0.88616   0.43931   0.97814   0.00000  Uiso   1.00
C1306  C     0.94804   0.50665   0.74098   0.00000  Uiso   1.00
C1307  C     0.87760   0.44685   0.51955   0.00000  Uiso   1.00
C1308  C     0.84245   0.46882   0.54155   0.00000  Uiso   1.00
C1309  C     0.90471   0.43445   0.53915   0.00000  Uiso   1.00
C1310  C     0.89819   0.44434   0.58003   0.00000  Uiso   1.00
C1311  C     0.83910   0.48201   0.58156   0.00000  Uiso   1.00
C1312  C     0.99439   0.50887   0.73754   0.00000  Uiso   1.00
C1313  C     0.67418   0.48897   0.76296   0.00000  Uiso   1.00
C1314  C     0.76113   0.54262   0.92340   0.00000  Uiso   1.00
C1315  C     0.84791   0.65565   0.73794   0.00000  Uiso   1.00
C1316  C     0.81853   0.34532   0.76198   0.00000  Uiso   1.00
C1317  C     0.82276   0.38942   0.75881   0.00000  Uiso   1.00
C1318  C     0.84366   0.61105   0.74126   0.00000  Uiso   1.00
C1319  C     0.85502   0.47861   0.64392   0.00000  Uiso   1.00
C1320  C     0.81171   0.52068   0.85646   0.00000  Uiso   1.00
C1321  C     0.79829   0.52447   0.90047   0.00000  Uiso   1.00
C1322  C     0.86499   0.46854   0.60110   0.00000  Uiso   1.00
C1323  C     0.74735   0.54023   0.96442   0.00000  Uiso   1.00
C1324  C     0.69555   0.53316   0.70578   0.00000  Uiso   1.00
C1325  C     0.82156   0.50594   0.91967   0.00000  Uiso   1.00
C1326  C     0.68147   0.55140   0.67472   0.00000  Uiso   1.00
C1327  C     0.97837   0.46062   0.79397   0.00000  Uiso   1.00
C1328  C     0.66818   0.43816   0.81544   0.00000  Uiso   1.00
C1329  C     0.92773   0.42997   0.60003   0.00000  Uiso   1.00
C1330  C     0.90695   0.39084   0.62103   0.00000  Uiso   1.00
C1331  C     0.90786   0.37092   0.95312   0.00000  Uiso   1.00
C1332  C     0.70132   0.53419   0.89594   0.00000  Uiso   1.00
C1333  C     0.74373   0.47409   0.58095   0.00000  Uiso   1.00
C1334  C     0.74055   0.42639   0.57844   0.00000  Uiso   1.00
C1335  C     0.80670   0.50129   0.96061   0.00000  Uiso   1.00
C1336  C     0.76903   0.51887   0.98286   0.00000  Uiso   1.00
C1337  C     0.82843   0.48015   0.98010   0.00000  Uiso   1.00
C1338  C     0.81418   0.48043   0.52215   0.00000  Uiso   1.00
C1339  C     0.77194   0.49131   0.54242   0.00000  Uiso   1.00
C1340  C     0.75159   0.51278   0.52286   0.00000  Uiso   1.00
H1341  H     0.72058   0.52314   0.53847   0.00000  Uiso   1.00
H1342  H     0.99440   0.57675   0.68873   0.00000  Uiso   1.00
H1343  H     0.71034   0.56542   0.65298   0.00000  Uiso   1.00
H1344  H     0.71257   0.55935   0.72107   0.00000  Uiso   1.00
H1345  H     0.71947   0.51174   0.68877   0.00000  Uiso   1.00
H1346  H     0.68930   0.41671   0.79403   0.00000  Uiso   1.00
H1347  H     0.68755   0.46112   0.83126   0.00000  Uiso   1.00
H1348  H     0.97747   0.41931   0.83760   0.00000  Uiso   1.00
H1349  H     0.95614   0.47971   0.81711   0.00000  Uiso   1.00
H1350  H     0.95983   0.43544   0.77910   0.00000  Uiso   1.00
H1351  H     0.87752   0.39734   0.64505   0.00000  Uiso   1.00
H1352  H     0.93138   0.41737   0.52268   0.00000  Uiso   1.00
H1353  H     0.89853   0.36515   0.59950   0.00000  Uiso   1.00
H1354  H     0.92983   0.38044   0.63440   0.00000  Uiso   1.00
H1355  H     0.95826   0.42265   0.57782   0.00000  Uiso   1.00
H1356  H     0.93665   0.45535   0.62158   0.00000  Uiso   1.00
H1357  H     0.93531   0.42584   0.92771   0.00000  Uiso   1.00
H1358  H     0.88285   0.36212   0.93713   0.00000  Uiso   1.00
H1359  H     0.89544   0.36023   0.98332   0.00000  Uiso   1.00
H1360  H     0.93641   0.35482   0.93684   0.00000  Uiso   1.00
H1361  H     0.72647   0.58960   0.92118   0.00000  Uiso   1.00
H1362  H     0.67657   0.52539   0.92353   0.00000  Uiso   1.00
H1363  H     0.87506   0.33653   0.71585   0.00000  Uiso   1.00
H1364  H     0.71318   0.50543   0.87798   0.00000  Uiso   1.00
H1365  H     0.68645   0.55011   0.87844   0.00000  Uiso   1.00
H1366  H     0.71668   0.41505   0.60545   0.00000  Uiso   1.00
H1367  H     0.72992   0.41202   0.55210   0.00000  Uiso   1.00
H1368  H     0.77183   0.41606   0.57655   0.00000  Uiso   1.00
H1369  H     0.75328   0.48846   0.60757   0.00000  Uiso   1.00
H1370  H     0.71034   0.48177   0.58720   0.00000  Uiso   1.00
H1371  H     0.79093   0.66516   0.78404   0.00000  Uiso   1.00
H1372  H     0.81840   0.50515   0.59749   0.00000  Uiso   1.00
H1373  H     0.71838   0.55357   0.98166   0.00000  Uiso   1.00
H1374  H     0.85137   0.49523   0.90175   0.00000  Uiso   1.00
H1375  H     0.87175   0.45153   0.92699   0.00000  Uiso   1.00
H1376  H     0.99797   0.52642   0.65812   0.00000  Uiso   1.00
N1377  N     0.91992   0.41574   0.95529   0.00000  Uiso   1.00
N1378  N     0.73646   0.56201   0.90551   0.00000  Uiso   1.00
O1379  O     0.83333   0.50000   0.75000   0.00000  Uiso   1.00
O1380  O     0.82360   0.45726   0.66625   0.00000  Uiso   1.00
O1381  O     0.79354   0.53979   0.83749   0.00000  Uiso   1.00
O1382  O     0.87755   0.50826   0.65877   0.00000  Uiso   1.00
O1383  O     0.83865   0.49468   0.83749   0.00000  Uiso   1.00
O1384  O     0.84515   0.41434   0.77820   0.00000  Uiso   1.00
O1385  O     0.81247   0.59469   0.76767   0.00000  Uiso   1.00
O1386  O     0.74119   0.46584   0.73607   0.00000  Uiso   1.00
O1387  O     0.93452   0.52512   0.71805   0.00000  Uiso   1.00
O1388  O     0.73656   0.52293   0.77820   0.00000  Uiso   1.00
O1389  O     0.92106   0.48610   0.76767   0.00000  Uiso   1.00
O1390  O     0.80467   0.40236   0.73607   0.00000  Uiso   1.00
O1391  O     0.87104   0.58860   0.71805   0.00000  Uiso   1.00
Zn1392 Zn    0.85910   0.47423   0.78277   0.00000  Uiso   1.00
Zn1393 Zn    0.80125   0.45711   0.72257   0.00000  Uiso   1.00
Zn1394 Zn    0.87833   0.52997   0.71188   0.00000  Uiso   1.00
Zn1395 Zn    0.79465   0.53868   0.78277   0.00000  Uiso   1.00
C1396  C     0.05278   0.82613   0.75908   0.00000  Uiso   1.00
C1397  C     0.19635   0.79079   0.95884   0.00000  Uiso   1.00
C1398  C     0.21949   0.77265   0.97814   0.00000  Uiso   1.00
C1399  C     0.28138   0.83998   0.74098   0.00000  Uiso   1.00
C1400  C     0.21093   0.78018   0.51955   0.00000  Uiso   1.00
C1401  C     0.17578   0.80215   0.54155   0.00000  Uiso   1.00
C1402  C     0.23804   0.76779   0.53915   0.00000  Uiso   1.00
C1403  C     0.23152   0.77767   0.58003   0.00000  Uiso   1.00
C1404  C     0.17243   0.81534   0.58156   0.00000  Uiso   1.00
C1405  C     0.32772   0.84221   0.73754   0.00000  Uiso   1.00
C1406  C     0.00752   0.82230   0.76296   0.00000  Uiso   1.00
C1407  C     0.09446   0.87595   0.92340   0.00000  Uiso   1.00
C1408  C     0.18124   0.98898   0.73794   0.00000  Uiso   1.00
C1409  C     0.15187   0.67865   0.76198   0.00000  Uiso   1.00
C1410  C     0.15610   0.72275   0.75881   0.00000  Uiso   1.00
C1411  C     0.17699   0.94438   0.74126   0.00000  Uiso   1.00
C1412  C     0.18835   0.81195   0.64392   0.00000  Uiso   1.00
C1413  C     0.14504   0.85401   0.85646   0.00000  Uiso   1.00
C1414  C     0.13163   0.85780   0.90047   0.00000  Uiso   1.00
C1415  C     0.19832   0.80187   0.60110   0.00000  Uiso   1.00
C1416  C     0.08069   0.87356   0.96442   0.00000  Uiso   1.00
C1417  C     0.02888   0.86649   0.70578   0.00000  Uiso   1.00
C1418  C     0.15490   0.83927   0.91967   0.00000  Uiso   1.00
C1419  C     0.01480   0.88473   0.67472   0.00000  Uiso   1.00
C1420  C     0.31170   0.79395   0.79397   0.00000  Uiso   1.00
C1421  C     0.00151   0.77149   0.81544   0.00000  Uiso   1.00
C1422  C     0.26106   0.76330   0.60003   0.00000  Uiso   1.00
C1423  C     0.24028   0.72418   0.62103   0.00000  Uiso   1.00
C1424  C     0.24119   0.70426   0.95312   0.00000  Uiso   1.00
C1425  C     0.03465   0.86753   0.89594   0.00000  Uiso   1.00
C1426  C     0.07706   0.80742   0.58095   0.00000  Uiso   1.00
C1427  C     0.07389   0.75972   0.57844   0.00000  Uiso   1.00
C1428  C     0.14003   0.83462   0.96061   0.00000  Uiso   1.00
C1429  C     0.10236   0.85220   0.98286   0.00000  Uiso   1.00
C1430  C     0.16176   0.81348   0.98010   0.00000  Uiso   1.00
C1431  C     0.14751   0.81376   0.52215   0.00000  Uiso   1.00
C1432  C     0.10528   0.82464   0.54242   0.00000  Uiso   1.00
C1433  C     0.08493   0.84612   0.52286   0.00000  Uiso   1.00
H1434  H     0.05392   0.85647   0.53847   0.00000  Uiso   1.00
H1435  H     0.32773   0.91009   0.68873   0.00000  Uiso   1.00
H1436  H     0.04367   0.89875   0.65298   0.00000  Uiso   1.00
H1437  H     0.04590   0.89268   0.72107   0.00000  Uiso   1.00
H1438  H     0.05281   0.84507   0.68877   0.00000  Uiso   1.00
H1439  H     0.02264   0.75004   0.79403   0.00000  Uiso   1.00
H1440  H     0.02088   0.79446   0.83126   0.00000  Uiso   1.00
H1441  H     0.31081   0.75264   0.83760   0.00000  Uiso   1.00
H1442  H     0.28947   0.81305   0.81711   0.00000  Uiso   1.00
H1443  H     0.29317   0.76878   0.77910   0.00000  Uiso   1.00
H1444  H     0.21085   0.73067   0.64505   0.00000  Uiso   1.00
H1445  H     0.26471   0.75071   0.52268   0.00000  Uiso   1.00
H1446  H     0.23187   0.69848   0.59950   0.00000  Uiso   1.00
H1447  H     0.26316   0.71378   0.63440   0.00000  Uiso   1.00
H1448  H     0.29159   0.75599   0.57782   0.00000  Uiso   1.00
H1449  H     0.26998   0.78869   0.62158   0.00000  Uiso   1.00
H1450  H     0.26864   0.75917   0.92771   0.00000  Uiso   1.00
H1451  H     0.21618   0.69545   0.93713   0.00000  Uiso   1.00
H1452  H     0.22877   0.69356   0.98332   0.00000  Uiso   1.00
H1453  H     0.26974   0.68815   0.93684   0.00000  Uiso   1.00
H1454  H     0.05980   0.92294   0.92118   0.00000  Uiso   1.00
H1455  H     0.00990   0.85873   0.92353   0.00000  Uiso   1.00
H1456  H     0.20840   0.66986   0.71585   0.00000  Uiso   1.00
H1457  H     0.04651   0.83876   0.87798   0.00000  Uiso   1.00
H1458  H     0.01978   0.88344   0.87844   0.00000  Uiso   1.00
H1459  H     0.05001   0.74838   0.60545   0.00000  Uiso   1.00
H1460  H     0.06326   0.74536   0.55210   0.00000  Uiso   1.00
H1461  H     0.10516   0.74939   0.57655   0.00000  Uiso   1.00
H1462  H     0.08661   0.82180   0.60757   0.00000  Uiso   1.00
H1463  H     0.04368   0.81510   0.58720   0.00000  Uiso   1.00
H1464  H     0.12426   0.99849   0.78404   0.00000  Uiso   1.00
H1465  H     0.15173   0.83848   0.59749   0.00000  Uiso   1.00
H1466  H     0.05171   0.88690   0.98166   0.00000  Uiso   1.00
H1467  H     0.18470   0.82857   0.90175   0.00000  Uiso   1.00
H1468  H     0.20508   0.78486   0.92699   0.00000  Uiso   1.00
H1469  H     0.33130   0.85975   0.65812   0.00000  Uiso   1.00
N1470  N     0.25326   0.74907   0.95529   0.00000  Uiso   1.00
N1471  N     0.06979   0.89534   0.90551   0.00000  Uiso   1.00
O1472  O     0.16667   0.83333   0.75000   0.00000  Uiso   1.00
O1473  O     0.15693   0.79060   0.66625   0.00000  Uiso   1.00
O1474  O     0.12687   0.87313   0.83749   0.00000  Uiso   1.00
O1475  O     0.21088   0.84159   0.65877   0.00000  Uiso   1.00
O1476  O     0.17198   0.82802   0.83749   0.00000  Uiso   1.00
O1477  O     0.17849   0.74768   0.77820   0.00000  Uiso   1.00
O1478  O     0.14581   0.92803   0.76767   0.00000  Uiso   1.00
O1479  O     0.07452   0.79917   0.73607   0.00000  Uiso   1.00
O1480  O     0.26785   0.85845   0.71805   0.00000  Uiso   1.00
O1481  O     0.06990   0.85627   0.77820   0.00000  Uiso   1.00
O1482  O     0.25440   0.81944   0.76767   0.00000  Uiso   1.00
O1483  O     0.13800   0.73570   0.73607   0.00000  Uiso   1.00
O1484  O     0.20437   0.92193   0.71805   0.00000  Uiso   1.00
Zn1485 Zn    0.19244   0.80756   0.78277   0.00000  Uiso   1.00
Zn1486 Zn    0.13459   0.79044   0.72257   0.00000  Uiso   1.00
Zn1487 Zn    0.21166   0.86331   0.71188   0.00000  Uiso   1.00
Zn1488 Zn    0.12798   0.87202   0.78277   0.00000  Uiso   1.00
C1489  C     0.38611   0.82613   0.75908   0.00000  Uiso   1.00
C1490  C     0.52969   0.79079   0.95884   0.00000  Uiso   1.00
C1491  C     0.55282   0.77265   0.97814   0.00000  Uiso   1.00
C1492  C     0.61471   0.83998   0.74098   0.00000  Uiso   1.00
C1493  C     0.54426   0.78018   0.51955   0.00000  Uiso   1.00
C1494  C     0.50912   0.80215   0.54155   0.00000  Uiso   1.00
C1495  C     0.57137   0.76779   0.53915   0.00000  Uiso   1.00
C1496  C     0.56485   0.77767   0.58003   0.00000  Uiso   1.00
C1497  C     0.50577   0.81534   0.58156   0.00000  Uiso   1.00
C1498  C     0.66105   0.84221   0.73754   0.00000  Uiso   1.00
C1499  C     0.34085   0.82230   0.76296   0.00000  Uiso   1.00
C1500  C     0.42780   0.87595   0.92340   0.00000  Uiso   1.00
C1501  C     0.51457   0.98898   0.73794   0.00000  Uiso   1.00
C1502  C     0.48520   0.67865   0.76198   0.00000  Uiso   1.00
C1503  C     0.48943   0.72275   0.75881   0.00000  Uiso   1.00
C1504  C     0.51033   0.94438   0.74126   0.00000  Uiso   1.00
C1505  C     0.52169   0.81195   0.64392   0.00000  Uiso   1.00
C1506  C     0.47837   0.85401   0.85646   0.00000  Uiso   1.00
C1507  C     0.46496   0.85780   0.90047   0.00000  Uiso   1.00
C1508  C     0.53165   0.80187   0.60110   0.00000  Uiso   1.00
C1509  C     0.41402   0.87356   0.96442   0.00000  Uiso   1.00
C1510  C     0.36221   0.86649   0.70578   0.00000  Uiso   1.00
C1511  C     0.48823   0.83927   0.91967   0.00000  Uiso   1.00
C1512  C     0.34813   0.88473   0.67472   0.00000  Uiso   1.00
C1513  C     0.64503   0.79395   0.79397   0.00000  Uiso   1.00
C1514  C     0.33485   0.77149   0.81544   0.00000  Uiso   1.00
C1515  C     0.59440   0.76330   0.60003   0.00000  Uiso   1.00
C1516  C     0.57361   0.72418   0.62103   0.00000  Uiso   1.00
C1517  C     0.57453   0.70426   0.95312   0.00000  Uiso   1.00
C1518  C     0.36799   0.86753   0.89594   0.00000  Uiso   1.00
C1519  C     0.41040   0.80742   0.58095   0.00000  Uiso   1.00
C1520  C     0.40722   0.75972   0.57844   0.00000  Uiso   1.00
C1521  C     0.47337   0.83462   0.96061   0.00000  Uiso   1.00
C1522  C     0.43570   0.85220   0.98286   0.00000  Uiso   1.00
C1523  C     0.49509   0.81348   0.98010   0.00000  Uiso   1.00
C1524  C     0.48085   0.81376   0.52215   0.00000  Uiso   1.00
C1525  C     0.43861   0.82464   0.54242   0.00000  Uiso   1.00
C1526  C     0.41826   0.84612   0.52286   0.00000  Uiso   1.00
H1527  H     0.38725   0.85647   0.53847   0.00000  Uiso   1.00
H1528  H     0.66106   0.91009   0.68873   0.00000  Uiso   1.00
H1529  H     0.37700   0.89875   0.65298   0.00000  Uiso   1.00
H1530  H     0.37923   0.89268   0.72107   0.00000  Uiso   1.00
H1531  H     0.38614   0.84507   0.68877   0.00000  Uiso   1.00
H1532  H     0.35597   0.75004   0.79403   0.00000  Uiso   1.00
H1533  H     0.35422   0.79446   0.83126   0.00000  Uiso   1.00
H1534  H     0.64414   0.75264   0.83760   0.00000  Uiso   1.00
H1535  H     0.62280   0.81305   0.81711   0.00000  Uiso   1.00
H1536  H     0.62650   0.76878   0.77910   0.00000  Uiso   1.00
H1537  H     0.54418   0.73067   0.64505   0.00000  Uiso   1.00
H1538  H     0.59805   0.75071   0.52268   0.00000  Uiso   1.00
H1539  H     0.56520   0.69848   0.59950   0.00000  Uiso   1.00
H1540  H     0.59649   0.71378   0.63440   0.00000  Uiso   1.00
H1541  H     0.62492   0.75599   0.57782   0.00000  Uiso   1.00
H1542  H     0.60331   0.78869   0.62158   0.00000  Uiso   1.00
H1543  H     0.60197   0.75917   0.92771   0.00000  Uiso   1.00
H1544  H     0.54951   0.69545   0.93713   0.00000  Uiso   1.00
H1545  H     0.56210   0.69356   0.98332   0.00000  Uiso   1.00
H1546  H     0.60308   0.68815   0.93684   0.00000  Uiso   1.00
H1547  H     0.39314   0.92294   0.92118   0.00000  Uiso   1.00
H1548  H     0.34324   0.85873   0.92353   0.00000  Uiso   1.00
H1549  H     0.54173   0.66986   0.71585   0.00000  Uiso   1.00
H1550  H     0.37985   0.83876   0.87798   0.00000  Uiso   1.00
H1551  H     0.35312   0.88344   0.87844   0.00000  Uiso   1.00
H1552  H     0.38334   0.74838   0.60545   0.00000  Uiso   1.00
H1553  H     0.39659   0.74536   0.55210   0.00000  Uiso   1.00
H1554  H     0.43849   0.74939   0.57655   0.00000  Uiso   1.00
H1555  H     0.41995   0.82180   0.60757   0.00000  Uiso   1.00
H1556  H     0.37701   0.81510   0.58720   0.00000  Uiso   1.00
H1557  H     0.45759   0.99849   0.78404   0.00000  Uiso   1.00
H1558  H     0.48507   0.83848   0.59749   0.00000  Uiso   1.00
H1559  H     0.38504   0.88690   0.98166   0.00000  Uiso   1.00
H1560  H     0.51803   0.82857   0.90175   0.00000  Uiso   1.00
H1561  H     0.53842   0.78486   0.92699   0.00000  Uiso   1.00
H1562  H     0.66463   0.85975   0.65812   0.00000  Uiso   1.00
N1563  N     0.58659   0.74907   0.95529   0.00000  Uiso   1.00
N1564  N     0.40312   0.89534   0.90551   0.00000  Uiso   1.00
O1565  O     0.50000   0.83333   0.75000   0.00000  Uiso   1.00
O1566  O     0.49027   0.79060   0.66625   0.00000  Uiso   1.00
O1567  O     0.46020   0.87313   0.83749   0.00000  Uiso   1.00
O1568  O     0.54421   0.84159   0.65877   0.00000  Uiso   1.00
O1569  O     0.50532   0.82802   0.83749   0.00000  Uiso   1.00
O1570  O     0.51182   0.74768   0.77820   0.00000  Uiso   1.00
O1571  O     0.47914   0.92803   0.76767   0.00000  Uiso   1.00
O1572  O     0.40785   0.79917   0.73607   0.00000  Uiso   1.00
O1573  O     0.60119   0.85845   0.71805   0.00000  Uiso   1.00
O1574  O     0.40323   0.85627   0.77820   0.00000  Uiso   1.00
O1575  O     0.58773   0.81944   0.76767   0.00000  Uiso   1.00
O1576  O     0.47133   0.73570   0.73607   0.00000  Uiso   1.00
O1577  O     0.53771   0.92193   0.71805   0.00000  Uiso   1.00
Zn1578 Zn    0.52577   0.80756   0.78277   0.00000  Uiso   1.00
Zn1579 Zn    0.46792   0.79044   0.72257   0.00000  Uiso   1.00
Zn1580 Zn    0.54500   0.86331   0.71188   0.00000  Uiso   1.00
Zn1581 Zn    0.46131   0.87202   0.78277   0.00000  Uiso   1.00
C1582  C     0.71945   0.82613   0.75908   0.00000  Uiso   1.00
C1583  C     0.86302   0.79079   0.95884   0.00000  Uiso   1.00
C1584  C     0.88616   0.77265   0.97814   0.00000  Uiso   1.00
C1585  C     0.94804   0.83998   0.74098   0.00000  Uiso   1.00
C1586  C     0.87760   0.78018   0.51955   0.00000  Uiso   1.00
C1587  C     0.84245   0.80215   0.54155   0.00000  Uiso   1.00
C1588  C     0.90471   0.76779   0.53915   0.00000  Uiso   1.00
C1589  C     0.89819   0.77767   0.58003   0.00000  Uiso   1.00
C1590  C     0.83910   0.81534   0.58156   0.00000  Uiso   1.00
C1591  C     0.99439   0.84221   0.73754   0.00000  Uiso   1.00
C1592  C     0.67418   0.82230   0.76296   0.00000  Uiso   1.00
C1593  C     0.76113   0.87595   0.92340   0.00000  Uiso   1.00
C1594  C     0.84791   0.98898   0.73794   0.00000  Uiso   1.00
C1595  C     0.81853   0.67865   0.76198   0.00000  Uiso   1.00
C1596  C     0.82276   0.72275   0.75881   0.00000  Uiso   1.00
C1597  C     0.84366   0.94438   0.74126   0.00000  Uiso   1.00
C1598  C     0.85502   0.81195   0.64392   0.00000  Uiso   1.00
C1599  C     0.81171   0.85401   0.85646   0.00000  Uiso   1.00
C1600  C     0.79829   0.85780   0.90047   0.00000  Uiso   1.00
C1601  C     0.86499   0.80187   0.60110   0.00000  Uiso   1.00
C1602  C     0.74735   0.87356   0.96442   0.00000  Uiso   1.00
C1603  C     0.69555   0.86649   0.70578   0.00000  Uiso   1.00
C1604  C     0.82156   0.83927   0.91967   0.00000  Uiso   1.00
C1605  C     0.68147   0.88473   0.67472   0.00000  Uiso   1.00
C1606  C     0.97837   0.79395   0.79397   0.00000  Uiso   1.00
C1607  C     0.66818   0.77149   0.81544   0.00000  Uiso   1.00
C1608  C     0.92773   0.76330   0.60003   0.00000  Uiso   1.00
C1609  C     0.90695   0.72418   0.62103   0.00000  Uiso   1.00
C1610  C     0.90786   0.70426   0.95312   0.00000  Uiso   1.00
C1611  C     0.70132   0.86753   0.89594   0.00000  Uiso   1.00
C1612  C     0.74373   0.80742   0.58095   0.00000  Uiso   1.00
C1613  C     0.74055   0.75972   0.57844   0.00000  Uiso   1.00
C1614  C     0.80670   0.83462   0.96061   0.00000  Uiso   1.00
C1615  C     0.76903   0.85220   0.98286   0.00000  Uiso   1.00
C1616  C     0.82843   0.81348   0.98010   0.00000  Uiso   1.00
C1617  C     0.81418   0.81376   0.52215   0.00000  Uiso   1.00
C1618  C     0.77194   0.82464   0.54242   0.00000  Uiso   1.00
C1619  C     0.75159   0.84612   0.52286   0.00000  Uiso   1.00
H1620  H     0.72058   0.85647   0.53847   0.00000  Uiso   1.00
H1621  H     0.99440   0.91009   0.68873   0.00000  Uiso   1.00
H1622  H     0.71034   0.89875   0.65298   0.00000  Uiso   1.00
H1623  H     0.71257   0.89268   0.72107   0.00000  Uiso   1.00
H1624  H     0.71947   0.84507   0.68877   0.00000  Uiso   1.00
H1625  H     0.68930   0.75004   0.79403   0.00000  Uiso   1.00
H1626  H     0.68755   0.79446   0.83126   0.00000  Uiso   1.00
H1627  H     0.97747   0.75264   0.83760   0.00000  Uiso   1.00
H1628  H     0.95614   0.81305   0.81711   0.00000  Uiso   1.00
H1629  H     0.95983   0.76878   0.77910   0.00000  Uiso   1.00
H1630  H     0.87752   0.73067   0.64505   0.00000  Uiso   1.00
H1631  H     0.93138   0.75071   0.52268   0.00000  Uiso   1.00
H1632  H     0.89853   0.69848   0.59950   0.00000  Uiso   1.00
H1633  H     0.92983   0.71378   0.63440   0.00000  Uiso   1.00
H1634  H     0.95826   0.75599   0.57782   0.00000  Uiso   1.00
H1635  H     0.93665   0.78869   0.62158   0.00000  Uiso   1.00
H1636  H     0.93531   0.75917   0.92771   0.00000  Uiso   1.00
H1637  H     0.88285   0.69545   0.93713   0.00000  Uiso   1.00
H1638  H     0.89544   0.69356   0.98332   0.00000  Uiso   1.00
H1639  H     0.93641   0.68815   0.93684   0.00000  Uiso   1.00
H1640  H     0.72647   0.92294   0.92118   0.00000  Uiso   1.00
H1641  H     0.67657   0.85873   0.92353   0.00000  Uiso   1.00
H1642  H     0.87506   0.66986   0.71585   0.00000  Uiso   1.00
H1643  H     0.71318   0.83876   0.87798   0.00000  Uiso   1.00
H1644  H     0.68645   0.88344   0.87844   0.00000  Uiso   1.00
H1645  H     0.71668   0.74838   0.60545   0.00000  Uiso   1.00
H1646  H     0.72992   0.74536   0.55210   0.00000  Uiso   1.00
H1647  H     0.77183   0.74939   0.57655   0.00000  Uiso   1.00
H1648  H     0.75328   0.82180   0.60757   0.00000  Uiso   1.00
H1649  H     0.71034   0.81510   0.58720   0.00000  Uiso   1.00
H1650  H     0.79093   0.99849   0.78404   0.00000  Uiso   1.00
H1651  H     0.81840   0.83848   0.59749   0.00000  Uiso   1.00
H1652  H     0.71838   0.88690   0.98166   0.00000  Uiso   1.00
H1653  H     0.85137   0.82857   0.90175   0.00000  Uiso   1.00
H1654  H     0.87175   0.78486   0.92699   0.00000  Uiso   1.00
H1655  H     0.99797   0.85975   0.65812   0.00000  Uiso   1.00
N1656  N     0.91992   0.74907   0.95529   0.00000  Uiso   1.00
N1657  N     0.73646   0.89534   0.90551   0.00000  Uiso   1.00
O1658  O     0.83333   0.83333   0.75000   0.00000  Uiso   1.00
O1659  O     0.82360   0.79060   0.66625   0.00000  Uiso   1.00
O1660  O     0.79354   0.87313   0.83749   0.00000  Uiso   1.00
O1661  O     0.87755   0.84159   0.65877   0.00000  Uiso   1.00
O1662  O     0.83865   0.82802   0.83749   0.00000  Uiso   1.00
O1663  O     0.84515   0.74768   0.77820   0.00000  Uiso   1.00
O1664  O     0.81247   0.92803   0.76767   0.00000  Uiso   1.00
O1665  O     0.74119   0.79917   0.73607   0.00000  Uiso   1.00
O1666  O     0.93452   0.85845   0.71805   0.00000  Uiso   1.00
O1667  O     0.73656   0.85627   0.77820   0.00000  Uiso   1.00
O1668  O     0.92106   0.81944   0.76767   0.00000  Uiso   1.00
O1669  O     0.80467   0.73570   0.73607   0.00000  Uiso   1.00
O1670  O     0.87104   0.92193   0.71805   0.00000  Uiso   1.00
Zn1671 Zn    0.85910   0.80756   0.78277   0.00000  Uiso   1.00
Zn1672 Zn    0.80125   0.79044   0.72257   0.00000  Uiso   1.00
Zn1673 Zn    0.87833   0.86331   0.71188   0.00000  Uiso   1.00
Zn1674 Zn    0.79465   0.87202   0.78277   0.00000  Uiso   1.00
loop_
_geom_bond_atom_site_label_1
_geom_bond_atom_site_label_2
_geom_bond_distance
_geom_bond_site_symmetry_2
_ccdc_geom_bond_type
C1     C11     1.439   .     S
C1     O84     1.262   .     A
C1     O86     1.268   .     A
C2     C35     1.414   .     A
C2     H73     1.077   .     S
C2     C3      1.395   .     A
C3     N75     1.425   .     S
C3     C842    1.404   .     S
C4     O87     1.274   .     A
C4     C10     1.481   .     S
C4     O85     1.282   .     A
C5     C6      1.420   .     A
C5     C7      1.409   .     A
C5     C840    1.404   1_554 S
C6     C9      1.401   .     A
C6     C36     1.424   .     A
C7     C8      1.400   .     A
C7     H50     1.083   .     S
C8     C20     1.408   .     A
C8     C27     1.515   .     S
C9     H70     1.076   .     S
C9     C20     1.391   .     A
C10    C104    1.374   .     S
C10    C115    1.547   .     S
C11    C196    1.374   1_455 S
C11    C211    1.536   1_455 S
C12    C21     1.399   .     A
C12    N76     1.422   .     S
C12    C19     1.414   .     A
C13    C16     1.451   .     S
C13    C293    1.332   .     S
C13    H340    1.088   .     S
C14    C15     1.434   .     S
C14    C571    1.332   1_545 S
C14    H627    1.086   1_545 S
C15    O82     1.277   .     A
C15    O88     1.277   .     A
C16    O89     1.271   .     A
C16    O83     1.270   .     A
C17    C20     1.457   .     S
C17    O78     1.274   .     A
C17    O80     1.274   .     A
C18    O81     1.292   .     A
C18    C19     1.484   .     S
C18    O79     1.287   .     A
C19    C23     1.402   .     A
C21    H71     1.085   .     S
C21    C34     1.401   .     A
C22    H42     1.112   .     S
C22    H43     1.112   .     S
C22    C24     1.529   .     S
C22    C196    1.547   1_455 S
C23    C33     1.410   .     A
C23    H72     1.076   .     S
C24    H41     1.111   .     S
C24    H226    1.110   1_455 S
C24    H260    1.111   1_455 S
C25    H47     1.112   .     S
C25    H48     1.112   .     S
C25    C104    1.536   .     S
C25    C119    1.533   .     S
C26    H44     1.111   .     S
C26    H45     1.107   .     S
C26    C211    1.533   1_455 S
C26    H232    1.111   1_455 S
C27    H54     1.111   .     S
C27    H53     1.112   .     S
C27    C28     1.526   .     S
C28    H51     1.111   .     S
C28    H49     1.110   .     S
C28    H52     1.110   .     S
C29    H57     1.111   .     S
C29    N75     1.446   .     S
C29    H56     1.112   .     S
C29    H58     1.110   .     S
C30    H60     1.112   .     S
C30    N76     1.446   .     S
C30    H62     1.109   .     S
C30    H63     1.110   .     S
C31    H67     1.102   .     S
C31    C32     1.528   .     S
C31    H68     1.113   .     S
C31    C37     1.531   .     S
C32    H64     1.111   .     S
C32    H66     1.109   .     S
C32    H65     1.111   .     S
C33    C34     1.412   .     A
C33    C35     1.424   .     A
C34    C875    1.393   .     S
C35    C873    1.424   .     S
C36    C37     1.434   .     A
C36    C872    1.424   1_554 S
C37    C38     1.400   .     A
C38    H39     1.085   .     S
C38    C871    1.393   1_554 S
H40    C117    1.110   .     S
H46    C119    1.111   .     S
H55    N75     1.032   .     S
H59    N76     1.032   .     S
H61    C571    1.088   1_545 S
H69    C293    1.086   .     S
H74    C117    1.111   .     S
O77    Zn92    1.924   .     S
O77    Zn90    1.956   .     S
O77    Zn91    1.944   .     S
O77    Zn93    1.938   .     S
O78    Zn91    1.914   .     S
O79    Zn93    1.925   .     S
O80    Zn92    1.924   .     S
O81    Zn90    1.915   .     S
O82    Zn90    1.924   .     S
O83    Zn93    1.922   .     S
O84    Zn91    1.943   .     S
O85    Zn92    1.952   .     S
O86    Zn93    1.946   .     S
O87    Zn90    1.936   .     S
O88    Zn91    1.930   .     S
O89    Zn92    1.929   .     S
C94    C104    1.439   .     S
C94    O177    1.262   .     A
C94    O179    1.268   .     A
C95    C128    1.414   .     A
C95    H166    1.077   .     S
C95    C96     1.395   .     A
C96    N168    1.425   .     S
C96    C935    1.404   .     S
C97    O180    1.274   .     A
C97    C103    1.481   .     S
C97    O178    1.282   .     A
C98    C99     1.420   .     A
C98    C100    1.409   .     A
C98    C933    1.404   1_554 S
C99    C102    1.401   .     A
C99    C129    1.424   .     A
C100   C101    1.400   .     A
C100   H143    1.083   .     S
C101   C113    1.408   .     A
C101   C120    1.515   .     S
C102   H163    1.076   .     S
C102   C113    1.391   .     A
C103   C197    1.374   .     S
C103   C208    1.547   .     S
C105   C114    1.399   .     A
C105   N169    1.422   .     S
C105   C112    1.414   .     A
C106   C109    1.451   .     S
C106   C386    1.332   .     S
C106   H433    1.088   .     S
C107   C108    1.434   .     S
C107   C664    1.332   1_545 S
C107   H720    1.086   1_545 S
C108   O175    1.277   .     A
C108   O181    1.277   .     A
C109   O182    1.271   .     A
C109   O176    1.270   .     A
C110   C113    1.457   .     S
C110   O171    1.274   .     A
C110   O173    1.274   .     A
C111   O174    1.292   .     A
C111   C112    1.484   .     S
C111   O172    1.287   .     A
C112   C116    1.402   .     A
C114   H164    1.085   .     S
C114   C127    1.401   .     A
C115   H135    1.112   .     S
C115   H136    1.112   .     S
C115   C117    1.529   .     S
C116   C126    1.410   .     A
C116   H165    1.076   .     S
C117   H134    1.111   .     S
C118   H140    1.112   .     S
C118   H141    1.112   .     S
C118   C197    1.536   .     S
C118   C212    1.533   .     S
C119   H137    1.111   .     S
C119   H138    1.107   .     S
C120   H147    1.111   .     S
C120   H146    1.112   .     S
C120   C121    1.526   .     S
C121   H144    1.111   .     S
C121   H142    1.110   .     S
C121   H145    1.110   .     S
C122   H150    1.111   .     S
C122   N168    1.446   .     S
C122   H149    1.112   .     S
C122   H151    1.110   .     S
C123   H153    1.112   .     S
C123   N169    1.446   .     S
C123   H155    1.109   .     S
C123   H156    1.110   .     S
C124   H160    1.102   .     S
C124   C125    1.528   .     S
C124   H161    1.113   .     S
C124   C130    1.531   .     S
C125   H157    1.111   .     S
C125   H159    1.109   .     S
C125   H158    1.111   .     S
C126   C127    1.412   .     A
C126   C128    1.424   .     A
C127   C968    1.393   .     S
C128   C966    1.424   .     S
C129   C130    1.434   .     A
C129   C965    1.424   1_554 S
C130   C131    1.400   .     A
C131   H132    1.085   .     S
C131   C964    1.393   1_554 S
H133   C210    1.110   .     S
H139   C212    1.111   .     S
H148   N168    1.032   .     S
H152   N169    1.032   .     S
H154   C664    1.088   1_545 S
H162   C386    1.086   .     S
H167   C210    1.111   .     S
O170   Zn185   1.924   .     S
O170   Zn183   1.956   .     S
O170   Zn184   1.944   .     S
O170   Zn186   1.938   .     S
O171   Zn184   1.914   .     S
O172   Zn186   1.925   .     S
O173   Zn185   1.924   .     S
O174   Zn183   1.915   .     S
O175   Zn183   1.924   .     S
O176   Zn186   1.922   .     S
O177   Zn184   1.943   .     S
O178   Zn185   1.952   .     S
O179   Zn186   1.946   .     S
O180   Zn183   1.936   .     S
O181   Zn184   1.930   .     S
O182   Zn185   1.929   .     S
C187   C197    1.439   .     S
C187   O270    1.262   .     A
C187   O272    1.268   .     A
C188   C221    1.414   .     A
C188   H259    1.077   .     S
C188   C189    1.395   .     A
C189   N261    1.425   .     S
C189   C1028   1.404   .     S
C190   O273    1.274   .     A
C190   C196    1.481   .     S
C190   O271    1.282   .     A
C191   C192    1.420   .     A
C191   C193    1.409   .     A
C191   C1026   1.404   1_554 S
C192   C195    1.401   .     A
C192   C222    1.424   .     A
C193   C194    1.400   .     A
C193   H236    1.083   .     S
C194   C206    1.408   .     A
C194   C213    1.515   .     S
C195   H256    1.076   .     S
C195   C206    1.391   .     A
C196   C11     1.374   1_655 S
C196   C22     1.547   1_655 S
C198   C207    1.399   .     A
C198   N262    1.422   .     S
C198   C205    1.414   .     A
C199   C202    1.451   .     S
C199   C479    1.332   .     S
C199   H526    1.088   .     S
C200   C201    1.434   .     S
C200   C757    1.332   1_545 S
C200   H813    1.086   1_545 S
C201   O268    1.277   .     A
C201   O274    1.277   .     A
C202   O275    1.271   .     A
C202   O269    1.270   .     A
C203   C206    1.457   .     S
C203   O264    1.274   .     A
C203   O266    1.274   .     A
C204   O267    1.292   .     A
C204   C205    1.484   .     S
C204   O265    1.287   .     A
C205   C209    1.402   .     A
C207   H257    1.085   .     S
C207   C220    1.401   .     A
C208   H228    1.112   .     S
C208   H229    1.112   .     S
C208   C210    1.529   .     S
C209   C219    1.410   .     A
C209   H258    1.076   .     S
C210   H227    1.111   .     S
C211   H233    1.112   .     S
C211   H234    1.112   .     S
C211   C11     1.536   1_655 S
C211   C26     1.533   1_655 S
C212   H230    1.111   .     S
C212   H231    1.107   .     S
C213   H240    1.111   .     S
C213   H239    1.112   .     S
C213   C214    1.526   .     S
C214   H237    1.111   .     S
C214   H235    1.110   .     S
C214   H238    1.110   .     S
C215   H243    1.111   .     S
C215   N261    1.446   .     S
C215   H242    1.112   .     S
C215   H244    1.110   .     S
C216   H246    1.112   .     S
C216   N262    1.446   .     S
C216   H248    1.109   .     S
C216   H249    1.110   .     S
C217   H253    1.102   .     S
C217   C218    1.528   .     S
C217   H254    1.113   .     S
C217   C223    1.531   .     S
C218   H250    1.111   .     S
C218   H252    1.109   .     S
C218   H251    1.111   .     S
C219   C220    1.412   .     A
C219   C221    1.424   .     A
C220   C1061   1.393   .     S
C221   C1059   1.424   .     S
C222   C223    1.434   .     A
C222   C1058   1.424   1_554 S
C223   C224    1.400   .     A
C224   H225    1.085   .     S
C224   C1057   1.393   1_554 S
H226   C24     1.110   1_655 S
H232   C26     1.111   1_655 S
H241   N261    1.032   .     S
H245   N262    1.032   .     S
H247   C757    1.088   1_545 S
H255   C479    1.086   .     S
H260   C24     1.111   1_655 S
O263   Zn278   1.924   .     S
O263   Zn276   1.956   .     S
O263   Zn277   1.944   .     S
O263   Zn279   1.938   .     S
O264   Zn277   1.914   .     S
O265   Zn279   1.925   .     S
O266   Zn278   1.924   .     S
O267   Zn276   1.915   .     S
O268   Zn276   1.924   .     S
O269   Zn279   1.922   .     S
O270   Zn277   1.943   .     S
O271   Zn278   1.952   .     S
O272   Zn279   1.946   .     S
O273   Zn276   1.936   .     S
O274   Zn277   1.930   .     S
O275   Zn278   1.929   .     S
C280   C290    1.439   .     S
C280   O363    1.262   .     A
C280   O365    1.268   .     A
C281   C314    1.414   .     A
C281   H352    1.077   .     S
C281   C282    1.395   .     A
C282   N354    1.425   .     S
C282   C1121   1.404   .     S
C283   O366    1.274   .     A
C283   C289    1.481   .     S
C283   O364    1.282   .     A
C284   C285    1.420   .     A
C284   C286    1.409   .     A
C284   C1119   1.404   1_554 S
C285   C288    1.401   .     A
C285   C315    1.424   .     A
C286   C287    1.400   .     A
C286   H329    1.083   .     S
C287   C299    1.408   .     A
C287   C306    1.515   .     S
C288   H349    1.076   .     S
C288   C299    1.391   .     A
C289   C383    1.374   .     S
C289   C394    1.547   .     S
C290   C475    1.374   1_455 S
C290   C490    1.536   1_455 S
C291   C300    1.399   .     A
C291   N355    1.422   .     S
C291   C298    1.414   .     A
C292   C295    1.451   .     S
C292   C572    1.332   .     S
C292   H619    1.088   .     S
C293   C294    1.434   .     S
C294   O361    1.277   .     A
C294   O367    1.277   .     A
C295   O368    1.271   .     A
C295   O362    1.270   .     A
C296   C299    1.457   .     S
C296   O357    1.274   .     A
C296   O359    1.274   .     A
C297   O360    1.292   .     A
C297   C298    1.484   .     S
C297   O358    1.287   .     A
C298   C302    1.402   .     A
C300   H350    1.085   .     S
C300   C313    1.401   .     A
C301   H321    1.112   .     S
C301   H322    1.112   .     S
C301   C303    1.529   .     S
C301   C475    1.547   1_455 S
C302   C312    1.410   .     A
C302   H351    1.076   .     S
C303   H320    1.111   .     S
C303   H505    1.110   1_455 S
C303   H539    1.111   1_455 S
C304   H326    1.112   .     S
C304   H327    1.112   .     S
C304   C383    1.536   .     S
C304   C398    1.533   .     S
C305   H323    1.111   .     S
C305   H324    1.107   .     S
C305   C490    1.533   1_455 S
C305   H511    1.111   1_455 S
C306   H333    1.111   .     S
C306   H332    1.112   .     S
C306   C307    1.526   .     S
C307   H330    1.111   .     S
C307   H328    1.110   .     S
C307   H331    1.110   .     S
C308   H336    1.111   .     S
C308   N354    1.446   .     S
C308   H335    1.112   .     S
C308   H337    1.110   .     S
C309   H339    1.112   .     S
C309   N355    1.446   .     S
C309   H341    1.109   .     S
C309   H342    1.110   .     S
C310   H346    1.102   .     S
C310   C311    1.528   .     S
C310   H347    1.113   .     S
C310   C316    1.531   .     S
C311   H343    1.111   .     S
C311   H345    1.109   .     S
C311   H344    1.111   .     S
C312   C313    1.412   .     A
C312   C314    1.424   .     A
C313   C1154   1.393   .     S
C314   C1152   1.424   .     S
C315   C316    1.434   .     A
C315   C1151   1.424   1_554 S
C316   C317    1.400   .     A
C317   H318    1.085   .     S
C317   C1150   1.393   1_554 S
H319   C396    1.110   .     S
H325   C398    1.111   .     S
H334   N354    1.032   .     S
H338   N355    1.032   .     S
H348   C572    1.086   .     S
H353   C396    1.111   .     S
O356   Zn371   1.924   .     S
O356   Zn369   1.956   .     S
O356   Zn370   1.944   .     S
O356   Zn372   1.938   .     S
O357   Zn370   1.914   .     S
O358   Zn372   1.925   .     S
O359   Zn371   1.924   .     S
O360   Zn369   1.915   .     S
O361   Zn369   1.924   .     S
O362   Zn372   1.922   .     S
O363   Zn370   1.943   .     S
O364   Zn371   1.952   .     S
O365   Zn372   1.946   .     S
O366   Zn369   1.936   .     S
O367   Zn370   1.930   .     S
O368   Zn371   1.929   .     S
C373   C383    1.439   .     S
C373   O456    1.262   .     A
C373   O458    1.268   .     A
C374   C407    1.414   .     A
C374   H445    1.077   .     S
C374   C375    1.395   .     A
C375   N447    1.425   .     S
C375   C1214   1.404   .     S
C376   O459    1.274   .     A
C376   C382    1.481   .     S
C376   O457    1.282   .     A
C377   C378    1.420   .     A
C377   C379    1.409   .     A
C377   C1212   1.404   1_554 S
C378   C381    1.401   .     A
C378   C408    1.424   .     A
C379   C380    1.400   .     A
C379   H422    1.083   .     S
C380   C392    1.408   .     A
C380   C399    1.515   .     S
C381   H442    1.076   .     S
C381   C392    1.391   .     A
C382   C476    1.374   .     S
C382   C487    1.547   .     S
C384   C393    1.399   .     A
C384   N448    1.422   .     S
C384   C391    1.414   .     A
C385   C388    1.451   .     S
C385   C665    1.332   .     S
C385   H712    1.088   .     S
C386   C387    1.434   .     S
C387   O454    1.277   .     A
C387   O460    1.277   .     A
C388   O461    1.271   .     A
C388   O455    1.270   .     A
C389   C392    1.457   .     S
C389   O450    1.274   .     A
C389   O452    1.274   .     A
C390   O453    1.292   .     A
C390   C391    1.484   .     S
C390   O451    1.287   .     A
C391   C395    1.402   .     A
C393   H443    1.085   .     S
C393   C406    1.401   .     A
C394   H414    1.112   .     S
C394   H415    1.112   .     S
C394   C396    1.529   .     S
C395   C405    1.410   .     A
C395   H444    1.076   .     S
C396   H413    1.111   .     S
C397   H419    1.112   .     S
C397   H420    1.112   .     S
C397   C476    1.536   .     S
C397   C491    1.533   .     S
C398   H416    1.111   .     S
C398   H417    1.107   .     S
C399   H426    1.111   .     S
C399   H425    1.112   .     S
C399   C400    1.526   .     S
C400   H423    1.111   .     S
C400   H421    1.110   .     S
C400   H424    1.110   .     S
C401   H429    1.111   .     S
C401   N447    1.446   .     S
C401   H428    1.112   .     S
C401   H430    1.110   .     S
C402   H432    1.112   .     S
C402   N448    1.446   .     S
C402   H434    1.109   .     S
C402   H435    1.110   .     S
C403   H439    1.102   .     S
C403   C404    1.528   .     S
C403   H440    1.113   .     S
C403   C409    1.531   .     S
C404   H436    1.111   .     S
C404   H438    1.109   .     S
C404   H437    1.111   .     S
C405   C406    1.412   .     A
C405   C407    1.424   .     A
C406   C1247   1.393   .     S
C407   C1245   1.424   .     S
C408   C409    1.434   .     A
C408   C1244   1.424   1_554 S
C409   C410    1.400   .     A
C410   H411    1.085   .     S
C410   C1243   1.393   1_554 S
H412   C489    1.110   .     S
H418   C491    1.111   .     S
H427   N447    1.032   .     S
H431   N448    1.032   .     S
H441   C665    1.086   .     S
H446   C489    1.111   .     S
O449   Zn464   1.924   .     S
O449   Zn462   1.956   .     S
O449   Zn463   1.944   .     S
O449   Zn465   1.938   .     S
O450   Zn463   1.914   .     S
O451   Zn465   1.925   .     S
O452   Zn464   1.924   .     S
O453   Zn462   1.915   .     S
O454   Zn462   1.924   .     S
O455   Zn465   1.922   .     S
O456   Zn463   1.943   .     S
O457   Zn464   1.952   .     S
O458   Zn465   1.946   .     S
O459   Zn462   1.936   .     S
O460   Zn463   1.930   .     S
O461   Zn464   1.929   .     S
C466   C476    1.439   .     S
C466   O549    1.262   .     A
C466   O551    1.268   .     A
C467   C500    1.414   .     A
C467   H538    1.077   .     S
C467   C468    1.395   .     A
C468   N540    1.425   .     S
C468   C1307   1.404   .     S
C469   O552    1.274   .     A
C469   C475    1.481   .     S
C469   O550    1.282   .     A
C470   C471    1.420   .     A
C470   C472    1.409   .     A
C470   C1305   1.404   1_554 S
C471   C474    1.401   .     A
C471   C501    1.424   .     A
C472   C473    1.400   .     A
C472   H515    1.083   .     S
C473   C485    1.408   .     A
C473   C492    1.515   .     S
C474   H535    1.076   .     S
C474   C485    1.391   .     A
C475   C290    1.374   1_655 S
C475   C301    1.547   1_655 S
C477   C486    1.399   .     A
C477   N541    1.422   .     S
C477   C484    1.414   .     A
C478   C481    1.451   .     S
C478   C758    1.332   .     S
C478   H805    1.088   .     S
C479   C480    1.434   .     S
C480   O547    1.277   .     A
C480   O553    1.277   .     A
C481   O554    1.271   .     A
C481   O548    1.270   .     A
C482   C485    1.457   .     S
C482   O543    1.274   .     A
C482   O545    1.274   .     A
C483   O546    1.292   .     A
C483   C484    1.484   .     S
C483   O544    1.287   .     A
C484   C488    1.402   .     A
C486   H536    1.085   .     S
C486   C499    1.401   .     A
C487   H507    1.112   .     S
C487   H508    1.112   .     S
C487   C489    1.529   .     S
C488   C498    1.410   .     A
C488   H537    1.076   .     S
C489   H506    1.111   .     S
C490   H512    1.112   .     S
C490   H513    1.112   .     S
C490   C290    1.536   1_655 S
C490   C305    1.533   1_655 S
C491   H509    1.111   .     S
C491   H510    1.107   .     S
C492   H519    1.111   .     S
C492   H518    1.112   .     S
C492   C493    1.526   .     S
C493   H516    1.111   .     S
C493   H514    1.110   .     S
C493   H517    1.110   .     S
C494   H522    1.111   .     S
C494   N540    1.446   .     S
C494   H521    1.112   .     S
C494   H523    1.110   .     S
C495   H525    1.112   .     S
C495   N541    1.446   .     S
C495   H527    1.109   .     S
C495   H528    1.110   .     S
C496   H532    1.102   .     S
C496   C497    1.528   .     S
C496   H533    1.113   .     S
C496   C502    1.531   .     S
C497   H529    1.111   .     S
C497   H531    1.109   .     S
C497   H530    1.111   .     S
C498   C499    1.412   .     A
C498   C500    1.424   .     A
C499   C1340   1.393   .     S
C500   C1338   1.424   .     S
C501   C502    1.434   .     A
C501   C1337   1.424   1_554 S
C502   C503    1.400   .     A
C503   H504    1.085   .     S
C503   C1336   1.393   1_554 S
H505   C303    1.110   1_655 S
H511   C305    1.111   1_655 S
H520   N540    1.032   .     S
H524   N541    1.032   .     S
H534   C758    1.086   .     S
H539   C303    1.111   1_655 S
O542   Zn557   1.924   .     S
O542   Zn555   1.956   .     S
O542   Zn556   1.944   .     S
O542   Zn558   1.938   .     S
O543   Zn556   1.914   .     S
O544   Zn558   1.925   .     S
O545   Zn557   1.924   .     S
O546   Zn555   1.915   .     S
O547   Zn555   1.924   .     S
O548   Zn558   1.922   .     S
O549   Zn556   1.943   .     S
O550   Zn557   1.952   .     S
O551   Zn558   1.946   .     S
O552   Zn555   1.936   .     S
O553   Zn556   1.930   .     S
O554   Zn557   1.929   .     S
C559   C569    1.439   .     S
C559   O642    1.262   .     A
C559   O644    1.268   .     A
C560   C593    1.414   .     A
C560   H631    1.077   .     S
C560   C561    1.395   .     A
C561   N633    1.425   .     S
C561   C1400   1.404   .     S
C562   O645    1.274   .     A
C562   C568    1.481   .     S
C562   O643    1.282   .     A
C563   C564    1.420   .     A
C563   C565    1.409   .     A
C563   C1398   1.404   1_554 S
C564   C567    1.401   .     A
C564   C594    1.424   .     A
C565   C566    1.400   .     A
C565   H608    1.083   .     S
C566   C578    1.408   .     A
C566   C585    1.515   .     S
C567   H628    1.076   .     S
C567   C578    1.391   .     A
C568   C662    1.374   .     S
C568   C673    1.547   .     S
C569   C754    1.374   1_455 S
C569   C769    1.536   1_455 S
C570   C579    1.399   .     A
C570   N634    1.422   .     S
C570   C577    1.414   .     A
C571   C574    1.451   .     S
C571   C14     1.332   1_565 S
C571   H61     1.088   1_565 S
C572   C573    1.434   .     S
C573   O640    1.277   .     A
C573   O646    1.277   .     A
C574   O647    1.271   .     A
C574   O641    1.270   .     A
C575   C578    1.457   .     S
C575   O636    1.274   .     A
C575   O638    1.274   .     A
C576   O639    1.292   .     A
C576   C577    1.484   .     S
C576   O637    1.287   .     A
C577   C581    1.402   .     A
C579   H629    1.085   .     S
C579   C592    1.401   .     A
C580   H600    1.112   .     S
C580   H601    1.112   .     S
C580   C582    1.529   .     S
C580   C754    1.547   1_455 S
C581   C591    1.410   .     A
C581   H630    1.076   .     S
C582   H599    1.111   .     S
C582   H784    1.110   1_455 S
C582   H818    1.111   1_455 S
C583   H605    1.112   .     S
C583   H606    1.112   .     S
C583   C662    1.536   .     S
C583   C677    1.533   .     S
C584   H602    1.111   .     S
C584   H603    1.107   .     S
C584   C769    1.533   1_455 S
C584   H790    1.111   1_455 S
C585   H612    1.111   .     S
C585   H611    1.112   .     S
C585   C586    1.526   .     S
C586   H609    1.111   .     S
C586   H607    1.110   .     S
C586   H610    1.110   .     S
C587   H615    1.111   .     S
C587   N633    1.446   .     S
C587   H614    1.112   .     S
C587   H616    1.110   .     S
C588   H618    1.112   .     S
C588   N634    1.446   .     S
C588   H620    1.109   .     S
C588   H621    1.110   .     S
C589   H625    1.102   .     S
C589   C590    1.528   .     S
C589   H626    1.113   .     S
C589   C595    1.531   .     S
C590   H622    1.111   .     S
C590   H624    1.109   .     S
C590   H623    1.111   .     S
C591   C592    1.412   .     A
C591   C593    1.424   .     A
C592   C1433   1.393   .     S
C593   C1431   1.424   .     S
C594   C595    1.434   .     A
C594   C1430   1.424   1_554 S
C595   C596    1.400   .     A
C596   H597    1.085   .     S
C596   C1429   1.393   1_554 S
H598   C675    1.110   .     S
H604   C677    1.111   .     S
H613   N633    1.032   .     S
H617   N634    1.032   .     S
H627   C14     1.086   1_565 S
H632   C675    1.111   .     S
O635   Zn650   1.924   .     S
O635   Zn648   1.956   .     S
O635   Zn649   1.944   .     S
O635   Zn651   1.938   .     S
O636   Zn649   1.914   .     S
O637   Zn651   1.925   .     S
O638   Zn650   1.924   .     S
O639   Zn648   1.915   .     S
O640   Zn648   1.924   .     S
O641   Zn651   1.922   .     S
O642   Zn649   1.943   .     S
O643   Zn650   1.952   .     S
O644   Zn651   1.946   .     S
O645   Zn648   1.936   .     S
O646   Zn649   1.930   .     S
O647   Zn650   1.929   .     S
C652   C662    1.439   .     S
C652   O735    1.262   .     A
C652   O737    1.268   .     A
C653   C686    1.414   .     A
C653   H724    1.077   .     S
C653   C654    1.395   .     A
C654   N726    1.425   .     S
C654   C1493   1.404   .     S
C655   O738    1.274   .     A
C655   C661    1.481   .     S
C655   O736    1.282   .     A
C656   C657    1.420   .     A
C656   C658    1.409   .     A
C656   C1491   1.404   1_554 S
C657   C660    1.401   .     A
C657   C687    1.424   .     A
C658   C659    1.400   .     A
C658   H701    1.083   .     S
C659   C671    1.408   .     A
C659   C678    1.515   .     S
C660   H721    1.076   .     S
C660   C671    1.391   .     A
C661   C755    1.374   .     S
C661   C766    1.547   .     S
C663   C672    1.399   .     A
C663   N727    1.422   .     S
C663   C670    1.414   .     A
C664   C667    1.451   .     S
C664   C107    1.332   1_565 S
C664   H154    1.088   1_565 S
C665   C666    1.434   .     S
C666   O733    1.277   .     A
C666   O739    1.277   .     A
C667   O740    1.271   .     A
C667   O734    1.270   .     A
C668   C671    1.457   .     S
C668   O729    1.274   .     A
C668   O731    1.274   .     A
C669   O732    1.292   .     A
C669   C670    1.484   .     S
C669   O730    1.287   .     A
C670   C674    1.402   .     A
C672   H722    1.085   .     S
C672   C685    1.401   .     A
C673   H693    1.112   .     S
C673   H694    1.112   .     S
C673   C675    1.529   .     S
C674   C684    1.410   .     A
C674   H723    1.076   .     S
C675   H692    1.111   .     S
C676   H698    1.112   .     S
C676   H699    1.112   .     S
C676   C755    1.536   .     S
C676   C770    1.533   .     S
C677   H695    1.111   .     S
C677   H696    1.107   .     S
C678   H705    1.111   .     S
C678   H704    1.112   .     S
C678   C679    1.526   .     S
C679   H702    1.111   .     S
C679   H700    1.110   .     S
C679   H703    1.110   .     S
C680   H708    1.111   .     S
C680   N726    1.446   .     S
C680   H707    1.112   .     S
C680   H709    1.110   .     S
C681   H711    1.112   .     S
C681   N727    1.446   .     S
C681   H713    1.109   .     S
C681   H714    1.110   .     S
C682   H718    1.102   .     S
C682   C683    1.528   .     S
C682   H719    1.113   .     S
C682   C688    1.531   .     S
C683   H715    1.111   .     S
C683   H717    1.109   .     S
C683   H716    1.111   .     S
C684   C685    1.412   .     A
C684   C686    1.424   .     A
C685   C1526   1.393   .     S
C686   C1524   1.424   .     S
C687   C688    1.434   .     A
C687   C1523   1.424   1_554 S
C688   C689    1.400   .     A
C689   H690    1.085   .     S
C689   C1522   1.393   1_554 S
H691   C768    1.110   .     S
H697   C770    1.111   .     S
H706   N726    1.032   .     S
H710   N727    1.032   .     S
H720   C107    1.086   1_565 S
H725   C768    1.111   .     S
O728   Zn743   1.924   .     S
O728   Zn741   1.956   .     S
O728   Zn742   1.944   .     S
O728   Zn744   1.938   .     S
O729   Zn742   1.914   .     S
O730   Zn744   1.925   .     S
O731   Zn743   1.924   .     S
O732   Zn741   1.915   .     S
O733   Zn741   1.924   .     S
O734   Zn744   1.922   .     S
O735   Zn742   1.943   .     S
O736   Zn743   1.952   .     S
O737   Zn744   1.946   .     S
O738   Zn741   1.936   .     S
O739   Zn742   1.930   .     S
O740   Zn743   1.929   .     S
C745   C755    1.439   .     S
C745   O828    1.262   .     A
C745   O830    1.268   .     A
C746   C779    1.414   .     A
C746   H817    1.077   .     S
C746   C747    1.395   .     A
C747   N819    1.425   .     S
C747   C1586   1.404   .     S
C748   O831    1.274   .     A
C748   C754    1.481   .     S
C748   O829    1.282   .     A
C749   C750    1.420   .     A
C749   C751    1.409   .     A
C749   C1584   1.404   1_554 S
C750   C753    1.401   .     A
C750   C780    1.424   .     A
C751   C752    1.400   .     A
C751   H794    1.083   .     S
C752   C764    1.408   .     A
C752   C771    1.515   .     S
C753   H814    1.076   .     S
C753   C764    1.391   .     A
C754   C569    1.374   1_655 S
C754   C580    1.547   1_655 S
C756   C765    1.399   .     A
C756   N820    1.422   .     S
C756   C763    1.414   .     A
C757   C760    1.451   .     S
C757   C200    1.332   1_565 S
C757   H247    1.088   1_565 S
C758   C759    1.434   .     S
C759   O826    1.277   .     A
C759   O832    1.277   .     A
C760   O833    1.271   .     A
C760   O827    1.270   .     A
C761   C764    1.457   .     S
C761   O822    1.274   .     A
C761   O824    1.274   .     A
C762   O825    1.292   .     A
C762   C763    1.484   .     S
C762   O823    1.287   .     A
C763   C767    1.402   .     A
C765   H815    1.085   .     S
C765   C778    1.401   .     A
C766   H786    1.112   .     S
C766   H787    1.112   .     S
C766   C768    1.529   .     S
C767   C777    1.410   .     A
C767   H816    1.076   .     S
C768   H785    1.111   .     S
C769   H791    1.112   .     S
C769   H792    1.112   .     S
C769   C569    1.536   1_655 S
C769   C584    1.533   1_655 S
C770   H788    1.111   .     S
C770   H789    1.107   .     S
C771   H798    1.111   .     S
C771   H797    1.112   .     S
C771   C772    1.526   .     S
C772   H795    1.111   .     S
C772   H793    1.110   .     S
C772   H796    1.110   .     S
C773   H801    1.111   .     S
C773   N819    1.446   .     S
C773   H800    1.112   .     S
C773   H802    1.110   .     S
C774   H804    1.112   .     S
C774   N820    1.446   .     S
C774   H806    1.109   .     S
C774   H807    1.110   .     S
C775   H811    1.102   .     S
C775   C776    1.528   .     S
C775   H812    1.113   .     S
C775   C781    1.531   .     S
C776   H808    1.111   .     S
C776   H810    1.109   .     S
C776   H809    1.111   .     S
C777   C778    1.412   .     A
C777   C779    1.424   .     A
C778   C1619   1.393   .     S
C779   C1617   1.424   .     S
C780   C781    1.434   .     A
C780   C1616   1.424   1_554 S
C781   C782    1.400   .     A
C782   H783    1.085   .     S
C782   C1615   1.393   1_554 S
H784   C582    1.110   1_655 S
H790   C584    1.111   1_655 S
H799   N819    1.032   .     S
H803   N820    1.032   .     S
H813   C200    1.086   1_565 S
H818   C582    1.111   1_655 S
O821   Zn836   1.924   .     S
O821   Zn834   1.956   .     S
O821   Zn835   1.944   .     S
O821   Zn837   1.938   .     S
O822   Zn835   1.914   .     S
O823   Zn837   1.925   .     S
O824   Zn836   1.924   .     S
O825   Zn834   1.915   .     S
O826   Zn834   1.924   .     S
O827   Zn837   1.922   .     S
O828   Zn835   1.943   .     S
O829   Zn836   1.952   .     S
O830   Zn837   1.946   .     S
O831   Zn834   1.936   .     S
O832   Zn835   1.930   .     S
O833   Zn836   1.929   .     S
C838   C848    1.439   .     S
C838   O921    1.262   .     A
C838   O923    1.268   .     A
C839   C872    1.414   .     A
C839   H910    1.077   .     S
C839   C840    1.395   .     A
C840   N912    1.425   .     S
C840   C5      1.404   1_556 S
C841   O924    1.274   .     A
C841   C847    1.481   .     S
C841   O922    1.282   .     A
C842   C843    1.420   .     A
C842   C844    1.409   .     A
C843   C846    1.401   .     A
C843   C873    1.424   .     A
C844   C845    1.400   .     A
C844   H887    1.083   .     S
C845   C857    1.408   .     A
C845   C864    1.515   .     S
C846   H907    1.076   .     S
C846   C857    1.391   .     A
C847   C941    1.374   .     S
C847   C952    1.547   .     S
C848   C1033   1.374   1_455 S
C848   C1048   1.536   1_455 S
C849   C858    1.399   .     A
C849   N913    1.422   .     S
C849   C856    1.414   .     A
C850   C853    1.451   .     S
C850   C1130   1.332   .     S
C850   H1177   1.088   .     S
C851   C852    1.434   .     S
C851   C1408   1.332   1_545 S
C851   H1464   1.086   1_545 S
C852   O919    1.277   .     A
C852   O925    1.277   .     A
C853   O926    1.271   .     A
C853   O920    1.270   .     A
C854   C857    1.457   .     S
C854   O915    1.274   .     A
C854   O917    1.274   .     A
C855   O918    1.292   .     A
C855   C856    1.484   .     S
C855   O916    1.287   .     A
C856   C860    1.402   .     A
C858   H908    1.085   .     S
C858   C871    1.401   .     A
C859   H879    1.112   .     S
C859   H880    1.112   .     S
C859   C861    1.529   .     S
C859   C1033   1.547   1_455 S
C860   C870    1.410   .     A
C860   H909    1.076   .     S
C861   H878    1.111   .     S
C861   H1063   1.110   1_455 S
C861   H1097   1.111   1_455 S
C862   H884    1.112   .     S
C862   H885    1.112   .     S
C862   C941    1.536   .     S
C862   C956    1.533   .     S
C863   H881    1.111   .     S
C863   H882    1.107   .     S
C863   C1048   1.533   1_455 S
C863   H1069   1.111   1_455 S
C864   H891    1.111   .     S
C864   H890    1.112   .     S
C864   C865    1.526   .     S
C865   H888    1.111   .     S
C865   H886    1.110   .     S
C865   H889    1.110   .     S
C866   H894    1.111   .     S
C866   N912    1.446   .     S
C866   H893    1.112   .     S
C866   H895    1.110   .     S
C867   H897    1.112   .     S
C867   N913    1.446   .     S
C867   H899    1.109   .     S
C867   H900    1.110   .     S
C868   H904    1.102   .     S
C868   C869    1.528   .     S
C868   H905    1.113   .     S
C868   C874    1.531   .     S
C869   H901    1.111   .     S
C869   H903    1.109   .     S
C869   H902    1.111   .     S
C870   C871    1.412   .     A
C870   C872    1.424   .     A
C871   C38     1.393   1_556 S
C872   C36     1.424   1_556 S
C873   C874    1.434   .     A
C874   C875    1.400   .     A
C875   H876    1.085   .     S
H877   C954    1.110   .     S
H883   C956    1.111   .     S
H892   N912    1.032   .     S
H896   N913    1.032   .     S
H898   C1408   1.088   1_545 S
H906   C1130   1.086   .     S
H911   C954    1.111   .     S
O914   Zn929   1.924   .     S
O914   Zn927   1.956   .     S
O914   Zn928   1.944   .     S
O914   Zn930   1.938   .     S
O915   Zn928   1.914   .     S
O916   Zn930   1.925   .     S
O917   Zn929   1.924   .     S
O918   Zn927   1.915   .     S
O919   Zn927   1.924   .     S
O920   Zn930   1.922   .     S
O921   Zn928   1.943   .     S
O922   Zn929   1.952   .     S
O923   Zn930   1.946   .     S
O924   Zn927   1.936   .     S
O925   Zn928   1.930   .     S
O926   Zn929   1.929   .     S
C931   C941    1.439   .     S
C931   O1014   1.262   .     A
C931   O1016   1.268   .     A
C932   C965    1.414   .     A
C932   H1003   1.077   .     S
C932   C933    1.395   .     A
C933   N1005   1.425   .     S
C933   C98     1.404   1_556 S
C934   O1017   1.274   .     A
C934   C940    1.481   .     S
C934   O1015   1.282   .     A
C935   C936    1.420   .     A
C935   C937    1.409   .     A
C936   C939    1.401   .     A
C936   C966    1.424   .     A
C937   C938    1.400   .     A
C937   H980    1.083   .     S
C938   C950    1.408   .     A
C938   C957    1.515   .     S
C939   H1000   1.076   .     S
C939   C950    1.391   .     A
C940   C1034   1.374   .     S
C940   C1045   1.547   .     S
C942   C951    1.399   .     A
C942   N1006   1.422   .     S
C942   C949    1.414   .     A
C943   C946    1.451   .     S
C943   C1223   1.332   .     S
C943   H1270   1.088   .     S
C944   C945    1.434   .     S
C944   C1501   1.332   1_545 S
C944   H1557   1.086   1_545 S
C945   O1012   1.277   .     A
C945   O1018   1.277   .     A
C946   O1019   1.271   .     A
C946   O1013   1.270   .     A
C947   C950    1.457   .     S
C947   O1008   1.274   .     A
C947   O1010   1.274   .     A
C948   O1011   1.292   .     A
C948   C949    1.484   .     S
C948   O1009   1.287   .     A
C949   C953    1.402   .     A
C951   H1001   1.085   .     S
C951   C964    1.401   .     A
C952   H972    1.112   .     S
C952   H973    1.112   .     S
C952   C954    1.529   .     S
C953   C963    1.410   .     A
C953   H1002   1.076   .     S
C954   H971    1.111   .     S
C955   H977    1.112   .     S
C955   H978    1.112   .     S
C955   C1034   1.536   .     S
C955   C1049   1.533   .     S
C956   H974    1.111   .     S
C956   H975    1.107   .     S
C957   H984    1.111   .     S
C957   H983    1.112   .     S
C957   C958    1.526   .     S
C958   H981    1.111   .     S
C958   H979    1.110   .     S
C958   H982    1.110   .     S
C959   H987    1.111   .     S
C959   N1005   1.446   .     S
C959   H986    1.112   .     S
C959   H988    1.110   .     S
C960   H990    1.112   .     S
C960   N1006   1.446   .     S
C960   H992    1.109   .     S
C960   H993    1.110   .     S
C961   H997    1.102   .     S
C961   C962    1.528   .     S
C961   H998    1.113   .     S
C961   C967    1.531   .     S
C962   H994    1.111   .     S
C962   H996    1.109   .     S
C962   H995    1.111   .     S
C963   C964    1.412   .     A
C963   C965    1.424   .     A
C964   C131    1.393   1_556 S
C965   C129    1.424   1_556 S
C966   C967    1.434   .     A
C967   C968    1.400   .     A
C968   H969    1.085   .     S
H970   C1047   1.110   .     S
H976   C1049   1.111   .     S
H985   N1005   1.032   .     S
H989   N1006   1.032   .     S
H991   C1501   1.088   1_545 S
H999   C1223   1.086   .     S
H1004  C1047   1.111   .     S
O1007  Zn1022  1.924   .     S
O1007  Zn1020  1.956   .     S
O1007  Zn1021  1.944   .     S
O1007  Zn1023  1.938   .     S
O1008  Zn1021  1.914   .     S
O1009  Zn1023  1.925   .     S
O1010  Zn1022  1.924   .     S
O1011  Zn1020  1.915   .     S
O1012  Zn1020  1.924   .     S
O1013  Zn1023  1.922   .     S
O1014  Zn1021  1.943   .     S
O1015  Zn1022  1.952   .     S
O1016  Zn1023  1.946   .     S
O1017  Zn1020  1.936   .     S
O1018  Zn1021  1.930   .     S
O1019  Zn1022  1.929   .     S
C1024  C1034   1.439   .     S
C1024  O1107   1.262   .     A
C1024  O1109   1.268   .     A
C1025  C1058   1.414   .     A
C1025  H1096   1.077   .     S
C1025  C1026   1.395   .     A
C1026  N1098   1.425   .     S
C1026  C191    1.404   1_556 S
C1027  O1110   1.274   .     A
C1027  C1033   1.481   .     S
C1027  O1108   1.282   .     A
C1028  C1029   1.420   .     A
C1028  C1030   1.409   .     A
C1029  C1032   1.401   .     A
C1029  C1059   1.424   .     A
C1030  C1031   1.400   .     A
C1030  H1073   1.083   .     S
C1031  C1043   1.408   .     A
C1031  C1050   1.515   .     S
C1032  H1093   1.076   .     S
C1032  C1043   1.391   .     A
C1033  C848    1.374   1_655 S
C1033  C859    1.547   1_655 S
C1035  C1044   1.399   .     A
C1035  N1099   1.422   .     S
C1035  C1042   1.414   .     A
C1036  C1039   1.451   .     S
C1036  C1316   1.332   .     S
C1036  H1363   1.088   .     S
C1037  C1038   1.434   .     S
C1037  C1594   1.332   1_545 S
C1037  H1650   1.086   1_545 S
C1038  O1105   1.277   .     A
C1038  O1111   1.277   .     A
C1039  O1112   1.271   .     A
C1039  O1106   1.270   .     A
C1040  C1043   1.457   .     S
C1040  O1101   1.274   .     A
C1040  O1103   1.274   .     A
C1041  O1104   1.292   .     A
C1041  C1042   1.484   .     S
C1041  O1102   1.287   .     A
C1042  C1046   1.402   .     A
C1044  H1094   1.085   .     S
C1044  C1057   1.401   .     A
C1045  H1065   1.112   .     S
C1045  H1066   1.112   .     S
C1045  C1047   1.529   .     S
C1046  C1056   1.410   .     A
C1046  H1095   1.076   .     S
C1047  H1064   1.111   .     S
C1048  H1070   1.112   .     S
C1048  H1071   1.112   .     S
C1048  C848    1.536   1_655 S
C1048  C863    1.533   1_655 S
C1049  H1067   1.111   .     S
C1049  H1068   1.107   .     S
C1050  H1077   1.111   .     S
C1050  H1076   1.112   .     S
C1050  C1051   1.526   .     S
C1051  H1074   1.111   .     S
C1051  H1072   1.110   .     S
C1051  H1075   1.110   .     S
C1052  H1080   1.111   .     S
C1052  N1098   1.446   .     S
C1052  H1079   1.112   .     S
C1052  H1081   1.110   .     S
C1053  H1083   1.112   .     S
C1053  N1099   1.446   .     S
C1053  H1085   1.109   .     S
C1053  H1086   1.110   .     S
C1054  H1090   1.102   .     S
C1054  C1055   1.528   .     S
C1054  H1091   1.113   .     S
C1054  C1060   1.531   .     S
C1055  H1087   1.111   .     S
C1055  H1089   1.109   .     S
C1055  H1088   1.111   .     S
C1056  C1057   1.412   .     A
C1056  C1058   1.424   .     A
C1057  C224    1.393   1_556 S
C1058  C222    1.424   1_556 S
C1059  C1060   1.434   .     A
C1060  C1061   1.400   .     A
C1061  H1062   1.085   .     S
H1063  C861    1.110   1_655 S
H1069  C863    1.111   1_655 S
H1078  N1098   1.032   .     S
H1082  N1099   1.032   .     S
H1084  C1594   1.088   1_545 S
H1092  C1316   1.086   .     S
H1097  C861    1.111   1_655 S
O1100  Zn1115  1.924   .     S
O1100  Zn1113  1.956   .     S
O1100  Zn1114  1.944   .     S
O1100  Zn1116  1.938   .     S
O1101  Zn1114  1.914   .     S
O1102  Zn1116  1.925   .     S
O1103  Zn1115  1.924   .     S
O1104  Zn1113  1.915   .     S
O1105  Zn1113  1.924   .     S
O1106  Zn1116  1.922   .     S
O1107  Zn1114  1.943   .     S
O1108  Zn1115  1.952   .     S
O1109  Zn1116  1.946   .     S
O1110  Zn1113  1.936   .     S
O1111  Zn1114  1.930   .     S
O1112  Zn1115  1.929   .     S
C1117  C1127   1.439   .     S
C1117  O1200   1.262   .     A
C1117  O1202   1.268   .     A
C1118  C1151   1.414   .     A
C1118  H1189   1.077   .     S
C1118  C1119   1.395   .     A
C1119  N1191   1.425   .     S
C1119  C284    1.404   1_556 S
C1120  O1203   1.274   .     A
C1120  C1126   1.481   .     S
C1120  O1201   1.282   .     A
C1121  C1122   1.420   .     A
C1121  C1123   1.409   .     A
C1122  C1125   1.401   .     A
C1122  C1152   1.424   .     A
C1123  C1124   1.400   .     A
C1123  H1166   1.083   .     S
C1124  C1136   1.408   .     A
C1124  C1143   1.515   .     S
C1125  H1186   1.076   .     S
C1125  C1136   1.391   .     A
C1126  C1220   1.374   .     S
C1126  C1231   1.547   .     S
C1127  C1312   1.374   1_455 S
C1127  C1327   1.536   1_455 S
C1128  C1137   1.399   .     A
C1128  N1192   1.422   .     S
C1128  C1135   1.414   .     A
C1129  C1132   1.451   .     S
C1129  C1409   1.332   .     S
C1129  H1456   1.088   .     S
C1130  C1131   1.434   .     S
C1131  O1198   1.277   .     A
C1131  O1204   1.277   .     A
C1132  O1205   1.271   .     A
C1132  O1199   1.270   .     A
C1133  C1136   1.457   .     S
C1133  O1194   1.274   .     A
C1133  O1196   1.274   .     A
C1134  O1197   1.292   .     A
C1134  C1135   1.484   .     S
C1134  O1195   1.287   .     A
C1135  C1139   1.402   .     A
C1137  H1187   1.085   .     S
C1137  C1150   1.401   .     A
C1138  H1158   1.112   .     S
C1138  H1159   1.112   .     S
C1138  C1140   1.529   .     S
C1138  C1312   1.547   1_455 S
C1139  C1149   1.410   .     A
C1139  H1188   1.076   .     S
C1140  H1157   1.111   .     S
C1140  H1342   1.110   1_455 S
C1140  H1376   1.111   1_455 S
C1141  H1163   1.112   .     S
C1141  H1164   1.112   .     S
C1141  C1220   1.536   .     S
C1141  C1235   1.533   .     S
C1142  H1160   1.111   .     S
C1142  H1161   1.107   .     S
C1142  C1327   1.533   1_455 S
C1142  H1348   1.111   1_455 S
C1143  H1170   1.111   .     S
C1143  H1169   1.112   .     S
C1143  C1144   1.526   .     S
C1144  H1167   1.111   .     S
C1144  H1165   1.110   .     S
C1144  H1168   1.110   .     S
C1145  H1173   1.111   .     S
C1145  N1191   1.446   .     S
C1145  H1172   1.112   .     S
C1145  H1174   1.110   .     S
C1146  H1176   1.112   .     S
C1146  N1192   1.446   .     S
C1146  H1178   1.109   .     S
C1146  H1179   1.110   .     S
C1147  H1183   1.102   .     S
C1147  C1148   1.528   .     S
C1147  H1184   1.113   .     S
C1147  C1153   1.531   .     S
C1148  H1180   1.111   .     S
C1148  H1182   1.109   .     S
C1148  H1181   1.111   .     S
C1149  C1150   1.412   .     A
C1149  C1151   1.424   .     A
C1150  C317    1.393   1_556 S
C1151  C315    1.424   1_556 S
C1152  C1153   1.434   .     A
C1153  C1154   1.400   .     A
C1154  H1155   1.085   .     S
H1156  C1233   1.110   .     S
H1162  C1235   1.111   .     S
H1171  N1191   1.032   .     S
H1175  N1192   1.032   .     S
H1185  C1409   1.086   .     S
H1190  C1233   1.111   .     S
O1193  Zn1208  1.924   .     S
O1193  Zn1206  1.956   .     S
O1193  Zn1207  1.944   .     S
O1193  Zn1209  1.938   .     S
O1194  Zn1207  1.914   .     S
O1195  Zn1209  1.925   .     S
O1196  Zn1208  1.924   .     S
O1197  Zn1206  1.915   .     S
O1198  Zn1206  1.924   .     S
O1199  Zn1209  1.922   .     S
O1200  Zn1207  1.943   .     S
O1201  Zn1208  1.952   .     S
O1202  Zn1209  1.946   .     S
O1203  Zn1206  1.936   .     S
O1204  Zn1207  1.930   .     S
O1205  Zn1208  1.929   .     S
C1210  C1220   1.439   .     S
C1210  O1293   1.262   .     A
C1210  O1295   1.268   .     A
C1211  C1244   1.414   .     A
C1211  H1282   1.077   .     S
C1211  C1212   1.395   .     A
C1212  N1284   1.425   .     S
C1212  C377    1.404   1_556 S
C1213  O1296   1.274   .     A
C1213  C1219   1.481   .     S
C1213  O1294   1.282   .     A
C1214  C1215   1.420   .     A
C1214  C1216   1.409   .     A
C1215  C1218   1.401   .     A
C1215  C1245   1.424   .     A
C1216  C1217   1.400   .     A
C1216  H1259   1.083   .     S
C1217  C1229   1.408   .     A
C1217  C1236   1.515   .     S
C1218  H1279   1.076   .     S
C1218  C1229   1.391   .     A
C1219  C1313   1.374   .     S
C1219  C1324   1.547   .     S
C1221  C1230   1.399   .     A
C1221  N1285   1.422   .     S
C1221  C1228   1.414   .     A
C1222  C1225   1.451   .     S
C1222  C1502   1.332   .     S
C1222  H1549   1.088   .     S
C1223  C1224   1.434   .     S
C1224  O1291   1.277   .     A
C1224  O1297   1.277   .     A
C1225  O1298   1.271   .     A
C1225  O1292   1.270   .     A
C1226  C1229   1.457   .     S
C1226  O1287   1.274   .     A
C1226  O1289   1.274   .     A
C1227  O1290   1.292   .     A
C1227  C1228   1.484   .     S
C1227  O1288   1.287   .     A
C1228  C1232   1.402   .     A
C1230  H1280   1.085   .     S
C1230  C1243   1.401   .     A
C1231  H1251   1.112   .     S
C1231  H1252   1.112   .     S
C1231  C1233   1.529   .     S
C1232  C1242   1.410   .     A
C1232  H1281   1.076   .     S
C1233  H1250   1.111   .     S
C1234  H1256   1.112   .     S
C1234  H1257   1.112   .     S
C1234  C1313   1.536   .     S
C1234  C1328   1.533   .     S
C1235  H1253   1.111   .     S
C1235  H1254   1.107   .     S
C1236  H1263   1.111   .     S
C1236  H1262   1.112   .     S
C1236  C1237   1.526   .     S
C1237  H1260   1.111   .     S
C1237  H1258   1.110   .     S
C1237  H1261   1.110   .     S
C1238  H1266   1.111   .     S
C1238  N1284   1.446   .     S
C1238  H1265   1.112   .     S
C1238  H1267   1.110   .     S
C1239  H1269   1.112   .     S
C1239  N1285   1.446   .     S
C1239  H1271   1.109   .     S
C1239  H1272   1.110   .     S
C1240  H1276   1.102   .     S
C1240  C1241   1.528   .     S
C1240  H1277   1.113   .     S
C1240  C1246   1.531   .     S
C1241  H1273   1.111   .     S
C1241  H1275   1.109   .     S
C1241  H1274   1.111   .     S
C1242  C1243   1.412   .     A
C1242  C1244   1.424   .     A
C1243  C410    1.393   1_556 S
C1244  C408    1.424   1_556 S
C1245  C1246   1.434   .     A
C1246  C1247   1.400   .     A
C1247  H1248   1.085   .     S
H1249  C1326   1.110   .     S
H1255  C1328   1.111   .     S
H1264  N1284   1.032   .     S
H1268  N1285   1.032   .     S
H1278  C1502   1.086   .     S
H1283  C1326   1.111   .     S
O1286  Zn1301  1.924   .     S
O1286  Zn1299  1.956   .     S
O1286  Zn1300  1.944   .     S
O1286  Zn1302  1.938   .     S
O1287  Zn1300  1.914   .     S
O1288  Zn1302  1.925   .     S
O1289  Zn1301  1.924   .     S
O1290  Zn1299  1.915   .     S
O1291  Zn1299  1.924   .     S
O1292  Zn1302  1.922   .     S
O1293  Zn1300  1.943   .     S
O1294  Zn1301  1.952   .     S
O1295  Zn1302  1.946   .     S
O1296  Zn1299  1.936   .     S
O1297  Zn1300  1.930   .     S
O1298  Zn1301  1.929   .     S
C1303  C1313   1.439   .     S
C1303  O1386   1.262   .     A
C1303  O1388   1.268   .     A
C1304  C1337   1.414   .     A
C1304  H1375   1.077   .     S
C1304  C1305   1.395   .     A
C1305  N1377   1.425   .     S
C1305  C470    1.404   1_556 S
C1306  O1389   1.274   .     A
C1306  C1312   1.481   .     S
C1306  O1387   1.282   .     A
C1307  C1308   1.420   .     A
C1307  C1309   1.409   .     A
C1308  C1311   1.401   .     A
C1308  C1338   1.424   .     A
C1309  C1310   1.400   .     A
C1309  H1352   1.083   .     S
C1310  C1322   1.408   .     A
C1310  C1329   1.515   .     S
C1311  H1372   1.076   .     S
C1311  C1322   1.391   .     A
C1312  C1127   1.374   1_655 S
C1312  C1138   1.547   1_655 S
C1314  C1323   1.399   .     A
C1314  N1378   1.422   .     S
C1314  C1321   1.414   .     A
C1315  C1318   1.451   .     S
C1315  C1595   1.332   .     S
C1315  H1642   1.088   .     S
C1316  C1317   1.434   .     S
C1317  O1384   1.277   .     A
C1317  O1390   1.277   .     A
C1318  O1391   1.271   .     A
C1318  O1385   1.270   .     A
C1319  C1322   1.457   .     S
C1319  O1380   1.274   .     A
C1319  O1382   1.274   .     A
C1320  O1383   1.292   .     A
C1320  C1321   1.484   .     S
C1320  O1381   1.287   .     A
C1321  C1325   1.402   .     A
C1323  H1373   1.085   .     S
C1323  C1336   1.401   .     A
C1324  H1344   1.112   .     S
C1324  H1345   1.112   .     S
C1324  C1326   1.529   .     S
C1325  C1335   1.410   .     A
C1325  H1374   1.076   .     S
C1326  H1343   1.111   .     S
C1327  H1349   1.112   .     S
C1327  H1350   1.112   .     S
C1327  C1127   1.536   1_655 S
C1327  C1142   1.533   1_655 S
C1328  H1346   1.111   .     S
C1328  H1347   1.107   .     S
C1329  H1356   1.111   .     S
C1329  H1355   1.112   .     S
C1329  C1330   1.526   .     S
C1330  H1353   1.111   .     S
C1330  H1351   1.110   .     S
C1330  H1354   1.110   .     S
C1331  H1359   1.111   .     S
C1331  N1377   1.446   .     S
C1331  H1358   1.112   .     S
C1331  H1360   1.110   .     S
C1332  H1362   1.112   .     S
C1332  N1378   1.446   .     S
C1332  H1364   1.109   .     S
C1332  H1365   1.110   .     S
C1333  H1369   1.102   .     S
C1333  C1334   1.528   .     S
C1333  H1370   1.113   .     S
C1333  C1339   1.531   .     S
C1334  H1366   1.111   .     S
C1334  H1368   1.109   .     S
C1334  H1367   1.111   .     S
C1335  C1336   1.412   .     A
C1335  C1337   1.424   .     A
C1336  C503    1.393   1_556 S
C1337  C501    1.424   1_556 S
C1338  C1339   1.434   .     A
C1339  C1340   1.400   .     A
C1340  H1341   1.085   .     S
H1342  C1140   1.110   1_655 S
H1348  C1142   1.111   1_655 S
H1357  N1377   1.032   .     S
H1361  N1378   1.032   .     S
H1371  C1595   1.086   .     S
H1376  C1140   1.111   1_655 S
O1379  Zn1394  1.924   .     S
O1379  Zn1392  1.956   .     S
O1379  Zn1393  1.944   .     S
O1379  Zn1395  1.938   .     S
O1380  Zn1393  1.914   .     S
O1381  Zn1395  1.925   .     S
O1382  Zn1394  1.924   .     S
O1383  Zn1392  1.915   .     S
O1384  Zn1392  1.924   .     S
O1385  Zn1395  1.922   .     S
O1386  Zn1393  1.943   .     S
O1387  Zn1394  1.952   .     S
O1388  Zn1395  1.946   .     S
O1389  Zn1392  1.936   .     S
O1390  Zn1393  1.930   .     S
O1391  Zn1394  1.929   .     S
C1396  C1406   1.439   .     S
C1396  O1479   1.262   .     A
C1396  O1481   1.268   .     A
C1397  C1430   1.414   .     A
C1397  H1468   1.077   .     S
C1397  C1398   1.395   .     A
C1398  N1470   1.425   .     S
C1398  C563    1.404   1_556 S
C1399  O1482   1.274   .     A
C1399  C1405   1.481   .     S
C1399  O1480   1.282   .     A
C1400  C1401   1.420   .     A
C1400  C1402   1.409   .     A
C1401  C1404   1.401   .     A
C1401  C1431   1.424   .     A
C1402  C1403   1.400   .     A
C1402  H1445   1.083   .     S
C1403  C1415   1.408   .     A
C1403  C1422   1.515   .     S
C1404  H1465   1.076   .     S
C1404  C1415   1.391   .     A
C1405  C1499   1.374   .     S
C1405  C1510   1.547   .     S
C1406  C1591   1.374   1_455 S
C1406  C1606   1.536   1_455 S
C1407  C1416   1.399   .     A
C1407  N1471   1.422   .     S
C1407  C1414   1.414   .     A
C1408  C1411   1.451   .     S
C1408  C851    1.332   1_565 S
C1408  H898    1.088   1_565 S
C1409  C1410   1.434   .     S
C1410  O1477   1.277   .     A
C1410  O1483   1.277   .     A
C1411  O1484   1.271   .     A
C1411  O1478   1.270   .     A
C1412  C1415   1.457   .     S
C1412  O1473   1.274   .     A
C1412  O1475   1.274   .     A
C1413  O1476   1.292   .     A
C1413  C1414   1.484   .     S
C1413  O1474   1.287   .     A
C1414  C1418   1.402   .     A
C1416  H1466   1.085   .     S
C1416  C1429   1.401   .     A
C1417  H1437   1.112   .     S
C1417  H1438   1.112   .     S
C1417  C1419   1.529   .     S
C1417  C1591   1.547   1_455 S
C1418  C1428   1.410   .     A
C1418  H1467   1.076   .     S
C1419  H1436   1.111   .     S
C1419  H1621   1.110   1_455 S
C1419  H1655   1.111   1_455 S
C1420  H1442   1.112   .     S
C1420  H1443   1.112   .     S
C1420  C1499   1.536   .     S
C1420  C1514   1.533   .     S
C1421  H1439   1.111   .     S
C1421  H1440   1.107   .     S
C1421  C1606   1.533   1_455 S
C1421  H1627   1.111   1_455 S
C1422  H1449   1.111   .     S
C1422  H1448   1.112   .     S
C1422  C1423   1.526   .     S
C1423  H1446   1.111   .     S
C1423  H1444   1.110   .     S
C1423  H1447   1.110   .     S
C1424  H1452   1.111   .     S
C1424  N1470   1.446   .     S
C1424  H1451   1.112   .     S
C1424  H1453   1.110   .     S
C1425  H1455   1.112   .     S
C1425  N1471   1.446   .     S
C1425  H1457   1.109   .     S
C1425  H1458   1.110   .     S
C1426  H1462   1.102   .     S
C1426  C1427   1.528   .     S
C1426  H1463   1.113   .     S
C1426  C1432   1.531   .     S
C1427  H1459   1.111   .     S
C1427  H1461   1.109   .     S
C1427  H1460   1.111   .     S
C1428  C1429   1.412   .     A
C1428  C1430   1.424   .     A
C1429  C596    1.393   1_556 S
C1430  C594    1.424   1_556 S
C1431  C1432   1.434   .     A
C1432  C1433   1.400   .     A
C1433  H1434   1.085   .     S
H1435  C1512   1.110   .     S
H1441  C1514   1.111   .     S
H1450  N1470   1.032   .     S
H1454  N1471   1.032   .     S
H1464  C851    1.086   1_565 S
H1469  C1512   1.111   .     S
O1472  Zn1487  1.924   .     S
O1472  Zn1485  1.956   .     S
O1472  Zn1486  1.944   .     S
O1472  Zn1488  1.938   .     S
O1473  Zn1486  1.914   .     S
O1474  Zn1488  1.925   .     S
O1475  Zn1487  1.924   .     S
O1476  Zn1485  1.915   .     S
O1477  Zn1485  1.924   .     S
O1478  Zn1488  1.922   .     S
O1479  Zn1486  1.943   .     S
O1480  Zn1487  1.952   .     S
O1481  Zn1488  1.946   .     S
O1482  Zn1485  1.936   .     S
O1483  Zn1486  1.930   .     S
O1484  Zn1487  1.929   .     S
C1489  C1499   1.439   .     S
C1489  O1572   1.262   .     A
C1489  O1574   1.268   .     A
C1490  C1523   1.414   .     A
C1490  H1561   1.077   .     S
C1490  C1491   1.395   .     A
C1491  N1563   1.425   .     S
C1491  C656    1.404   1_556 S
C1492  O1575   1.274   .     A
C1492  C1498   1.481   .     S
C1492  O1573   1.282   .     A
C1493  C1494   1.420   .     A
C1493  C1495   1.409   .     A
C1494  C1497   1.401   .     A
C1494  C1524   1.424   .     A
C1495  C1496   1.400   .     A
C1495  H1538   1.083   .     S
C1496  C1508   1.408   .     A
C1496  C1515   1.515   .     S
C1497  H1558   1.076   .     S
C1497  C1508   1.391   .     A
C1498  C1592   1.374   .     S
C1498  C1603   1.547   .     S
C1500  C1509   1.399   .     A
C1500  N1564   1.422   .     S
C1500  C1507   1.414   .     A
C1501  C1504   1.451   .     S
C1501  C944    1.332   1_565 S
C1501  H991    1.088   1_565 S
C1502  C1503   1.434   .     S
C1503  O1570   1.277   .     A
C1503  O1576   1.277   .     A
C1504  O1577   1.271   .     A
C1504  O1571   1.270   .     A
C1505  C1508   1.457   .     S
C1505  O1566   1.274   .     A
C1505  O1568   1.274   .     A
C1506  O1569   1.292   .     A
C1506  C1507   1.484   .     S
C1506  O1567   1.287   .     A
C1507  C1511   1.402   .     A
C1509  H1559   1.085   .     S
C1509  C1522   1.401   .     A
C1510  H1530   1.112   .     S
C1510  H1531   1.112   .     S
C1510  C1512   1.529   .     S
C1511  C1521   1.410   .     A
C1511  H1560   1.076   .     S
C1512  H1529   1.111   .     S
C1513  H1535   1.112   .     S
C1513  H1536   1.112   .     S
C1513  C1592   1.536   .     S
C1513  C1607   1.533   .     S
C1514  H1532   1.111   .     S
C1514  H1533   1.107   .     S
C1515  H1542   1.111   .     S
C1515  H1541   1.112   .     S
C1515  C1516   1.526   .     S
C1516  H1539   1.111   .     S
C1516  H1537   1.110   .     S
C1516  H1540   1.110   .     S
C1517  H1545   1.111   .     S
C1517  N1563   1.446   .     S
C1517  H1544   1.112   .     S
C1517  H1546   1.110   .     S
C1518  H1548   1.112   .     S
C1518  N1564   1.446   .     S
C1518  H1550   1.109   .     S
C1518  H1551   1.110   .     S
C1519  H1555   1.102   .     S
C1519  C1520   1.528   .     S
C1519  H1556   1.113   .     S
C1519  C1525   1.531   .     S
C1520  H1552   1.111   .     S
C1520  H1554   1.109   .     S
C1520  H1553   1.111   .     S
C1521  C1522   1.412   .     A
C1521  C1523   1.424   .     A
C1522  C689    1.393   1_556 S
C1523  C687    1.424   1_556 S
C1524  C1525   1.434   .     A
C1525  C1526   1.400   .     A
C1526  H1527   1.085   .     S
H1528  C1605   1.110   .     S
H1534  C1607   1.111   .     S
H1543  N1563   1.032   .     S
H1547  N1564   1.032   .     S
H1557  C944    1.086   1_565 S
H1562  C1605   1.111   .     S
O1565  Zn1580  1.924   .     S
O1565  Zn1578  1.956   .     S
O1565  Zn1579  1.944   .     S
O1565  Zn1581  1.938   .     S
O1566  Zn1579  1.914   .     S
O1567  Zn1581  1.925   .     S
O1568  Zn1580  1.924   .     S
O1569  Zn1578  1.915   .     S
O1570  Zn1578  1.924   .     S
O1571  Zn1581  1.922   .     S
O1572  Zn1579  1.943   .     S
O1573  Zn1580  1.952   .     S
O1574  Zn1581  1.946   .     S
O1575  Zn1578  1.936   .     S
O1576  Zn1579  1.930   .     S
O1577  Zn1580  1.929   .     S
C1582  C1592   1.439   .     S
C1582  O1665   1.262   .     A
C1582  O1667   1.268   .     A
C1583  C1616   1.414   .     A
C1583  H1654   1.077   .     S
C1583  C1584   1.395   .     A
C1584  N1656   1.425   .     S
C1584  C749    1.404   1_556 S
C1585  O1668   1.274   .     A
C1585  C1591   1.481   .     S
C1585  O1666   1.282   .     A
C1586  C1587   1.420   .     A
C1586  C1588   1.409   .     A
C1587  C1590   1.401   .     A
C1587  C1617   1.424   .     A
C1588  C1589   1.400   .     A
C1588  H1631   1.083   .     S
C1589  C1601   1.408   .     A
C1589  C1608   1.515   .     S
C1590  H1651   1.076   .     S
C1590  C1601   1.391   .     A
C1591  C1406   1.374   1_655 S
C1591  C1417   1.547   1_655 S
C1593  C1602   1.399   .     A
C1593  N1657   1.422   .     S
C1593  C1600   1.414   .     A
C1594  C1597   1.451   .     S
C1594  C1037   1.332   1_565 S
C1594  H1084   1.088   1_565 S
C1595  C1596   1.434   .     S
C1596  O1663   1.277   .     A
C1596  O1669   1.277   .     A
C1597  O1670   1.271   .     A
C1597  O1664   1.270   .     A
C1598  C1601   1.457   .     S
C1598  O1659   1.274   .     A
C1598  O1661   1.274   .     A
C1599  O1662   1.292   .     A
C1599  C1600   1.484   .     S
C1599  O1660   1.287   .     A
C1600  C1604   1.402   .     A
C1602  H1652   1.085   .     S
C1602  C1615   1.401   .     A
C1603  H1623   1.112   .     S
C1603  H1624   1.112   .     S
C1603  C1605   1.529   .     S
C1604  C1614   1.410   .     A
C1604  H1653   1.076   .     S
C1605  H1622   1.111   .     S
C1606  H1628   1.112   .     S
C1606  H1629   1.112   .     S
C1606  C1406   1.536   1_655 S
C1606  C1421   1.533   1_655 S
C1607  H1625   1.111   .     S
C1607  H1626   1.107   .     S
C1608  H1635   1.111   .     S
C1608  H1634   1.112   .     S
C1608  C1609   1.526   .     S
C1609  H1632   1.111   .     S
C1609  H1630   1.110   .     S
C1609  H1633   1.110   .     S
C1610  H1638   1.111   .     S
C1610  N1656   1.446   .     S
C1610  H1637   1.112   .     S
C1610  H1639   1.110   .     S
C1611  H1641   1.112   .     S
C1611  N1657   1.446   .     S
C1611  H1643   1.109   .     S
C1611  H1644   1.110   .     S
C1612  H1648   1.102   .     S
C1612  C1613   1.528   .     S
C1612  H1649   1.113   .     S
C1612  C1618   1.531   .     S
C1613  H1645   1.111   .     S
C1613  H1647   1.109   .     S
C1613  H1646   1.111   .     S
C1614  C1615   1.412   .     A
C1614  C1616   1.424   .     A
C1615  C782    1.393   1_556 S
C1616  C780    1.424   1_556 S
C1617  C1618   1.434   .     A
C1618  C1619   1.400   .     A
C1619  H1620   1.085   .     S
H1621  C1419   1.110   1_655 S
H1627  C1421   1.111   1_655 S
H1636  N1656   1.032   .     S
H1640  N1657   1.032   .     S
H1650  C1037   1.086   1_565 S
H1655  C1419   1.111   1_655 S
O1658  Zn1673  1.924   .     S
O1658  Zn1671  1.956   .     S
O1658  Zn1672  1.944   .     S
O1658  Zn1674  1.938   .     S
O1659  Zn1672  1.914   .     S
O1660  Zn1674  1.925   .     S
O1661  Zn1673  1.924   .     S
O1662  Zn1671  1.915   .     S
O1663  Zn1671  1.924   .     S
O1664  Zn1674  1.922   .     S
O1665  Zn1672  1.943   .     S
O1666  Zn1673  1.952   .     S
O1667  Zn1674  1.946   .     S
O1668  Zn1671  1.936   .     S
O1669  Zn1672  1.930   .     S
O1670  Zn1673  1.929   .     S
