data_str_m1_o10_o16_pcu_sym.133
_audit_creation_date              2020-01-03
_audit_creation_method            'Materials Studio'
_symmetry_space_group_name_H-M    'P1'
_symmetry_Int_Tables_number       1
_symmetry_cell_setting            triclinic
loop_
_symmetry_equiv_pos_as_xyz
  x,y,z
_cell_length_a                    32.4815
_cell_length_b                    32.5686
_cell_length_c                    31.1978
_cell_angle_alpha                 96.9688
_cell_angle_beta                  74.5287
_cell_angle_gamma                 98.4965
loop_
_atom_site_label
_atom_site_type_symbol
_atom_site_fract_x
_atom_site_fract_y
_atom_site_fract_z
_atom_site_U_iso_or_equiv
_atom_site_adp_type
_atom_site_occupancy
C1     C     0.05271   0.15977   0.25996   0.00000  Uiso   1.00
C2     C     0.16539   0.16343   0.06244   0.00000  Uiso   1.00
C3     C     0.21344   0.11053   0.05681   0.00000  Uiso   1.00
C4     C     0.28074   0.17380   0.23995   0.00000  Uiso   1.00
C5     C     0.14139   0.19364   0.41954   0.00000  Uiso   1.00
C6     C     0.32671   0.17636   0.23573   0.00000  Uiso   1.00
C7     C     0.00739   0.15756   0.26391   0.00000  Uiso   1.00
C8     C     0.18050   0.32281   0.23914   0.00000  Uiso   1.00
C9     C     0.14993   0.01190   0.26448   0.00000  Uiso   1.00
C10    C     0.15628   0.05600   0.25981   0.00000  Uiso   1.00
C11    C     0.17634   0.27792   0.24043   0.00000  Uiso   1.00
C12    C     0.13538   0.24842   0.47998   0.00000  Uiso   1.00
C13    C     0.18524   0.14803   0.12955   0.00000  Uiso   1.00
C14    C     0.14762   0.18397   0.37101   0.00000  Uiso   1.00
C15    C     0.20806   0.09648   0.01453   0.00000  Uiso   1.00
C16    C     0.18990   0.14224   0.08175   0.00000  Uiso   1.00
C17    C     0.13135   0.23365   0.43755   0.00000  Uiso   1.00
C18    C     0.27741   0.11156   0.07489   0.00000  Uiso   1.00
C19    C     0.31033   0.09964   0.03144   0.00000  Uiso   1.00
C20    C     0.02217   0.12091   0.03148   0.00000  Uiso   1.00
C21    C     0.09443   0.01242   0.32969   0.00000  Uiso   1.00
C22    C     0.11935   0.00331   0.36228   0.00000  Uiso   1.00
C23    C     0.14879   0.22339   0.00537   0.00000  Uiso   1.00
C24    C     0.09721   0.01700   0.41045   0.00000  Uiso   1.00
C25    C     0.13148   0.18762   0.09215   0.00000  Uiso   1.00
C26    C     0.15470   0.18135   0.49052   0.00000  Uiso   1.00
C27    C     0.15106   0.16637   0.44678   0.00000  Uiso   1.00
C28    C     0.16813   0.15493   0.01615   0.00000  Uiso   1.00
C29    C     0.18513   0.11796   0.49437   0.00000  Uiso   1.00
C30    C     0.17818   0.10232   0.45304   0.00000  Uiso   1.00
C31    C     0.15867   0.12502   0.43099   0.00000  Uiso   1.00
H32    H     0.31888   0.14052   0.29049   0.00000  Uiso   1.00
H33    H     0.28801   0.10317   0.10340   0.00000  Uiso   1.00
H34    H     0.27685   0.14603   0.07960   0.00000  Uiso   1.00
H35    H     0.31071   0.06530   0.02733   0.00000  Uiso   1.00
H36    H     0.30102   0.10900   0.00258   0.00000  Uiso   1.00
H37    H     0.02271   0.15533   0.03488   0.00000  Uiso   1.00
H38    H     0.04516   0.11177   0.49958   0.00000  Uiso   1.00
H39    H     0.03276   0.11135   0.05944   0.00000  Uiso   1.00
H40    H     0.06021   0.33272   0.34189   0.00000  Uiso   1.00
H41    H     0.09433   0.04653   0.32939   0.00000  Uiso   1.00
H42    H     0.12167   0.30267   0.35943   0.00000  Uiso   1.00
H43    H     0.20964   0.00471   0.21800   0.00000  Uiso   1.00
H44    H     0.15248   0.02004   0.35367   0.00000  Uiso   1.00
H45    H     0.09317   0.05060   0.41396   0.00000  Uiso   1.00
H46    H     0.11703   0.01179   0.43286   0.00000  Uiso   1.00
H47    H     0.06511   0.33193   0.42084   0.00000  Uiso   1.00
H48    H     0.11533   0.23077   0.14392   0.00000  Uiso   1.00
H49    H     0.18746   0.07220   0.43788   0.00000  Uiso   1.00
H50    H     0.22244   0.06912   0.49722   0.00000  Uiso   1.00
H51    H     0.12345   0.25484   0.41758   0.00000  Uiso   1.00
H52    H     0.15619   0.23824   0.03569   0.00000  Uiso   1.00
H53    H     0.13027   0.28028   0.49234   0.00000  Uiso   1.00
H54    H     0.15115   0.11002   0.40075   0.00000  Uiso   1.00
H55    H     0.01591   0.19354   0.20963   0.00000  Uiso   1.00
O56    O     0.16667   0.16667   0.25000   0.00000  Uiso   1.00
O57    O     0.15451   0.12637   0.15458   0.00000  Uiso   1.00
O58    O     0.12940   0.20391   0.34968   0.00000  Uiso   1.00
O59    O     0.20824   0.17759   0.14606   0.00000  Uiso   1.00
O60    O     0.17451   0.15880   0.34968   0.00000  Uiso   1.00
O61    O     0.23651   0.08880   0.07593   0.00000  Uiso   1.00
O62    O     0.10994   0.32586   0.28656   0.00000  Uiso   1.00
O63    O     0.09506   0.18207   0.08674   0.00000  Uiso   1.00
O64    O     0.14114   0.21665   0.12603   0.00000  Uiso   1.00
O65    O     0.17930   0.08019   0.28213   0.00000  Uiso   1.00
O66    O     0.14632   0.26085   0.27013   0.00000  Uiso   1.00
O67    O     0.07412   0.13291   0.23413   0.00000  Uiso   1.00
O68    O     0.26693   0.19272   0.21360   0.00000  Uiso   1.00
O69    O     0.07071   0.18878   0.28213   0.00000  Uiso   1.00
O70    O     0.25491   0.15226   0.27013   0.00000  Uiso   1.00
O71    O     0.13760   0.06944   0.23413   0.00000  Uiso   1.00
O72    O     0.20345   0.25620   0.21360   0.00000  Uiso   1.00
Zn73   Zn    0.19338   0.13994   0.28734   0.00000  Uiso   1.00
Zn74   Zn    0.13379   0.12458   0.21875   0.00000  Uiso   1.00
Zn75   Zn    0.21056   0.19775   0.20657   0.00000  Uiso   1.00
Zn76   Zn    0.12893   0.20439   0.28733   0.00000  Uiso   1.00
C77    C     0.38604   0.15977   0.25996   0.00000  Uiso   1.00
C78    C     0.49873   0.16343   0.06244   0.00000  Uiso   1.00
C79    C     0.54677   0.11053   0.05681   0.00000  Uiso   1.00
C80    C     0.61407   0.17380   0.23995   0.00000  Uiso   1.00
C81    C     0.47473   0.19364   0.41954   0.00000  Uiso   1.00
C82    C     0.66005   0.17636   0.23573   0.00000  Uiso   1.00
C83    C     0.34072   0.15756   0.26391   0.00000  Uiso   1.00
C84    C     0.51384   0.32281   0.23914   0.00000  Uiso   1.00
C85    C     0.48327   0.01190   0.26448   0.00000  Uiso   1.00
C86    C     0.48962   0.05600   0.25981   0.00000  Uiso   1.00
C87    C     0.50968   0.27792   0.24043   0.00000  Uiso   1.00
C88    C     0.46871   0.24842   0.47998   0.00000  Uiso   1.00
C89    C     0.51857   0.14803   0.12955   0.00000  Uiso   1.00
C90    C     0.48096   0.18397   0.37101   0.00000  Uiso   1.00
C91    C     0.54139   0.09648   0.01453   0.00000  Uiso   1.00
C92    C     0.52324   0.14224   0.08175   0.00000  Uiso   1.00
C93    C     0.46468   0.23365   0.43755   0.00000  Uiso   1.00
C94    C     0.61074   0.11156   0.07489   0.00000  Uiso   1.00
C95    C     0.64367   0.09964   0.03144   0.00000  Uiso   1.00
C96    C     0.35550   0.12091   0.03148   0.00000  Uiso   1.00
C97    C     0.42776   0.01242   0.32969   0.00000  Uiso   1.00
C98    C     0.45269   0.00331   0.36228   0.00000  Uiso   1.00
C99    C     0.48212   0.22339   0.00537   0.00000  Uiso   1.00
C100   C     0.43055   0.01700   0.41045   0.00000  Uiso   1.00
C101   C     0.46481   0.18762   0.09215   0.00000  Uiso   1.00
C102   C     0.48803   0.18135   0.49052   0.00000  Uiso   1.00
C103   C     0.48439   0.16637   0.44678   0.00000  Uiso   1.00
C104   C     0.50146   0.15493   0.01615   0.00000  Uiso   1.00
C105   C     0.51846   0.11796   0.49437   0.00000  Uiso   1.00
C106   C     0.51151   0.10232   0.45304   0.00000  Uiso   1.00
C107   C     0.49200   0.12502   0.43099   0.00000  Uiso   1.00
H108   H     0.65221   0.14052   0.29049   0.00000  Uiso   1.00
H109   H     0.62134   0.10317   0.10340   0.00000  Uiso   1.00
H110   H     0.61018   0.14603   0.07960   0.00000  Uiso   1.00
H111   H     0.64405   0.06530   0.02733   0.00000  Uiso   1.00
H112   H     0.63435   0.10900   0.00258   0.00000  Uiso   1.00
H113   H     0.35605   0.15533   0.03488   0.00000  Uiso   1.00
H114   H     0.37849   0.11177   0.49958   0.00000  Uiso   1.00
H115   H     0.36609   0.11135   0.05944   0.00000  Uiso   1.00
H116   H     0.39355   0.33272   0.34189   0.00000  Uiso   1.00
H117   H     0.42766   0.04653   0.32939   0.00000  Uiso   1.00
H118   H     0.45500   0.30267   0.35943   0.00000  Uiso   1.00
H119   H     0.54297   0.00471   0.21800   0.00000  Uiso   1.00
H120   H     0.48581   0.02004   0.35367   0.00000  Uiso   1.00
H121   H     0.42650   0.05060   0.41396   0.00000  Uiso   1.00
H122   H     0.45037   0.01179   0.43286   0.00000  Uiso   1.00
H123   H     0.39845   0.33193   0.42084   0.00000  Uiso   1.00
H124   H     0.44867   0.23077   0.14392   0.00000  Uiso   1.00
H125   H     0.52079   0.07220   0.43788   0.00000  Uiso   1.00
H126   H     0.55578   0.06912   0.49722   0.00000  Uiso   1.00
H127   H     0.45678   0.25484   0.41758   0.00000  Uiso   1.00
H128   H     0.48953   0.23824   0.03569   0.00000  Uiso   1.00
H129   H     0.46360   0.28028   0.49234   0.00000  Uiso   1.00
H130   H     0.48448   0.11002   0.40075   0.00000  Uiso   1.00
H131   H     0.34924   0.19354   0.20963   0.00000  Uiso   1.00
O132   O     0.50000   0.16667   0.25000   0.00000  Uiso   1.00
O133   O     0.48784   0.12637   0.15458   0.00000  Uiso   1.00
O134   O     0.46274   0.20391   0.34968   0.00000  Uiso   1.00
O135   O     0.54157   0.17759   0.14606   0.00000  Uiso   1.00
O136   O     0.50785   0.15880   0.34968   0.00000  Uiso   1.00
O137   O     0.56984   0.08880   0.07593   0.00000  Uiso   1.00
O138   O     0.44328   0.32586   0.28656   0.00000  Uiso   1.00
O139   O     0.42839   0.18207   0.08674   0.00000  Uiso   1.00
O140   O     0.47448   0.21665   0.12603   0.00000  Uiso   1.00
O141   O     0.51264   0.08019   0.28213   0.00000  Uiso   1.00
O142   O     0.47965   0.26085   0.27013   0.00000  Uiso   1.00
O143   O     0.40745   0.13291   0.23413   0.00000  Uiso   1.00
O144   O     0.60026   0.19272   0.21360   0.00000  Uiso   1.00
O145   O     0.40405   0.18878   0.28213   0.00000  Uiso   1.00
O146   O     0.58824   0.15226   0.27013   0.00000  Uiso   1.00
O147   O     0.47093   0.06944   0.23413   0.00000  Uiso   1.00
O148   O     0.53678   0.25620   0.21360   0.00000  Uiso   1.00
Zn149  Zn    0.52672   0.13994   0.28734   0.00000  Uiso   1.00
Zn150  Zn    0.46713   0.12458   0.21875   0.00000  Uiso   1.00
Zn151  Zn    0.54389   0.19775   0.20657   0.00000  Uiso   1.00
Zn152  Zn    0.46226   0.20439   0.28733   0.00000  Uiso   1.00
C153   C     0.71937   0.15977   0.25996   0.00000  Uiso   1.00
C154   C     0.83206   0.16343   0.06244   0.00000  Uiso   1.00
C155   C     0.88010   0.11053   0.05681   0.00000  Uiso   1.00
C156   C     0.94740   0.17380   0.23995   0.00000  Uiso   1.00
C157   C     0.80806   0.19364   0.41954   0.00000  Uiso   1.00
C158   C     0.99338   0.17636   0.23573   0.00000  Uiso   1.00
C159   C     0.67405   0.15756   0.26391   0.00000  Uiso   1.00
C160   C     0.84717   0.32281   0.23914   0.00000  Uiso   1.00
C161   C     0.81660   0.01190   0.26448   0.00000  Uiso   1.00
C162   C     0.82295   0.05600   0.25981   0.00000  Uiso   1.00
C163   C     0.84301   0.27792   0.24043   0.00000  Uiso   1.00
C164   C     0.80204   0.24842   0.47998   0.00000  Uiso   1.00
C165   C     0.85191   0.14803   0.12955   0.00000  Uiso   1.00
C166   C     0.81429   0.18397   0.37101   0.00000  Uiso   1.00
C167   C     0.87473   0.09648   0.01453   0.00000  Uiso   1.00
C168   C     0.85657   0.14224   0.08175   0.00000  Uiso   1.00
C169   C     0.79802   0.23365   0.43755   0.00000  Uiso   1.00
C170   C     0.94408   0.11156   0.07489   0.00000  Uiso   1.00
C171   C     0.97700   0.09964   0.03144   0.00000  Uiso   1.00
C172   C     0.68884   0.12091   0.03148   0.00000  Uiso   1.00
C173   C     0.76110   0.01242   0.32969   0.00000  Uiso   1.00
C174   C     0.78602   0.00331   0.36228   0.00000  Uiso   1.00
C175   C     0.81545   0.22339   0.00537   0.00000  Uiso   1.00
C176   C     0.76388   0.01700   0.41045   0.00000  Uiso   1.00
C177   C     0.79815   0.18762   0.09215   0.00000  Uiso   1.00
C178   C     0.82137   0.18135   0.49052   0.00000  Uiso   1.00
C179   C     0.81772   0.16637   0.44678   0.00000  Uiso   1.00
C180   C     0.83480   0.15493   0.01615   0.00000  Uiso   1.00
C181   C     0.85179   0.11796   0.49437   0.00000  Uiso   1.00
C182   C     0.84484   0.10232   0.45304   0.00000  Uiso   1.00
C183   C     0.82533   0.12502   0.43099   0.00000  Uiso   1.00
H184   H     0.98555   0.14052   0.29049   0.00000  Uiso   1.00
H185   H     0.95468   0.10317   0.10340   0.00000  Uiso   1.00
H186   H     0.94352   0.14603   0.07960   0.00000  Uiso   1.00
H187   H     0.97738   0.06530   0.02733   0.00000  Uiso   1.00
H188   H     0.96768   0.10900   0.00258   0.00000  Uiso   1.00
H189   H     0.68938   0.15533   0.03488   0.00000  Uiso   1.00
H190   H     0.71183   0.11177   0.49958   0.00000  Uiso   1.00
H191   H     0.69943   0.11135   0.05944   0.00000  Uiso   1.00
H192   H     0.72688   0.33272   0.34189   0.00000  Uiso   1.00
H193   H     0.76100   0.04653   0.32939   0.00000  Uiso   1.00
H194   H     0.78834   0.30267   0.35943   0.00000  Uiso   1.00
H195   H     0.87630   0.00471   0.21800   0.00000  Uiso   1.00
H196   H     0.81915   0.02004   0.35367   0.00000  Uiso   1.00
H197   H     0.75984   0.05060   0.41396   0.00000  Uiso   1.00
H198   H     0.78370   0.01179   0.43286   0.00000  Uiso   1.00
H199   H     0.73178   0.33193   0.42084   0.00000  Uiso   1.00
H200   H     0.78200   0.23077   0.14392   0.00000  Uiso   1.00
H201   H     0.85412   0.07220   0.43788   0.00000  Uiso   1.00
H202   H     0.88911   0.06912   0.49722   0.00000  Uiso   1.00
H203   H     0.79011   0.25484   0.41758   0.00000  Uiso   1.00
H204   H     0.82286   0.23824   0.03569   0.00000  Uiso   1.00
H205   H     0.79693   0.28028   0.49234   0.00000  Uiso   1.00
H206   H     0.81781   0.11002   0.40075   0.00000  Uiso   1.00
H207   H     0.68257   0.19354   0.20963   0.00000  Uiso   1.00
O208   O     0.83333   0.16667   0.25000   0.00000  Uiso   1.00
O209   O     0.82118   0.12637   0.15458   0.00000  Uiso   1.00
O210   O     0.79607   0.20391   0.34968   0.00000  Uiso   1.00
O211   O     0.87491   0.17759   0.14606   0.00000  Uiso   1.00
O212   O     0.84118   0.15880   0.34968   0.00000  Uiso   1.00
O213   O     0.90317   0.08880   0.07593   0.00000  Uiso   1.00
O214   O     0.77661   0.32586   0.28656   0.00000  Uiso   1.00
O215   O     0.76173   0.18207   0.08674   0.00000  Uiso   1.00
O216   O     0.80781   0.21665   0.12603   0.00000  Uiso   1.00
O217   O     0.84597   0.08019   0.28213   0.00000  Uiso   1.00
O218   O     0.81298   0.26085   0.27013   0.00000  Uiso   1.00
O219   O     0.74078   0.13291   0.23413   0.00000  Uiso   1.00
O220   O     0.93360   0.19272   0.21360   0.00000  Uiso   1.00
O221   O     0.73738   0.18878   0.28213   0.00000  Uiso   1.00
O222   O     0.92158   0.15226   0.27013   0.00000  Uiso   1.00
O223   O     0.80426   0.06944   0.23413   0.00000  Uiso   1.00
O224   O     0.87012   0.25620   0.21360   0.00000  Uiso   1.00
Zn225  Zn    0.86005   0.13994   0.28734   0.00000  Uiso   1.00
Zn226  Zn    0.80046   0.12458   0.21875   0.00000  Uiso   1.00
Zn227  Zn    0.87723   0.19775   0.20657   0.00000  Uiso   1.00
Zn228  Zn    0.79560   0.20439   0.28733   0.00000  Uiso   1.00
C229   C     0.05271   0.49310   0.25996   0.00000  Uiso   1.00
C230   C     0.16539   0.49676   0.06244   0.00000  Uiso   1.00
C231   C     0.21344   0.44386   0.05681   0.00000  Uiso   1.00
C232   C     0.28074   0.50713   0.23995   0.00000  Uiso   1.00
C233   C     0.14139   0.52697   0.41954   0.00000  Uiso   1.00
C234   C     0.32671   0.50970   0.23573   0.00000  Uiso   1.00
C235   C     0.00739   0.49089   0.26391   0.00000  Uiso   1.00
C236   C     0.18050   0.65614   0.23914   0.00000  Uiso   1.00
C237   C     0.14993   0.34523   0.26448   0.00000  Uiso   1.00
C238   C     0.15628   0.38933   0.25981   0.00000  Uiso   1.00
C239   C     0.17634   0.61125   0.24043   0.00000  Uiso   1.00
C240   C     0.13538   0.58175   0.47998   0.00000  Uiso   1.00
C241   C     0.18524   0.48137   0.12955   0.00000  Uiso   1.00
C242   C     0.14762   0.51730   0.37101   0.00000  Uiso   1.00
C243   C     0.20806   0.42981   0.01453   0.00000  Uiso   1.00
C244   C     0.18990   0.47558   0.08175   0.00000  Uiso   1.00
C245   C     0.13135   0.56698   0.43755   0.00000  Uiso   1.00
C246   C     0.27741   0.44489   0.07489   0.00000  Uiso   1.00
C247   C     0.31033   0.43297   0.03144   0.00000  Uiso   1.00
C248   C     0.02217   0.45425   0.03148   0.00000  Uiso   1.00
C249   C     0.09443   0.34575   0.32969   0.00000  Uiso   1.00
C250   C     0.11935   0.33664   0.36228   0.00000  Uiso   1.00
C251   C     0.14879   0.55672   0.00537   0.00000  Uiso   1.00
C252   C     0.09721   0.35034   0.41045   0.00000  Uiso   1.00
C253   C     0.13148   0.52095   0.09215   0.00000  Uiso   1.00
C254   C     0.15470   0.51469   0.49052   0.00000  Uiso   1.00
C255   C     0.15106   0.49971   0.44678   0.00000  Uiso   1.00
C256   C     0.16813   0.48827   0.01615   0.00000  Uiso   1.00
C257   C     0.18513   0.45129   0.49437   0.00000  Uiso   1.00
C258   C     0.17818   0.43565   0.45304   0.00000  Uiso   1.00
C259   C     0.15867   0.45835   0.43099   0.00000  Uiso   1.00
H260   H     0.31888   0.47386   0.29049   0.00000  Uiso   1.00
H261   H     0.28801   0.43651   0.10340   0.00000  Uiso   1.00
H262   H     0.27685   0.47936   0.07960   0.00000  Uiso   1.00
H263   H     0.31071   0.39864   0.02733   0.00000  Uiso   1.00
H264   H     0.30102   0.44233   0.00258   0.00000  Uiso   1.00
H265   H     0.02271   0.48866   0.03488   0.00000  Uiso   1.00
H266   H     0.04516   0.44511   0.49958   0.00000  Uiso   1.00
H267   H     0.03276   0.44469   0.05944   0.00000  Uiso   1.00
H268   H     0.06021   0.66605   0.34189   0.00000  Uiso   1.00
H269   H     0.09433   0.37987   0.32939   0.00000  Uiso   1.00
H270   H     0.12167   0.63600   0.35943   0.00000  Uiso   1.00
H271   H     0.20964   0.33804   0.21800   0.00000  Uiso   1.00
H272   H     0.15248   0.35337   0.35367   0.00000  Uiso   1.00
H273   H     0.09317   0.38394   0.41396   0.00000  Uiso   1.00
H274   H     0.11703   0.34512   0.43286   0.00000  Uiso   1.00
H275   H     0.06511   0.66526   0.42084   0.00000  Uiso   1.00
H276   H     0.11533   0.56410   0.14392   0.00000  Uiso   1.00
H277   H     0.18746   0.40553   0.43788   0.00000  Uiso   1.00
H278   H     0.22244   0.40245   0.49722   0.00000  Uiso   1.00
H279   H     0.12345   0.58817   0.41758   0.00000  Uiso   1.00
H280   H     0.15619   0.57157   0.03569   0.00000  Uiso   1.00
H281   H     0.13027   0.61361   0.49234   0.00000  Uiso   1.00
H282   H     0.15115   0.44336   0.40075   0.00000  Uiso   1.00
H283   H     0.01591   0.52687   0.20963   0.00000  Uiso   1.00
O284   O     0.16667   0.50000   0.25000   0.00000  Uiso   1.00
O285   O     0.15451   0.45970   0.15458   0.00000  Uiso   1.00
O286   O     0.12940   0.53724   0.34968   0.00000  Uiso   1.00
O287   O     0.20824   0.51092   0.14606   0.00000  Uiso   1.00
O288   O     0.17451   0.49213   0.34968   0.00000  Uiso   1.00
O289   O     0.23651   0.42214   0.07593   0.00000  Uiso   1.00
O290   O     0.10994   0.65919   0.28656   0.00000  Uiso   1.00
O291   O     0.09506   0.51540   0.08674   0.00000  Uiso   1.00
O292   O     0.14114   0.54999   0.12603   0.00000  Uiso   1.00
O293   O     0.17930   0.41352   0.28213   0.00000  Uiso   1.00
O294   O     0.14632   0.59418   0.27013   0.00000  Uiso   1.00
O295   O     0.07412   0.46625   0.23413   0.00000  Uiso   1.00
O296   O     0.26693   0.52605   0.21360   0.00000  Uiso   1.00
O297   O     0.07071   0.52211   0.28213   0.00000  Uiso   1.00
O298   O     0.25491   0.48559   0.27013   0.00000  Uiso   1.00
O299   O     0.13760   0.40277   0.23413   0.00000  Uiso   1.00
O300   O     0.20345   0.58953   0.21360   0.00000  Uiso   1.00
Zn301  Zn    0.19338   0.47327   0.28734   0.00000  Uiso   1.00
Zn302  Zn    0.13379   0.45791   0.21875   0.00000  Uiso   1.00
Zn303  Zn    0.21056   0.53109   0.20657   0.00000  Uiso   1.00
Zn304  Zn    0.12893   0.53773   0.28733   0.00000  Uiso   1.00
C305   C     0.38604   0.49310   0.25996   0.00000  Uiso   1.00
C306   C     0.49873   0.49676   0.06244   0.00000  Uiso   1.00
C307   C     0.54677   0.44386   0.05681   0.00000  Uiso   1.00
C308   C     0.61407   0.50713   0.23995   0.00000  Uiso   1.00
C309   C     0.47473   0.52697   0.41954   0.00000  Uiso   1.00
C310   C     0.66005   0.50970   0.23573   0.00000  Uiso   1.00
C311   C     0.34072   0.49089   0.26391   0.00000  Uiso   1.00
C312   C     0.51384   0.65614   0.23914   0.00000  Uiso   1.00
C313   C     0.48327   0.34523   0.26448   0.00000  Uiso   1.00
C314   C     0.48962   0.38933   0.25981   0.00000  Uiso   1.00
C315   C     0.50968   0.61125   0.24043   0.00000  Uiso   1.00
C316   C     0.46871   0.58175   0.47998   0.00000  Uiso   1.00
C317   C     0.51857   0.48137   0.12955   0.00000  Uiso   1.00
C318   C     0.48096   0.51730   0.37101   0.00000  Uiso   1.00
C319   C     0.54139   0.42981   0.01453   0.00000  Uiso   1.00
C320   C     0.52324   0.47558   0.08175   0.00000  Uiso   1.00
C321   C     0.46468   0.56698   0.43755   0.00000  Uiso   1.00
C322   C     0.61074   0.44489   0.07489   0.00000  Uiso   1.00
C323   C     0.64367   0.43297   0.03144   0.00000  Uiso   1.00
C324   C     0.35550   0.45425   0.03148   0.00000  Uiso   1.00
C325   C     0.42776   0.34575   0.32969   0.00000  Uiso   1.00
C326   C     0.45269   0.33664   0.36228   0.00000  Uiso   1.00
C327   C     0.48212   0.55672   0.00537   0.00000  Uiso   1.00
C328   C     0.43055   0.35034   0.41045   0.00000  Uiso   1.00
C329   C     0.46481   0.52095   0.09215   0.00000  Uiso   1.00
C330   C     0.48803   0.51469   0.49052   0.00000  Uiso   1.00
C331   C     0.48439   0.49971   0.44678   0.00000  Uiso   1.00
C332   C     0.50146   0.48827   0.01615   0.00000  Uiso   1.00
C333   C     0.51846   0.45129   0.49437   0.00000  Uiso   1.00
C334   C     0.51151   0.43565   0.45304   0.00000  Uiso   1.00
C335   C     0.49200   0.45835   0.43099   0.00000  Uiso   1.00
H336   H     0.65221   0.47386   0.29049   0.00000  Uiso   1.00
H337   H     0.62134   0.43651   0.10340   0.00000  Uiso   1.00
H338   H     0.61018   0.47936   0.07960   0.00000  Uiso   1.00
H339   H     0.64405   0.39864   0.02733   0.00000  Uiso   1.00
H340   H     0.63435   0.44233   0.00258   0.00000  Uiso   1.00
H341   H     0.35605   0.48866   0.03488   0.00000  Uiso   1.00
H342   H     0.37849   0.44511   0.49958   0.00000  Uiso   1.00
H343   H     0.36609   0.44469   0.05944   0.00000  Uiso   1.00
H344   H     0.39355   0.66605   0.34189   0.00000  Uiso   1.00
H345   H     0.42766   0.37987   0.32939   0.00000  Uiso   1.00
H346   H     0.45500   0.63600   0.35943   0.00000  Uiso   1.00
H347   H     0.54297   0.33804   0.21800   0.00000  Uiso   1.00
H348   H     0.48581   0.35337   0.35367   0.00000  Uiso   1.00
H349   H     0.42650   0.38394   0.41396   0.00000  Uiso   1.00
H350   H     0.45037   0.34512   0.43286   0.00000  Uiso   1.00
H351   H     0.39845   0.66526   0.42084   0.00000  Uiso   1.00
H352   H     0.44867   0.56410   0.14392   0.00000  Uiso   1.00
H353   H     0.52079   0.40553   0.43788   0.00000  Uiso   1.00
H354   H     0.55578   0.40245   0.49722   0.00000  Uiso   1.00
H355   H     0.45678   0.58817   0.41758   0.00000  Uiso   1.00
H356   H     0.48953   0.57157   0.03569   0.00000  Uiso   1.00
H357   H     0.46360   0.61361   0.49234   0.00000  Uiso   1.00
H358   H     0.48448   0.44336   0.40075   0.00000  Uiso   1.00
H359   H     0.34924   0.52687   0.20963   0.00000  Uiso   1.00
O360   O     0.50000   0.50000   0.25000   0.00000  Uiso   1.00
O361   O     0.48784   0.45970   0.15458   0.00000  Uiso   1.00
O362   O     0.46274   0.53724   0.34968   0.00000  Uiso   1.00
O363   O     0.54157   0.51092   0.14606   0.00000  Uiso   1.00
O364   O     0.50785   0.49213   0.34968   0.00000  Uiso   1.00
O365   O     0.56984   0.42214   0.07593   0.00000  Uiso   1.00
O366   O     0.44328   0.65919   0.28656   0.00000  Uiso   1.00
O367   O     0.42839   0.51540   0.08674   0.00000  Uiso   1.00
O368   O     0.47448   0.54999   0.12603   0.00000  Uiso   1.00
O369   O     0.51264   0.41352   0.28213   0.00000  Uiso   1.00
O370   O     0.47965   0.59418   0.27013   0.00000  Uiso   1.00
O371   O     0.40745   0.46625   0.23413   0.00000  Uiso   1.00
O372   O     0.60026   0.52605   0.21360   0.00000  Uiso   1.00
O373   O     0.40405   0.52211   0.28213   0.00000  Uiso   1.00
O374   O     0.58824   0.48559   0.27013   0.00000  Uiso   1.00
O375   O     0.47093   0.40277   0.23413   0.00000  Uiso   1.00
O376   O     0.53678   0.58953   0.21360   0.00000  Uiso   1.00
Zn377  Zn    0.52672   0.47327   0.28734   0.00000  Uiso   1.00
Zn378  Zn    0.46713   0.45791   0.21875   0.00000  Uiso   1.00
Zn379  Zn    0.54389   0.53109   0.20657   0.00000  Uiso   1.00
Zn380  Zn    0.46226   0.53773   0.28733   0.00000  Uiso   1.00
C381   C     0.71937   0.49310   0.25996   0.00000  Uiso   1.00
C382   C     0.83206   0.49676   0.06244   0.00000  Uiso   1.00
C383   C     0.88010   0.44386   0.05681   0.00000  Uiso   1.00
C384   C     0.94740   0.50713   0.23995   0.00000  Uiso   1.00
C385   C     0.80806   0.52697   0.41954   0.00000  Uiso   1.00
C386   C     0.99338   0.50970   0.23573   0.00000  Uiso   1.00
C387   C     0.67405   0.49089   0.26391   0.00000  Uiso   1.00
C388   C     0.84717   0.65614   0.23914   0.00000  Uiso   1.00
C389   C     0.81660   0.34523   0.26448   0.00000  Uiso   1.00
C390   C     0.82295   0.38933   0.25981   0.00000  Uiso   1.00
C391   C     0.84301   0.61125   0.24043   0.00000  Uiso   1.00
C392   C     0.80204   0.58175   0.47998   0.00000  Uiso   1.00
C393   C     0.85191   0.48137   0.12955   0.00000  Uiso   1.00
C394   C     0.81429   0.51730   0.37101   0.00000  Uiso   1.00
C395   C     0.87473   0.42981   0.01453   0.00000  Uiso   1.00
C396   C     0.85657   0.47558   0.08175   0.00000  Uiso   1.00
C397   C     0.79802   0.56698   0.43755   0.00000  Uiso   1.00
C398   C     0.94408   0.44489   0.07489   0.00000  Uiso   1.00
C399   C     0.97700   0.43297   0.03144   0.00000  Uiso   1.00
C400   C     0.68884   0.45425   0.03148   0.00000  Uiso   1.00
C401   C     0.76110   0.34575   0.32969   0.00000  Uiso   1.00
C402   C     0.78602   0.33664   0.36228   0.00000  Uiso   1.00
C403   C     0.81545   0.55672   0.00537   0.00000  Uiso   1.00
C404   C     0.76388   0.35034   0.41045   0.00000  Uiso   1.00
C405   C     0.79815   0.52095   0.09215   0.00000  Uiso   1.00
C406   C     0.82137   0.51469   0.49052   0.00000  Uiso   1.00
C407   C     0.81772   0.49971   0.44678   0.00000  Uiso   1.00
C408   C     0.83480   0.48827   0.01615   0.00000  Uiso   1.00
C409   C     0.85179   0.45129   0.49437   0.00000  Uiso   1.00
C410   C     0.84484   0.43565   0.45304   0.00000  Uiso   1.00
C411   C     0.82533   0.45835   0.43099   0.00000  Uiso   1.00
H412   H     0.98555   0.47386   0.29049   0.00000  Uiso   1.00
H413   H     0.95468   0.43651   0.10340   0.00000  Uiso   1.00
H414   H     0.94352   0.47936   0.07960   0.00000  Uiso   1.00
H415   H     0.97738   0.39864   0.02733   0.00000  Uiso   1.00
H416   H     0.96768   0.44233   0.00258   0.00000  Uiso   1.00
H417   H     0.68938   0.48866   0.03488   0.00000  Uiso   1.00
H418   H     0.71183   0.44511   0.49958   0.00000  Uiso   1.00
H419   H     0.69943   0.44469   0.05944   0.00000  Uiso   1.00
H420   H     0.72688   0.66605   0.34189   0.00000  Uiso   1.00
H421   H     0.76100   0.37987   0.32939   0.00000  Uiso   1.00
H422   H     0.78834   0.63600   0.35943   0.00000  Uiso   1.00
H423   H     0.87630   0.33804   0.21800   0.00000  Uiso   1.00
H424   H     0.81915   0.35337   0.35367   0.00000  Uiso   1.00
H425   H     0.75984   0.38394   0.41396   0.00000  Uiso   1.00
H426   H     0.78370   0.34512   0.43286   0.00000  Uiso   1.00
H427   H     0.73178   0.66526   0.42084   0.00000  Uiso   1.00
H428   H     0.78200   0.56410   0.14392   0.00000  Uiso   1.00
H429   H     0.85412   0.40553   0.43788   0.00000  Uiso   1.00
H430   H     0.88911   0.40245   0.49722   0.00000  Uiso   1.00
H431   H     0.79011   0.58817   0.41758   0.00000  Uiso   1.00
H432   H     0.82286   0.57157   0.03569   0.00000  Uiso   1.00
H433   H     0.79693   0.61361   0.49234   0.00000  Uiso   1.00
H434   H     0.81781   0.44336   0.40075   0.00000  Uiso   1.00
H435   H     0.68257   0.52687   0.20963   0.00000  Uiso   1.00
O436   O     0.83333   0.50000   0.25000   0.00000  Uiso   1.00
O437   O     0.82118   0.45970   0.15458   0.00000  Uiso   1.00
O438   O     0.79607   0.53724   0.34968   0.00000  Uiso   1.00
O439   O     0.87491   0.51092   0.14606   0.00000  Uiso   1.00
O440   O     0.84118   0.49213   0.34968   0.00000  Uiso   1.00
O441   O     0.90317   0.42214   0.07593   0.00000  Uiso   1.00
O442   O     0.77661   0.65919   0.28656   0.00000  Uiso   1.00
O443   O     0.76173   0.51540   0.08674   0.00000  Uiso   1.00
O444   O     0.80781   0.54999   0.12603   0.00000  Uiso   1.00
O445   O     0.84597   0.41352   0.28213   0.00000  Uiso   1.00
O446   O     0.81298   0.59418   0.27013   0.00000  Uiso   1.00
O447   O     0.74078   0.46625   0.23413   0.00000  Uiso   1.00
O448   O     0.93360   0.52605   0.21360   0.00000  Uiso   1.00
O449   O     0.73738   0.52211   0.28213   0.00000  Uiso   1.00
O450   O     0.92158   0.48559   0.27013   0.00000  Uiso   1.00
O451   O     0.80426   0.40277   0.23413   0.00000  Uiso   1.00
O452   O     0.87012   0.58953   0.21360   0.00000  Uiso   1.00
Zn453  Zn    0.86005   0.47327   0.28734   0.00000  Uiso   1.00
Zn454  Zn    0.80046   0.45791   0.21875   0.00000  Uiso   1.00
Zn455  Zn    0.87723   0.53109   0.20657   0.00000  Uiso   1.00
Zn456  Zn    0.79560   0.53773   0.28733   0.00000  Uiso   1.00
C457   C     0.05271   0.82644   0.25996   0.00000  Uiso   1.00
C458   C     0.16539   0.83009   0.06244   0.00000  Uiso   1.00
C459   C     0.21344   0.77719   0.05681   0.00000  Uiso   1.00
C460   C     0.28074   0.84046   0.23995   0.00000  Uiso   1.00
C461   C     0.14139   0.86030   0.41954   0.00000  Uiso   1.00
C462   C     0.32671   0.84303   0.23573   0.00000  Uiso   1.00
C463   C     0.00739   0.82422   0.26391   0.00000  Uiso   1.00
C464   C     0.18050   0.98948   0.23914   0.00000  Uiso   1.00
C465   C     0.14993   0.67857   0.26448   0.00000  Uiso   1.00
C466   C     0.15628   0.72266   0.25981   0.00000  Uiso   1.00
C467   C     0.17634   0.94459   0.24043   0.00000  Uiso   1.00
C468   C     0.13538   0.91508   0.47998   0.00000  Uiso   1.00
C469   C     0.18524   0.81470   0.12955   0.00000  Uiso   1.00
C470   C     0.14762   0.85063   0.37101   0.00000  Uiso   1.00
C471   C     0.20806   0.76315   0.01453   0.00000  Uiso   1.00
C472   C     0.18990   0.80891   0.08175   0.00000  Uiso   1.00
C473   C     0.13135   0.90031   0.43755   0.00000  Uiso   1.00
C474   C     0.27741   0.77822   0.07489   0.00000  Uiso   1.00
C475   C     0.31033   0.76630   0.03144   0.00000  Uiso   1.00
C476   C     0.02217   0.78758   0.03148   0.00000  Uiso   1.00
C477   C     0.09443   0.67908   0.32969   0.00000  Uiso   1.00
C478   C     0.11935   0.66997   0.36228   0.00000  Uiso   1.00
C479   C     0.14879   0.89005   0.00537   0.00000  Uiso   1.00
C480   C     0.09721   0.68367   0.41045   0.00000  Uiso   1.00
C481   C     0.13148   0.85429   0.09215   0.00000  Uiso   1.00
C482   C     0.15470   0.84802   0.49052   0.00000  Uiso   1.00
C483   C     0.15106   0.83304   0.44678   0.00000  Uiso   1.00
C484   C     0.16813   0.82160   0.01615   0.00000  Uiso   1.00
C485   C     0.18513   0.78463   0.49437   0.00000  Uiso   1.00
C486   C     0.17818   0.76898   0.45304   0.00000  Uiso   1.00
C487   C     0.15867   0.79168   0.43099   0.00000  Uiso   1.00
H488   H     0.31888   0.80719   0.29049   0.00000  Uiso   1.00
H489   H     0.28801   0.76984   0.10340   0.00000  Uiso   1.00
H490   H     0.27685   0.81270   0.07960   0.00000  Uiso   1.00
H491   H     0.31071   0.73197   0.02733   0.00000  Uiso   1.00
H492   H     0.30102   0.77567   0.00258   0.00000  Uiso   1.00
H493   H     0.02271   0.82199   0.03488   0.00000  Uiso   1.00
H494   H     0.04516   0.77844   0.49958   0.00000  Uiso   1.00
H495   H     0.03276   0.77802   0.05944   0.00000  Uiso   1.00
H496   H     0.06021   0.99938   0.34189   0.00000  Uiso   1.00
H497   H     0.09433   0.71320   0.32939   0.00000  Uiso   1.00
H498   H     0.12167   0.96933   0.35943   0.00000  Uiso   1.00
H499   H     0.20964   0.67138   0.21800   0.00000  Uiso   1.00
H500   H     0.15248   0.68671   0.35367   0.00000  Uiso   1.00
H501   H     0.09317   0.71727   0.41396   0.00000  Uiso   1.00
H502   H     0.11703   0.67845   0.43286   0.00000  Uiso   1.00
H503   H     0.06511   0.99860   0.42084   0.00000  Uiso   1.00
H504   H     0.11533   0.89744   0.14392   0.00000  Uiso   1.00
H505   H     0.18746   0.73886   0.43788   0.00000  Uiso   1.00
H506   H     0.22244   0.73579   0.49722   0.00000  Uiso   1.00
H507   H     0.12345   0.92151   0.41758   0.00000  Uiso   1.00
H508   H     0.15619   0.90490   0.03569   0.00000  Uiso   1.00
H509   H     0.13027   0.94694   0.49234   0.00000  Uiso   1.00
H510   H     0.15115   0.77669   0.40075   0.00000  Uiso   1.00
H511   H     0.01591   0.86021   0.20963   0.00000  Uiso   1.00
O512   O     0.16667   0.83333   0.25000   0.00000  Uiso   1.00
O513   O     0.15451   0.79304   0.15458   0.00000  Uiso   1.00
O514   O     0.12940   0.87058   0.34968   0.00000  Uiso   1.00
O515   O     0.20824   0.84425   0.14606   0.00000  Uiso   1.00
O516   O     0.17451   0.82546   0.34968   0.00000  Uiso   1.00
O517   O     0.23651   0.75547   0.07593   0.00000  Uiso   1.00
O518   O     0.10994   0.99252   0.28656   0.00000  Uiso   1.00
O519   O     0.09506   0.84873   0.08674   0.00000  Uiso   1.00
O520   O     0.14114   0.88332   0.12603   0.00000  Uiso   1.00
O521   O     0.17930   0.74686   0.28213   0.00000  Uiso   1.00
O522   O     0.14632   0.92751   0.27013   0.00000  Uiso   1.00
O523   O     0.07412   0.79958   0.23413   0.00000  Uiso   1.00
O524   O     0.26693   0.85939   0.21360   0.00000  Uiso   1.00
O525   O     0.07071   0.85544   0.28213   0.00000  Uiso   1.00
O526   O     0.25491   0.81892   0.27013   0.00000  Uiso   1.00
O527   O     0.13760   0.73610   0.23413   0.00000  Uiso   1.00
O528   O     0.20345   0.92286   0.21360   0.00000  Uiso   1.00
Zn529  Zn    0.19338   0.80661   0.28734   0.00000  Uiso   1.00
Zn530  Zn    0.13379   0.79124   0.21875   0.00000  Uiso   1.00
Zn531  Zn    0.21056   0.86442   0.20657   0.00000  Uiso   1.00
Zn532  Zn    0.12893   0.87106   0.28733   0.00000  Uiso   1.00
C533   C     0.38604   0.82644   0.25996   0.00000  Uiso   1.00
C534   C     0.49873   0.83009   0.06244   0.00000  Uiso   1.00
C535   C     0.54677   0.77719   0.05681   0.00000  Uiso   1.00
C536   C     0.61407   0.84046   0.23995   0.00000  Uiso   1.00
C537   C     0.47473   0.86030   0.41954   0.00000  Uiso   1.00
C538   C     0.66005   0.84303   0.23573   0.00000  Uiso   1.00
C539   C     0.34072   0.82422   0.26391   0.00000  Uiso   1.00
C540   C     0.51384   0.98948   0.23914   0.00000  Uiso   1.00
C541   C     0.48327   0.67857   0.26448   0.00000  Uiso   1.00
C542   C     0.48962   0.72266   0.25981   0.00000  Uiso   1.00
C543   C     0.50968   0.94459   0.24043   0.00000  Uiso   1.00
C544   C     0.46871   0.91508   0.47998   0.00000  Uiso   1.00
C545   C     0.51857   0.81470   0.12955   0.00000  Uiso   1.00
C546   C     0.48096   0.85063   0.37101   0.00000  Uiso   1.00
C547   C     0.54139   0.76315   0.01453   0.00000  Uiso   1.00
C548   C     0.52324   0.80891   0.08175   0.00000  Uiso   1.00
C549   C     0.46468   0.90031   0.43755   0.00000  Uiso   1.00
C550   C     0.61074   0.77822   0.07489   0.00000  Uiso   1.00
C551   C     0.64367   0.76630   0.03144   0.00000  Uiso   1.00
C552   C     0.35550   0.78758   0.03148   0.00000  Uiso   1.00
C553   C     0.42776   0.67908   0.32969   0.00000  Uiso   1.00
C554   C     0.45269   0.66997   0.36228   0.00000  Uiso   1.00
C555   C     0.48212   0.89005   0.00537   0.00000  Uiso   1.00
C556   C     0.43055   0.68367   0.41045   0.00000  Uiso   1.00
C557   C     0.46481   0.85429   0.09215   0.00000  Uiso   1.00
C558   C     0.48803   0.84802   0.49052   0.00000  Uiso   1.00
C559   C     0.48439   0.83304   0.44678   0.00000  Uiso   1.00
C560   C     0.50146   0.82160   0.01615   0.00000  Uiso   1.00
C561   C     0.51846   0.78463   0.49437   0.00000  Uiso   1.00
C562   C     0.51151   0.76898   0.45304   0.00000  Uiso   1.00
C563   C     0.49200   0.79168   0.43099   0.00000  Uiso   1.00
H564   H     0.65221   0.80719   0.29049   0.00000  Uiso   1.00
H565   H     0.62134   0.76984   0.10340   0.00000  Uiso   1.00
H566   H     0.61018   0.81270   0.07960   0.00000  Uiso   1.00
H567   H     0.64405   0.73197   0.02733   0.00000  Uiso   1.00
H568   H     0.63435   0.77567   0.00258   0.00000  Uiso   1.00
H569   H     0.35605   0.82199   0.03488   0.00000  Uiso   1.00
H570   H     0.37849   0.77844   0.49958   0.00000  Uiso   1.00
H571   H     0.36609   0.77802   0.05944   0.00000  Uiso   1.00
H572   H     0.39355   0.99938   0.34189   0.00000  Uiso   1.00
H573   H     0.42766   0.71320   0.32939   0.00000  Uiso   1.00
H574   H     0.45500   0.96933   0.35943   0.00000  Uiso   1.00
H575   H     0.54297   0.67138   0.21800   0.00000  Uiso   1.00
H576   H     0.48581   0.68671   0.35367   0.00000  Uiso   1.00
H577   H     0.42650   0.71727   0.41396   0.00000  Uiso   1.00
H578   H     0.45037   0.67845   0.43286   0.00000  Uiso   1.00
H579   H     0.39845   0.99860   0.42084   0.00000  Uiso   1.00
H580   H     0.44867   0.89744   0.14392   0.00000  Uiso   1.00
H581   H     0.52079   0.73886   0.43788   0.00000  Uiso   1.00
H582   H     0.55578   0.73579   0.49722   0.00000  Uiso   1.00
H583   H     0.45678   0.92151   0.41758   0.00000  Uiso   1.00
H584   H     0.48953   0.90490   0.03569   0.00000  Uiso   1.00
H585   H     0.46360   0.94694   0.49234   0.00000  Uiso   1.00
H586   H     0.48448   0.77669   0.40075   0.00000  Uiso   1.00
H587   H     0.34924   0.86021   0.20963   0.00000  Uiso   1.00
O588   O     0.50000   0.83333   0.25000   0.00000  Uiso   1.00
O589   O     0.48784   0.79304   0.15458   0.00000  Uiso   1.00
O590   O     0.46274   0.87058   0.34968   0.00000  Uiso   1.00
O591   O     0.54157   0.84425   0.14606   0.00000  Uiso   1.00
O592   O     0.50785   0.82546   0.34968   0.00000  Uiso   1.00
O593   O     0.56984   0.75547   0.07593   0.00000  Uiso   1.00
O594   O     0.44328   0.99252   0.28656   0.00000  Uiso   1.00
O595   O     0.42839   0.84873   0.08674   0.00000  Uiso   1.00
O596   O     0.47448   0.88332   0.12603   0.00000  Uiso   1.00
O597   O     0.51264   0.74686   0.28213   0.00000  Uiso   1.00
O598   O     0.47965   0.92751   0.27013   0.00000  Uiso   1.00
O599   O     0.40745   0.79958   0.23413   0.00000  Uiso   1.00
O600   O     0.60026   0.85939   0.21360   0.00000  Uiso   1.00
O601   O     0.40405   0.85544   0.28213   0.00000  Uiso   1.00
O602   O     0.58824   0.81892   0.27013   0.00000  Uiso   1.00
O603   O     0.47093   0.73610   0.23413   0.00000  Uiso   1.00
O604   O     0.53678   0.92286   0.21360   0.00000  Uiso   1.00
Zn605  Zn    0.52672   0.80661   0.28734   0.00000  Uiso   1.00
Zn606  Zn    0.46713   0.79124   0.21875   0.00000  Uiso   1.00
Zn607  Zn    0.54389   0.86442   0.20657   0.00000  Uiso   1.00
Zn608  Zn    0.46226   0.87106   0.28733   0.00000  Uiso   1.00
C609   C     0.71937   0.82644   0.25996   0.00000  Uiso   1.00
C610   C     0.83206   0.83009   0.06244   0.00000  Uiso   1.00
C611   C     0.88010   0.77719   0.05681   0.00000  Uiso   1.00
C612   C     0.94740   0.84046   0.23995   0.00000  Uiso   1.00
C613   C     0.80806   0.86030   0.41954   0.00000  Uiso   1.00
C614   C     0.99338   0.84303   0.23573   0.00000  Uiso   1.00
C615   C     0.67405   0.82422   0.26391   0.00000  Uiso   1.00
C616   C     0.84717   0.98948   0.23914   0.00000  Uiso   1.00
C617   C     0.81660   0.67857   0.26448   0.00000  Uiso   1.00
C618   C     0.82295   0.72266   0.25981   0.00000  Uiso   1.00
C619   C     0.84301   0.94459   0.24043   0.00000  Uiso   1.00
C620   C     0.80204   0.91508   0.47998   0.00000  Uiso   1.00
C621   C     0.85191   0.81470   0.12955   0.00000  Uiso   1.00
C622   C     0.81429   0.85063   0.37101   0.00000  Uiso   1.00
C623   C     0.87473   0.76315   0.01453   0.00000  Uiso   1.00
C624   C     0.85657   0.80891   0.08175   0.00000  Uiso   1.00
C625   C     0.79802   0.90031   0.43755   0.00000  Uiso   1.00
C626   C     0.94408   0.77822   0.07489   0.00000  Uiso   1.00
C627   C     0.97700   0.76630   0.03144   0.00000  Uiso   1.00
C628   C     0.68884   0.78758   0.03148   0.00000  Uiso   1.00
C629   C     0.76110   0.67908   0.32969   0.00000  Uiso   1.00
C630   C     0.78602   0.66997   0.36228   0.00000  Uiso   1.00
C631   C     0.81545   0.89005   0.00537   0.00000  Uiso   1.00
C632   C     0.76388   0.68367   0.41045   0.00000  Uiso   1.00
C633   C     0.79815   0.85429   0.09215   0.00000  Uiso   1.00
C634   C     0.82137   0.84802   0.49052   0.00000  Uiso   1.00
C635   C     0.81772   0.83304   0.44678   0.00000  Uiso   1.00
C636   C     0.83480   0.82160   0.01615   0.00000  Uiso   1.00
C637   C     0.85179   0.78463   0.49437   0.00000  Uiso   1.00
C638   C     0.84484   0.76898   0.45304   0.00000  Uiso   1.00
C639   C     0.82533   0.79168   0.43099   0.00000  Uiso   1.00
H640   H     0.98555   0.80719   0.29049   0.00000  Uiso   1.00
H641   H     0.95468   0.76984   0.10340   0.00000  Uiso   1.00
H642   H     0.94352   0.81270   0.07960   0.00000  Uiso   1.00
H643   H     0.97738   0.73197   0.02733   0.00000  Uiso   1.00
H644   H     0.96768   0.77567   0.00258   0.00000  Uiso   1.00
H645   H     0.68938   0.82199   0.03488   0.00000  Uiso   1.00
H646   H     0.71183   0.77844   0.49958   0.00000  Uiso   1.00
H647   H     0.69943   0.77802   0.05944   0.00000  Uiso   1.00
H648   H     0.72688   0.99938   0.34189   0.00000  Uiso   1.00
H649   H     0.76100   0.71320   0.32939   0.00000  Uiso   1.00
H650   H     0.78834   0.96933   0.35943   0.00000  Uiso   1.00
H651   H     0.87630   0.67138   0.21800   0.00000  Uiso   1.00
H652   H     0.81915   0.68671   0.35367   0.00000  Uiso   1.00
H653   H     0.75984   0.71727   0.41396   0.00000  Uiso   1.00
H654   H     0.78370   0.67845   0.43286   0.00000  Uiso   1.00
H655   H     0.73178   0.99860   0.42084   0.00000  Uiso   1.00
H656   H     0.78200   0.89744   0.14392   0.00000  Uiso   1.00
H657   H     0.85412   0.73886   0.43788   0.00000  Uiso   1.00
H658   H     0.88911   0.73579   0.49722   0.00000  Uiso   1.00
H659   H     0.79011   0.92151   0.41758   0.00000  Uiso   1.00
H660   H     0.82286   0.90490   0.03569   0.00000  Uiso   1.00
H661   H     0.79693   0.94694   0.49234   0.00000  Uiso   1.00
H662   H     0.81781   0.77669   0.40075   0.00000  Uiso   1.00
H663   H     0.68257   0.86021   0.20963   0.00000  Uiso   1.00
O664   O     0.83333   0.83333   0.25000   0.00000  Uiso   1.00
O665   O     0.82118   0.79304   0.15458   0.00000  Uiso   1.00
O666   O     0.79607   0.87058   0.34968   0.00000  Uiso   1.00
O667   O     0.87491   0.84425   0.14606   0.00000  Uiso   1.00
O668   O     0.84118   0.82546   0.34968   0.00000  Uiso   1.00
O669   O     0.90317   0.75547   0.07593   0.00000  Uiso   1.00
O670   O     0.77661   0.99252   0.28656   0.00000  Uiso   1.00
O671   O     0.76173   0.84873   0.08674   0.00000  Uiso   1.00
O672   O     0.80781   0.88332   0.12603   0.00000  Uiso   1.00
O673   O     0.84597   0.74686   0.28213   0.00000  Uiso   1.00
O674   O     0.81298   0.92751   0.27013   0.00000  Uiso   1.00
O675   O     0.74078   0.79958   0.23413   0.00000  Uiso   1.00
O676   O     0.93360   0.85939   0.21360   0.00000  Uiso   1.00
O677   O     0.73738   0.85544   0.28213   0.00000  Uiso   1.00
O678   O     0.92158   0.81892   0.27013   0.00000  Uiso   1.00
O679   O     0.80426   0.73610   0.23413   0.00000  Uiso   1.00
O680   O     0.87012   0.92286   0.21360   0.00000  Uiso   1.00
Zn681  Zn    0.86005   0.80661   0.28734   0.00000  Uiso   1.00
Zn682  Zn    0.80046   0.79124   0.21875   0.00000  Uiso   1.00
Zn683  Zn    0.87723   0.86442   0.20657   0.00000  Uiso   1.00
Zn684  Zn    0.79560   0.87106   0.28733   0.00000  Uiso   1.00
C685   C     0.05271   0.15977   0.75996   0.00000  Uiso   1.00
C686   C     0.16539   0.16343   0.56244   0.00000  Uiso   1.00
C687   C     0.21344   0.11053   0.55681   0.00000  Uiso   1.00
C688   C     0.28074   0.17380   0.73995   0.00000  Uiso   1.00
C689   C     0.14139   0.19364   0.91954   0.00000  Uiso   1.00
C690   C     0.32671   0.17636   0.73573   0.00000  Uiso   1.00
C691   C     0.00739   0.15756   0.76391   0.00000  Uiso   1.00
C692   C     0.18050   0.32281   0.73914   0.00000  Uiso   1.00
C693   C     0.14993   0.01190   0.76448   0.00000  Uiso   1.00
C694   C     0.15628   0.05600   0.75981   0.00000  Uiso   1.00
C695   C     0.17634   0.27792   0.74043   0.00000  Uiso   1.00
C696   C     0.13538   0.24842   0.97998   0.00000  Uiso   1.00
C697   C     0.18524   0.14803   0.62955   0.00000  Uiso   1.00
C698   C     0.14762   0.18397   0.87101   0.00000  Uiso   1.00
C699   C     0.20806   0.09648   0.51453   0.00000  Uiso   1.00
C700   C     0.18990   0.14224   0.58175   0.00000  Uiso   1.00
C701   C     0.13135   0.23365   0.93755   0.00000  Uiso   1.00
C702   C     0.27741   0.11156   0.57489   0.00000  Uiso   1.00
C703   C     0.31033   0.09964   0.53144   0.00000  Uiso   1.00
C704   C     0.02217   0.12091   0.53148   0.00000  Uiso   1.00
C705   C     0.09443   0.01242   0.82969   0.00000  Uiso   1.00
C706   C     0.11935   0.00331   0.86228   0.00000  Uiso   1.00
C707   C     0.14879   0.22339   0.50537   0.00000  Uiso   1.00
C708   C     0.09721   0.01700   0.91045   0.00000  Uiso   1.00
C709   C     0.13148   0.18762   0.59215   0.00000  Uiso   1.00
C710   C     0.15470   0.18135   0.99052   0.00000  Uiso   1.00
C711   C     0.15106   0.16637   0.94678   0.00000  Uiso   1.00
C712   C     0.16813   0.15493   0.51615   0.00000  Uiso   1.00
C713   C     0.18513   0.11796   0.99437   0.00000  Uiso   1.00
C714   C     0.17818   0.10232   0.95304   0.00000  Uiso   1.00
C715   C     0.15867   0.12502   0.93099   0.00000  Uiso   1.00
H716   H     0.31888   0.14052   0.79049   0.00000  Uiso   1.00
H717   H     0.28801   0.10317   0.60340   0.00000  Uiso   1.00
H718   H     0.27685   0.14603   0.57960   0.00000  Uiso   1.00
H719   H     0.31071   0.06530   0.52733   0.00000  Uiso   1.00
H720   H     0.30102   0.10900   0.50258   0.00000  Uiso   1.00
H721   H     0.02271   0.15533   0.53488   0.00000  Uiso   1.00
H722   H     0.04516   0.11177   0.99958   0.00000  Uiso   1.00
H723   H     0.03276   0.11135   0.55944   0.00000  Uiso   1.00
H724   H     0.06021   0.33272   0.84189   0.00000  Uiso   1.00
H725   H     0.09433   0.04653   0.82939   0.00000  Uiso   1.00
H726   H     0.12167   0.30267   0.85943   0.00000  Uiso   1.00
H727   H     0.20964   0.00471   0.71800   0.00000  Uiso   1.00
H728   H     0.15248   0.02004   0.85367   0.00000  Uiso   1.00
H729   H     0.09317   0.05060   0.91396   0.00000  Uiso   1.00
H730   H     0.11703   0.01179   0.93286   0.00000  Uiso   1.00
H731   H     0.06511   0.33193   0.92084   0.00000  Uiso   1.00
H732   H     0.11533   0.23077   0.64392   0.00000  Uiso   1.00
H733   H     0.18746   0.07220   0.93788   0.00000  Uiso   1.00
H734   H     0.22244   0.06912   0.99722   0.00000  Uiso   1.00
H735   H     0.12345   0.25484   0.91758   0.00000  Uiso   1.00
H736   H     0.15619   0.23824   0.53569   0.00000  Uiso   1.00
H737   H     0.13027   0.28028   0.99234   0.00000  Uiso   1.00
H738   H     0.15115   0.11002   0.90075   0.00000  Uiso   1.00
H739   H     0.01591   0.19354   0.70963   0.00000  Uiso   1.00
O740   O     0.16667   0.16667   0.75000   0.00000  Uiso   1.00
O741   O     0.15451   0.12637   0.65458   0.00000  Uiso   1.00
O742   O     0.12940   0.20391   0.84968   0.00000  Uiso   1.00
O743   O     0.20824   0.17759   0.64606   0.00000  Uiso   1.00
O744   O     0.17451   0.15880   0.84968   0.00000  Uiso   1.00
O745   O     0.23651   0.08880   0.57593   0.00000  Uiso   1.00
O746   O     0.10994   0.32586   0.78656   0.00000  Uiso   1.00
O747   O     0.09506   0.18207   0.58674   0.00000  Uiso   1.00
O748   O     0.14114   0.21665   0.62603   0.00000  Uiso   1.00
O749   O     0.17930   0.08019   0.78213   0.00000  Uiso   1.00
O750   O     0.14632   0.26085   0.77013   0.00000  Uiso   1.00
O751   O     0.07412   0.13291   0.73413   0.00000  Uiso   1.00
O752   O     0.26693   0.19272   0.71360   0.00000  Uiso   1.00
O753   O     0.07071   0.18878   0.78213   0.00000  Uiso   1.00
O754   O     0.25491   0.15226   0.77013   0.00000  Uiso   1.00
O755   O     0.13760   0.06944   0.73413   0.00000  Uiso   1.00
O756   O     0.20345   0.25620   0.71360   0.00000  Uiso   1.00
Zn757  Zn    0.19338   0.13994   0.78734   0.00000  Uiso   1.00
Zn758  Zn    0.13379   0.12458   0.71875   0.00000  Uiso   1.00
Zn759  Zn    0.21056   0.19775   0.70657   0.00000  Uiso   1.00
Zn760  Zn    0.12893   0.20439   0.78733   0.00000  Uiso   1.00
C761   C     0.38604   0.15977   0.75996   0.00000  Uiso   1.00
C762   C     0.49873   0.16343   0.56244   0.00000  Uiso   1.00
C763   C     0.54677   0.11053   0.55681   0.00000  Uiso   1.00
C764   C     0.61407   0.17380   0.73995   0.00000  Uiso   1.00
C765   C     0.47473   0.19364   0.91954   0.00000  Uiso   1.00
C766   C     0.66005   0.17636   0.73573   0.00000  Uiso   1.00
C767   C     0.34072   0.15756   0.76391   0.00000  Uiso   1.00
C768   C     0.51384   0.32281   0.73914   0.00000  Uiso   1.00
C769   C     0.48327   0.01190   0.76448   0.00000  Uiso   1.00
C770   C     0.48962   0.05600   0.75981   0.00000  Uiso   1.00
C771   C     0.50968   0.27792   0.74043   0.00000  Uiso   1.00
C772   C     0.46871   0.24842   0.97998   0.00000  Uiso   1.00
C773   C     0.51857   0.14803   0.62955   0.00000  Uiso   1.00
C774   C     0.48096   0.18397   0.87101   0.00000  Uiso   1.00
C775   C     0.54139   0.09648   0.51453   0.00000  Uiso   1.00
C776   C     0.52324   0.14224   0.58175   0.00000  Uiso   1.00
C777   C     0.46468   0.23365   0.93755   0.00000  Uiso   1.00
C778   C     0.61074   0.11156   0.57489   0.00000  Uiso   1.00
C779   C     0.64367   0.09964   0.53144   0.00000  Uiso   1.00
C780   C     0.35550   0.12091   0.53148   0.00000  Uiso   1.00
C781   C     0.42776   0.01242   0.82969   0.00000  Uiso   1.00
C782   C     0.45269   0.00331   0.86228   0.00000  Uiso   1.00
C783   C     0.48212   0.22339   0.50537   0.00000  Uiso   1.00
C784   C     0.43055   0.01700   0.91045   0.00000  Uiso   1.00
C785   C     0.46481   0.18762   0.59215   0.00000  Uiso   1.00
C786   C     0.48803   0.18135   0.99052   0.00000  Uiso   1.00
C787   C     0.48439   0.16637   0.94678   0.00000  Uiso   1.00
C788   C     0.50146   0.15493   0.51615   0.00000  Uiso   1.00
C789   C     0.51846   0.11796   0.99437   0.00000  Uiso   1.00
C790   C     0.51151   0.10232   0.95304   0.00000  Uiso   1.00
C791   C     0.49200   0.12502   0.93099   0.00000  Uiso   1.00
H792   H     0.65221   0.14052   0.79049   0.00000  Uiso   1.00
H793   H     0.62134   0.10317   0.60340   0.00000  Uiso   1.00
H794   H     0.61018   0.14603   0.57960   0.00000  Uiso   1.00
H795   H     0.64405   0.06530   0.52733   0.00000  Uiso   1.00
H796   H     0.63435   0.10900   0.50258   0.00000  Uiso   1.00
H797   H     0.35605   0.15533   0.53488   0.00000  Uiso   1.00
H798   H     0.37849   0.11177   0.99958   0.00000  Uiso   1.00
H799   H     0.36609   0.11135   0.55944   0.00000  Uiso   1.00
H800   H     0.39355   0.33272   0.84189   0.00000  Uiso   1.00
H801   H     0.42766   0.04653   0.82939   0.00000  Uiso   1.00
H802   H     0.45500   0.30267   0.85943   0.00000  Uiso   1.00
H803   H     0.54297   0.00471   0.71800   0.00000  Uiso   1.00
H804   H     0.48581   0.02004   0.85367   0.00000  Uiso   1.00
H805   H     0.42650   0.05060   0.91396   0.00000  Uiso   1.00
H806   H     0.45037   0.01179   0.93286   0.00000  Uiso   1.00
H807   H     0.39845   0.33193   0.92084   0.00000  Uiso   1.00
H808   H     0.44867   0.23077   0.64392   0.00000  Uiso   1.00
H809   H     0.52079   0.07220   0.93788   0.00000  Uiso   1.00
H810   H     0.55578   0.06912   0.99722   0.00000  Uiso   1.00
H811   H     0.45678   0.25484   0.91758   0.00000  Uiso   1.00
H812   H     0.48953   0.23824   0.53569   0.00000  Uiso   1.00
H813   H     0.46360   0.28028   0.99234   0.00000  Uiso   1.00
H814   H     0.48448   0.11002   0.90075   0.00000  Uiso   1.00
H815   H     0.34924   0.19354   0.70963   0.00000  Uiso   1.00
O816   O     0.50000   0.16667   0.75000   0.00000  Uiso   1.00
O817   O     0.48784   0.12637   0.65458   0.00000  Uiso   1.00
O818   O     0.46274   0.20391   0.84968   0.00000  Uiso   1.00
O819   O     0.54157   0.17759   0.64606   0.00000  Uiso   1.00
O820   O     0.50785   0.15880   0.84968   0.00000  Uiso   1.00
O821   O     0.56984   0.08880   0.57593   0.00000  Uiso   1.00
O822   O     0.44328   0.32586   0.78656   0.00000  Uiso   1.00
O823   O     0.42839   0.18207   0.58674   0.00000  Uiso   1.00
O824   O     0.47448   0.21665   0.62603   0.00000  Uiso   1.00
O825   O     0.51264   0.08019   0.78213   0.00000  Uiso   1.00
O826   O     0.47965   0.26085   0.77013   0.00000  Uiso   1.00
O827   O     0.40745   0.13291   0.73413   0.00000  Uiso   1.00
O828   O     0.60026   0.19272   0.71360   0.00000  Uiso   1.00
O829   O     0.40405   0.18878   0.78213   0.00000  Uiso   1.00
O830   O     0.58824   0.15226   0.77013   0.00000  Uiso   1.00
O831   O     0.47093   0.06944   0.73413   0.00000  Uiso   1.00
O832   O     0.53678   0.25620   0.71360   0.00000  Uiso   1.00
Zn833  Zn    0.52672   0.13994   0.78734   0.00000  Uiso   1.00
Zn834  Zn    0.46713   0.12458   0.71875   0.00000  Uiso   1.00
Zn835  Zn    0.54389   0.19775   0.70657   0.00000  Uiso   1.00
Zn836  Zn    0.46226   0.20439   0.78733   0.00000  Uiso   1.00
C837   C     0.71937   0.15977   0.75996   0.00000  Uiso   1.00
C838   C     0.83206   0.16343   0.56244   0.00000  Uiso   1.00
C839   C     0.88010   0.11053   0.55681   0.00000  Uiso   1.00
C840   C     0.94740   0.17380   0.73995   0.00000  Uiso   1.00
C841   C     0.80806   0.19364   0.91954   0.00000  Uiso   1.00
C842   C     0.99338   0.17636   0.73573   0.00000  Uiso   1.00
C843   C     0.67405   0.15756   0.76391   0.00000  Uiso   1.00
C844   C     0.84717   0.32281   0.73914   0.00000  Uiso   1.00
C845   C     0.81660   0.01190   0.76448   0.00000  Uiso   1.00
C846   C     0.82295   0.05600   0.75981   0.00000  Uiso   1.00
C847   C     0.84301   0.27792   0.74043   0.00000  Uiso   1.00
C848   C     0.80204   0.24842   0.97998   0.00000  Uiso   1.00
C849   C     0.85191   0.14803   0.62955   0.00000  Uiso   1.00
C850   C     0.81429   0.18397   0.87101   0.00000  Uiso   1.00
C851   C     0.87473   0.09648   0.51453   0.00000  Uiso   1.00
C852   C     0.85657   0.14224   0.58175   0.00000  Uiso   1.00
C853   C     0.79802   0.23365   0.93755   0.00000  Uiso   1.00
C854   C     0.94408   0.11156   0.57489   0.00000  Uiso   1.00
C855   C     0.97700   0.09964   0.53144   0.00000  Uiso   1.00
C856   C     0.68884   0.12091   0.53148   0.00000  Uiso   1.00
C857   C     0.76110   0.01242   0.82969   0.00000  Uiso   1.00
C858   C     0.78602   0.00331   0.86228   0.00000  Uiso   1.00
C859   C     0.81545   0.22339   0.50537   0.00000  Uiso   1.00
C860   C     0.76388   0.01700   0.91045   0.00000  Uiso   1.00
C861   C     0.79815   0.18762   0.59215   0.00000  Uiso   1.00
C862   C     0.82137   0.18135   0.99052   0.00000  Uiso   1.00
C863   C     0.81772   0.16637   0.94678   0.00000  Uiso   1.00
C864   C     0.83480   0.15493   0.51615   0.00000  Uiso   1.00
C865   C     0.85179   0.11796   0.99437   0.00000  Uiso   1.00
C866   C     0.84484   0.10232   0.95304   0.00000  Uiso   1.00
C867   C     0.82533   0.12502   0.93099   0.00000  Uiso   1.00
H868   H     0.98555   0.14052   0.79049   0.00000  Uiso   1.00
H869   H     0.95468   0.10317   0.60340   0.00000  Uiso   1.00
H870   H     0.94352   0.14603   0.57960   0.00000  Uiso   1.00
H871   H     0.97738   0.06530   0.52733   0.00000  Uiso   1.00
H872   H     0.96768   0.10900   0.50258   0.00000  Uiso   1.00
H873   H     0.68938   0.15533   0.53488   0.00000  Uiso   1.00
H874   H     0.71183   0.11177   0.99958   0.00000  Uiso   1.00
H875   H     0.69943   0.11135   0.55944   0.00000  Uiso   1.00
H876   H     0.72688   0.33272   0.84189   0.00000  Uiso   1.00
H877   H     0.76100   0.04653   0.82939   0.00000  Uiso   1.00
H878   H     0.78834   0.30267   0.85943   0.00000  Uiso   1.00
H879   H     0.87630   0.00471   0.71800   0.00000  Uiso   1.00
H880   H     0.81915   0.02004   0.85367   0.00000  Uiso   1.00
H881   H     0.75984   0.05060   0.91396   0.00000  Uiso   1.00
H882   H     0.78370   0.01179   0.93286   0.00000  Uiso   1.00
H883   H     0.73178   0.33193   0.92084   0.00000  Uiso   1.00
H884   H     0.78200   0.23077   0.64392   0.00000  Uiso   1.00
H885   H     0.85412   0.07220   0.93788   0.00000  Uiso   1.00
H886   H     0.88911   0.06912   0.99722   0.00000  Uiso   1.00
H887   H     0.79011   0.25484   0.91758   0.00000  Uiso   1.00
H888   H     0.82286   0.23824   0.53569   0.00000  Uiso   1.00
H889   H     0.79693   0.28028   0.99234   0.00000  Uiso   1.00
H890   H     0.81781   0.11002   0.90075   0.00000  Uiso   1.00
H891   H     0.68257   0.19354   0.70963   0.00000  Uiso   1.00
O892   O     0.83333   0.16667   0.75000   0.00000  Uiso   1.00
O893   O     0.82118   0.12637   0.65458   0.00000  Uiso   1.00
O894   O     0.79607   0.20391   0.84968   0.00000  Uiso   1.00
O895   O     0.87491   0.17759   0.64606   0.00000  Uiso   1.00
O896   O     0.84118   0.15880   0.84968   0.00000  Uiso   1.00
O897   O     0.90317   0.08880   0.57593   0.00000  Uiso   1.00
O898   O     0.77661   0.32586   0.78656   0.00000  Uiso   1.00
O899   O     0.76173   0.18207   0.58674   0.00000  Uiso   1.00
O900   O     0.80781   0.21665   0.62603   0.00000  Uiso   1.00
O901   O     0.84597   0.08019   0.78213   0.00000  Uiso   1.00
O902   O     0.81298   0.26085   0.77013   0.00000  Uiso   1.00
O903   O     0.74078   0.13291   0.73413   0.00000  Uiso   1.00
O904   O     0.93360   0.19272   0.71360   0.00000  Uiso   1.00
O905   O     0.73738   0.18878   0.78213   0.00000  Uiso   1.00
O906   O     0.92158   0.15226   0.77013   0.00000  Uiso   1.00
O907   O     0.80426   0.06944   0.73413   0.00000  Uiso   1.00
O908   O     0.87012   0.25620   0.71360   0.00000  Uiso   1.00
Zn909  Zn    0.86005   0.13994   0.78734   0.00000  Uiso   1.00
Zn910  Zn    0.80046   0.12458   0.71875   0.00000  Uiso   1.00
Zn911  Zn    0.87723   0.19775   0.70657   0.00000  Uiso   1.00
Zn912  Zn    0.79560   0.20439   0.78733   0.00000  Uiso   1.00
C913   C     0.05271   0.49310   0.75996   0.00000  Uiso   1.00
C914   C     0.16539   0.49676   0.56244   0.00000  Uiso   1.00
C915   C     0.21344   0.44386   0.55681   0.00000  Uiso   1.00
C916   C     0.28074   0.50713   0.73995   0.00000  Uiso   1.00
C917   C     0.14139   0.52697   0.91954   0.00000  Uiso   1.00
C918   C     0.32671   0.50970   0.73573   0.00000  Uiso   1.00
C919   C     0.00739   0.49089   0.76391   0.00000  Uiso   1.00
C920   C     0.18050   0.65614   0.73914   0.00000  Uiso   1.00
C921   C     0.14993   0.34523   0.76448   0.00000  Uiso   1.00
C922   C     0.15628   0.38933   0.75981   0.00000  Uiso   1.00
C923   C     0.17634   0.61125   0.74043   0.00000  Uiso   1.00
C924   C     0.13538   0.58175   0.97998   0.00000  Uiso   1.00
C925   C     0.18524   0.48137   0.62955   0.00000  Uiso   1.00
C926   C     0.14762   0.51730   0.87101   0.00000  Uiso   1.00
C927   C     0.20806   0.42981   0.51453   0.00000  Uiso   1.00
C928   C     0.18990   0.47558   0.58175   0.00000  Uiso   1.00
C929   C     0.13135   0.56698   0.93755   0.00000  Uiso   1.00
C930   C     0.27741   0.44489   0.57489   0.00000  Uiso   1.00
C931   C     0.31033   0.43297   0.53144   0.00000  Uiso   1.00
C932   C     0.02217   0.45425   0.53148   0.00000  Uiso   1.00
C933   C     0.09443   0.34575   0.82969   0.00000  Uiso   1.00
C934   C     0.11935   0.33664   0.86228   0.00000  Uiso   1.00
C935   C     0.14879   0.55672   0.50537   0.00000  Uiso   1.00
C936   C     0.09721   0.35034   0.91045   0.00000  Uiso   1.00
C937   C     0.13148   0.52095   0.59215   0.00000  Uiso   1.00
C938   C     0.15470   0.51469   0.99052   0.00000  Uiso   1.00
C939   C     0.15106   0.49971   0.94678   0.00000  Uiso   1.00
C940   C     0.16813   0.48827   0.51615   0.00000  Uiso   1.00
C941   C     0.18513   0.45129   0.99437   0.00000  Uiso   1.00
C942   C     0.17818   0.43565   0.95304   0.00000  Uiso   1.00
C943   C     0.15867   0.45835   0.93099   0.00000  Uiso   1.00
H944   H     0.31888   0.47386   0.79049   0.00000  Uiso   1.00
H945   H     0.28801   0.43651   0.60340   0.00000  Uiso   1.00
H946   H     0.27685   0.47936   0.57960   0.00000  Uiso   1.00
H947   H     0.31071   0.39864   0.52733   0.00000  Uiso   1.00
H948   H     0.30102   0.44233   0.50258   0.00000  Uiso   1.00
H949   H     0.02271   0.48866   0.53488   0.00000  Uiso   1.00
H950   H     0.04516   0.44511   0.99958   0.00000  Uiso   1.00
H951   H     0.03276   0.44469   0.55944   0.00000  Uiso   1.00
H952   H     0.06021   0.66605   0.84189   0.00000  Uiso   1.00
H953   H     0.09433   0.37987   0.82939   0.00000  Uiso   1.00
H954   H     0.12167   0.63600   0.85943   0.00000  Uiso   1.00
H955   H     0.20964   0.33804   0.71800   0.00000  Uiso   1.00
H956   H     0.15248   0.35337   0.85367   0.00000  Uiso   1.00
H957   H     0.09317   0.38394   0.91396   0.00000  Uiso   1.00
H958   H     0.11703   0.34512   0.93286   0.00000  Uiso   1.00
H959   H     0.06511   0.66526   0.92084   0.00000  Uiso   1.00
H960   H     0.11533   0.56410   0.64392   0.00000  Uiso   1.00
H961   H     0.18746   0.40553   0.93788   0.00000  Uiso   1.00
H962   H     0.22244   0.40245   0.99722   0.00000  Uiso   1.00
H963   H     0.12345   0.58817   0.91758   0.00000  Uiso   1.00
H964   H     0.15619   0.57157   0.53569   0.00000  Uiso   1.00
H965   H     0.13027   0.61361   0.99234   0.00000  Uiso   1.00
H966   H     0.15115   0.44336   0.90075   0.00000  Uiso   1.00
H967   H     0.01591   0.52687   0.70963   0.00000  Uiso   1.00
O968   O     0.16667   0.50000   0.75000   0.00000  Uiso   1.00
O969   O     0.15451   0.45970   0.65458   0.00000  Uiso   1.00
O970   O     0.12940   0.53724   0.84968   0.00000  Uiso   1.00
O971   O     0.20824   0.51092   0.64606   0.00000  Uiso   1.00
O972   O     0.17451   0.49213   0.84968   0.00000  Uiso   1.00
O973   O     0.23651   0.42214   0.57593   0.00000  Uiso   1.00
O974   O     0.10994   0.65919   0.78656   0.00000  Uiso   1.00
O975   O     0.09506   0.51540   0.58674   0.00000  Uiso   1.00
O976   O     0.14114   0.54999   0.62603   0.00000  Uiso   1.00
O977   O     0.17930   0.41352   0.78213   0.00000  Uiso   1.00
O978   O     0.14632   0.59418   0.77013   0.00000  Uiso   1.00
O979   O     0.07412   0.46625   0.73413   0.00000  Uiso   1.00
O980   O     0.26693   0.52605   0.71360   0.00000  Uiso   1.00
O981   O     0.07071   0.52211   0.78213   0.00000  Uiso   1.00
O982   O     0.25491   0.48559   0.77013   0.00000  Uiso   1.00
O983   O     0.13760   0.40277   0.73413   0.00000  Uiso   1.00
O984   O     0.20345   0.58953   0.71360   0.00000  Uiso   1.00
Zn985  Zn    0.19338   0.47327   0.78734   0.00000  Uiso   1.00
Zn986  Zn    0.13379   0.45791   0.71875   0.00000  Uiso   1.00
Zn987  Zn    0.21056   0.53109   0.70657   0.00000  Uiso   1.00
Zn988  Zn    0.12893   0.53773   0.78733   0.00000  Uiso   1.00
C989   C     0.38604   0.49310   0.75996   0.00000  Uiso   1.00
C990   C     0.49873   0.49676   0.56244   0.00000  Uiso   1.00
C991   C     0.54677   0.44386   0.55681   0.00000  Uiso   1.00
C992   C     0.61407   0.50713   0.73995   0.00000  Uiso   1.00
C993   C     0.47473   0.52697   0.91954   0.00000  Uiso   1.00
C994   C     0.66005   0.50970   0.73573   0.00000  Uiso   1.00
C995   C     0.34072   0.49089   0.76391   0.00000  Uiso   1.00
C996   C     0.51384   0.65614   0.73914   0.00000  Uiso   1.00
C997   C     0.48327   0.34523   0.76448   0.00000  Uiso   1.00
C998   C     0.48962   0.38933   0.75981   0.00000  Uiso   1.00
C999   C     0.50968   0.61125   0.74043   0.00000  Uiso   1.00
C1000  C     0.46871   0.58175   0.97998   0.00000  Uiso   1.00
C1001  C     0.51857   0.48137   0.62955   0.00000  Uiso   1.00
C1002  C     0.48096   0.51730   0.87101   0.00000  Uiso   1.00
C1003  C     0.54139   0.42981   0.51453   0.00000  Uiso   1.00
C1004  C     0.52324   0.47558   0.58175   0.00000  Uiso   1.00
C1005  C     0.46468   0.56698   0.93755   0.00000  Uiso   1.00
C1006  C     0.61074   0.44489   0.57489   0.00000  Uiso   1.00
C1007  C     0.64367   0.43297   0.53144   0.00000  Uiso   1.00
C1008  C     0.35550   0.45425   0.53148   0.00000  Uiso   1.00
C1009  C     0.42776   0.34575   0.82969   0.00000  Uiso   1.00
C1010  C     0.45269   0.33664   0.86228   0.00000  Uiso   1.00
C1011  C     0.48212   0.55672   0.50537   0.00000  Uiso   1.00
C1012  C     0.43055   0.35034   0.91045   0.00000  Uiso   1.00
C1013  C     0.46481   0.52095   0.59215   0.00000  Uiso   1.00
C1014  C     0.48803   0.51469   0.99052   0.00000  Uiso   1.00
C1015  C     0.48439   0.49971   0.94678   0.00000  Uiso   1.00
C1016  C     0.50146   0.48827   0.51615   0.00000  Uiso   1.00
C1017  C     0.51846   0.45129   0.99437   0.00000  Uiso   1.00
C1018  C     0.51151   0.43565   0.95304   0.00000  Uiso   1.00
C1019  C     0.49200   0.45835   0.93099   0.00000  Uiso   1.00
H1020  H     0.65221   0.47386   0.79049   0.00000  Uiso   1.00
H1021  H     0.62134   0.43651   0.60340   0.00000  Uiso   1.00
H1022  H     0.61018   0.47936   0.57960   0.00000  Uiso   1.00
H1023  H     0.64405   0.39864   0.52733   0.00000  Uiso   1.00
H1024  H     0.63435   0.44233   0.50258   0.00000  Uiso   1.00
H1025  H     0.35605   0.48866   0.53488   0.00000  Uiso   1.00
H1026  H     0.37849   0.44511   0.99958   0.00000  Uiso   1.00
H1027  H     0.36609   0.44469   0.55944   0.00000  Uiso   1.00
H1028  H     0.39355   0.66605   0.84189   0.00000  Uiso   1.00
H1029  H     0.42766   0.37987   0.82939   0.00000  Uiso   1.00
H1030  H     0.45500   0.63600   0.85943   0.00000  Uiso   1.00
H1031  H     0.54297   0.33804   0.71800   0.00000  Uiso   1.00
H1032  H     0.48581   0.35337   0.85367   0.00000  Uiso   1.00
H1033  H     0.42650   0.38394   0.91396   0.00000  Uiso   1.00
H1034  H     0.45037   0.34512   0.93286   0.00000  Uiso   1.00
H1035  H     0.39845   0.66526   0.92084   0.00000  Uiso   1.00
H1036  H     0.44867   0.56410   0.64392   0.00000  Uiso   1.00
H1037  H     0.52079   0.40553   0.93788   0.00000  Uiso   1.00
H1038  H     0.55578   0.40245   0.99722   0.00000  Uiso   1.00
H1039  H     0.45678   0.58817   0.91758   0.00000  Uiso   1.00
H1040  H     0.48953   0.57157   0.53569   0.00000  Uiso   1.00
H1041  H     0.46360   0.61361   0.99234   0.00000  Uiso   1.00
H1042  H     0.48448   0.44336   0.90075   0.00000  Uiso   1.00
H1043  H     0.34924   0.52687   0.70963   0.00000  Uiso   1.00
O1044  O     0.50000   0.50000   0.75000   0.00000  Uiso   1.00
O1045  O     0.48784   0.45970   0.65458   0.00000  Uiso   1.00
O1046  O     0.46274   0.53724   0.84968   0.00000  Uiso   1.00
O1047  O     0.54157   0.51092   0.64606   0.00000  Uiso   1.00
O1048  O     0.50785   0.49213   0.84968   0.00000  Uiso   1.00
O1049  O     0.56984   0.42214   0.57593   0.00000  Uiso   1.00
O1050  O     0.44328   0.65919   0.78656   0.00000  Uiso   1.00
O1051  O     0.42839   0.51540   0.58674   0.00000  Uiso   1.00
O1052  O     0.47448   0.54999   0.62603   0.00000  Uiso   1.00
O1053  O     0.51264   0.41352   0.78213   0.00000  Uiso   1.00
O1054  O     0.47965   0.59418   0.77013   0.00000  Uiso   1.00
O1055  O     0.40745   0.46625   0.73413   0.00000  Uiso   1.00
O1056  O     0.60026   0.52605   0.71360   0.00000  Uiso   1.00
O1057  O     0.40405   0.52211   0.78213   0.00000  Uiso   1.00
O1058  O     0.58824   0.48559   0.77013   0.00000  Uiso   1.00
O1059  O     0.47093   0.40277   0.73413   0.00000  Uiso   1.00
O1060  O     0.53678   0.58953   0.71360   0.00000  Uiso   1.00
Zn1061 Zn    0.52672   0.47327   0.78734   0.00000  Uiso   1.00
Zn1062 Zn    0.46713   0.45791   0.71875   0.00000  Uiso   1.00
Zn1063 Zn    0.54389   0.53109   0.70657   0.00000  Uiso   1.00
Zn1064 Zn    0.46226   0.53773   0.78733   0.00000  Uiso   1.00
C1065  C     0.71937   0.49310   0.75996   0.00000  Uiso   1.00
C1066  C     0.83206   0.49676   0.56244   0.00000  Uiso   1.00
C1067  C     0.88010   0.44386   0.55681   0.00000  Uiso   1.00
C1068  C     0.94740   0.50713   0.73995   0.00000  Uiso   1.00
C1069  C     0.80806   0.52697   0.91954   0.00000  Uiso   1.00
C1070  C     0.99338   0.50970   0.73573   0.00000  Uiso   1.00
C1071  C     0.67405   0.49089   0.76391   0.00000  Uiso   1.00
C1072  C     0.84717   0.65614   0.73914   0.00000  Uiso   1.00
C1073  C     0.81660   0.34523   0.76448   0.00000  Uiso   1.00
C1074  C     0.82295   0.38933   0.75981   0.00000  Uiso   1.00
C1075  C     0.84301   0.61125   0.74043   0.00000  Uiso   1.00
C1076  C     0.80204   0.58175   0.97998   0.00000  Uiso   1.00
C1077  C     0.85191   0.48137   0.62955   0.00000  Uiso   1.00
C1078  C     0.81429   0.51730   0.87101   0.00000  Uiso   1.00
C1079  C     0.87473   0.42981   0.51453   0.00000  Uiso   1.00
C1080  C     0.85657   0.47558   0.58175   0.00000  Uiso   1.00
C1081  C     0.79802   0.56698   0.93755   0.00000  Uiso   1.00
C1082  C     0.94408   0.44489   0.57489   0.00000  Uiso   1.00
C1083  C     0.97700   0.43297   0.53144   0.00000  Uiso   1.00
C1084  C     0.68884   0.45425   0.53148   0.00000  Uiso   1.00
C1085  C     0.76110   0.34575   0.82969   0.00000  Uiso   1.00
C1086  C     0.78602   0.33664   0.86228   0.00000  Uiso   1.00
C1087  C     0.81545   0.55672   0.50537   0.00000  Uiso   1.00
C1088  C     0.76388   0.35034   0.91045   0.00000  Uiso   1.00
C1089  C     0.79815   0.52095   0.59215   0.00000  Uiso   1.00
C1090  C     0.82137   0.51469   0.99052   0.00000  Uiso   1.00
C1091  C     0.81772   0.49971   0.94678   0.00000  Uiso   1.00
C1092  C     0.83480   0.48827   0.51615   0.00000  Uiso   1.00
C1093  C     0.85179   0.45129   0.99437   0.00000  Uiso   1.00
C1094  C     0.84484   0.43565   0.95304   0.00000  Uiso   1.00
C1095  C     0.82533   0.45835   0.93099   0.00000  Uiso   1.00
H1096  H     0.98555   0.47386   0.79049   0.00000  Uiso   1.00
H1097  H     0.95468   0.43651   0.60340   0.00000  Uiso   1.00
H1098  H     0.94352   0.47936   0.57960   0.00000  Uiso   1.00
H1099  H     0.97738   0.39864   0.52733   0.00000  Uiso   1.00
H1100  H     0.96768   0.44233   0.50258   0.00000  Uiso   1.00
H1101  H     0.68938   0.48866   0.53488   0.00000  Uiso   1.00
H1102  H     0.71183   0.44511   0.99958   0.00000  Uiso   1.00
H1103  H     0.69943   0.44469   0.55944   0.00000  Uiso   1.00
H1104  H     0.72688   0.66605   0.84189   0.00000  Uiso   1.00
H1105  H     0.76100   0.37987   0.82939   0.00000  Uiso   1.00
H1106  H     0.78834   0.63600   0.85943   0.00000  Uiso   1.00
H1107  H     0.87630   0.33804   0.71800   0.00000  Uiso   1.00
H1108  H     0.81915   0.35337   0.85367   0.00000  Uiso   1.00
H1109  H     0.75984   0.38394   0.91396   0.00000  Uiso   1.00
H1110  H     0.78370   0.34512   0.93286   0.00000  Uiso   1.00
H1111  H     0.73178   0.66526   0.92084   0.00000  Uiso   1.00
H1112  H     0.78200   0.56410   0.64392   0.00000  Uiso   1.00
H1113  H     0.85412   0.40553   0.93788   0.00000  Uiso   1.00
H1114  H     0.88911   0.40245   0.99722   0.00000  Uiso   1.00
H1115  H     0.79011   0.58817   0.91758   0.00000  Uiso   1.00
H1116  H     0.82286   0.57157   0.53569   0.00000  Uiso   1.00
H1117  H     0.79693   0.61361   0.99234   0.00000  Uiso   1.00
H1118  H     0.81781   0.44336   0.90075   0.00000  Uiso   1.00
H1119  H     0.68257   0.52687   0.70963   0.00000  Uiso   1.00
O1120  O     0.83333   0.50000   0.75000   0.00000  Uiso   1.00
O1121  O     0.82118   0.45970   0.65458   0.00000  Uiso   1.00
O1122  O     0.79607   0.53724   0.84968   0.00000  Uiso   1.00
O1123  O     0.87491   0.51092   0.64606   0.00000  Uiso   1.00
O1124  O     0.84118   0.49213   0.84968   0.00000  Uiso   1.00
O1125  O     0.90317   0.42214   0.57593   0.00000  Uiso   1.00
O1126  O     0.77661   0.65919   0.78656   0.00000  Uiso   1.00
O1127  O     0.76173   0.51540   0.58674   0.00000  Uiso   1.00
O1128  O     0.80781   0.54999   0.62603   0.00000  Uiso   1.00
O1129  O     0.84597   0.41352   0.78213   0.00000  Uiso   1.00
O1130  O     0.81298   0.59418   0.77013   0.00000  Uiso   1.00
O1131  O     0.74078   0.46625   0.73413   0.00000  Uiso   1.00
O1132  O     0.93360   0.52605   0.71360   0.00000  Uiso   1.00
O1133  O     0.73738   0.52211   0.78213   0.00000  Uiso   1.00
O1134  O     0.92158   0.48559   0.77013   0.00000  Uiso   1.00
O1135  O     0.80426   0.40277   0.73413   0.00000  Uiso   1.00
O1136  O     0.87012   0.58953   0.71360   0.00000  Uiso   1.00
Zn1137 Zn    0.86005   0.47327   0.78734   0.00000  Uiso   1.00
Zn1138 Zn    0.80046   0.45791   0.71875   0.00000  Uiso   1.00
Zn1139 Zn    0.87723   0.53109   0.70657   0.00000  Uiso   1.00
Zn1140 Zn    0.79560   0.53773   0.78733   0.00000  Uiso   1.00
C1141  C     0.05271   0.82644   0.75996   0.00000  Uiso   1.00
C1142  C     0.16539   0.83009   0.56244   0.00000  Uiso   1.00
C1143  C     0.21344   0.77719   0.55681   0.00000  Uiso   1.00
C1144  C     0.28074   0.84046   0.73995   0.00000  Uiso   1.00
C1145  C     0.14139   0.86030   0.91954   0.00000  Uiso   1.00
C1146  C     0.32671   0.84303   0.73573   0.00000  Uiso   1.00
C1147  C     0.00739   0.82422   0.76391   0.00000  Uiso   1.00
C1148  C     0.18050   0.98948   0.73914   0.00000  Uiso   1.00
C1149  C     0.14993   0.67857   0.76448   0.00000  Uiso   1.00
C1150  C     0.15628   0.72266   0.75981   0.00000  Uiso   1.00
C1151  C     0.17634   0.94459   0.74043   0.00000  Uiso   1.00
C1152  C     0.13538   0.91508   0.97998   0.00000  Uiso   1.00
C1153  C     0.18524   0.81470   0.62955   0.00000  Uiso   1.00
C1154  C     0.14762   0.85063   0.87101   0.00000  Uiso   1.00
C1155  C     0.20806   0.76315   0.51453   0.00000  Uiso   1.00
C1156  C     0.18990   0.80891   0.58175   0.00000  Uiso   1.00
C1157  C     0.13135   0.90031   0.93755   0.00000  Uiso   1.00
C1158  C     0.27741   0.77822   0.57489   0.00000  Uiso   1.00
C1159  C     0.31033   0.76630   0.53144   0.00000  Uiso   1.00
C1160  C     0.02217   0.78758   0.53148   0.00000  Uiso   1.00
C1161  C     0.09443   0.67908   0.82969   0.00000  Uiso   1.00
C1162  C     0.11935   0.66997   0.86228   0.00000  Uiso   1.00
C1163  C     0.14879   0.89005   0.50537   0.00000  Uiso   1.00
C1164  C     0.09721   0.68367   0.91045   0.00000  Uiso   1.00
C1165  C     0.13148   0.85429   0.59215   0.00000  Uiso   1.00
C1166  C     0.15470   0.84802   0.99052   0.00000  Uiso   1.00
C1167  C     0.15106   0.83304   0.94678   0.00000  Uiso   1.00
C1168  C     0.16813   0.82160   0.51615   0.00000  Uiso   1.00
C1169  C     0.18513   0.78463   0.99437   0.00000  Uiso   1.00
C1170  C     0.17818   0.76898   0.95304   0.00000  Uiso   1.00
C1171  C     0.15867   0.79168   0.93099   0.00000  Uiso   1.00
H1172  H     0.31888   0.80719   0.79049   0.00000  Uiso   1.00
H1173  H     0.28801   0.76984   0.60340   0.00000  Uiso   1.00
H1174  H     0.27685   0.81270   0.57960   0.00000  Uiso   1.00
H1175  H     0.31071   0.73197   0.52733   0.00000  Uiso   1.00
H1176  H     0.30102   0.77567   0.50258   0.00000  Uiso   1.00
H1177  H     0.02271   0.82199   0.53488   0.00000  Uiso   1.00
H1178  H     0.04516   0.77844   0.99958   0.00000  Uiso   1.00
H1179  H     0.03276   0.77802   0.55944   0.00000  Uiso   1.00
H1180  H     0.06021   0.99938   0.84189   0.00000  Uiso   1.00
H1181  H     0.09433   0.71320   0.82939   0.00000  Uiso   1.00
H1182  H     0.12167   0.96933   0.85943   0.00000  Uiso   1.00
H1183  H     0.20964   0.67138   0.71800   0.00000  Uiso   1.00
H1184  H     0.15248   0.68671   0.85367   0.00000  Uiso   1.00
H1185  H     0.09317   0.71727   0.91396   0.00000  Uiso   1.00
H1186  H     0.11703   0.67845   0.93286   0.00000  Uiso   1.00
H1187  H     0.06511   0.99860   0.92084   0.00000  Uiso   1.00
H1188  H     0.11533   0.89744   0.64392   0.00000  Uiso   1.00
H1189  H     0.18746   0.73886   0.93788   0.00000  Uiso   1.00
H1190  H     0.22244   0.73579   0.99722   0.00000  Uiso   1.00
H1191  H     0.12345   0.92151   0.91758   0.00000  Uiso   1.00
H1192  H     0.15619   0.90490   0.53569   0.00000  Uiso   1.00
H1193  H     0.13027   0.94694   0.99234   0.00000  Uiso   1.00
H1194  H     0.15115   0.77669   0.90075   0.00000  Uiso   1.00
H1195  H     0.01591   0.86021   0.70963   0.00000  Uiso   1.00
O1196  O     0.16667   0.83333   0.75000   0.00000  Uiso   1.00
O1197  O     0.15451   0.79304   0.65458   0.00000  Uiso   1.00
O1198  O     0.12940   0.87058   0.84968   0.00000  Uiso   1.00
O1199  O     0.20824   0.84425   0.64606   0.00000  Uiso   1.00
O1200  O     0.17451   0.82546   0.84968   0.00000  Uiso   1.00
O1201  O     0.23651   0.75547   0.57593   0.00000  Uiso   1.00
O1202  O     0.10994   0.99252   0.78656   0.00000  Uiso   1.00
O1203  O     0.09506   0.84873   0.58674   0.00000  Uiso   1.00
O1204  O     0.14114   0.88332   0.62603   0.00000  Uiso   1.00
O1205  O     0.17930   0.74686   0.78213   0.00000  Uiso   1.00
O1206  O     0.14632   0.92751   0.77013   0.00000  Uiso   1.00
O1207  O     0.07412   0.79958   0.73413   0.00000  Uiso   1.00
O1208  O     0.26693   0.85939   0.71360   0.00000  Uiso   1.00
O1209  O     0.07071   0.85544   0.78213   0.00000  Uiso   1.00
O1210  O     0.25491   0.81892   0.77013   0.00000  Uiso   1.00
O1211  O     0.13760   0.73610   0.73413   0.00000  Uiso   1.00
O1212  O     0.20345   0.92286   0.71360   0.00000  Uiso   1.00
Zn1213 Zn    0.19338   0.80661   0.78734   0.00000  Uiso   1.00
Zn1214 Zn    0.13379   0.79124   0.71875   0.00000  Uiso   1.00
Zn1215 Zn    0.21056   0.86442   0.70657   0.00000  Uiso   1.00
Zn1216 Zn    0.12893   0.87106   0.78733   0.00000  Uiso   1.00
C1217  C     0.38604   0.82644   0.75996   0.00000  Uiso   1.00
C1218  C     0.49873   0.83009   0.56244   0.00000  Uiso   1.00
C1219  C     0.54677   0.77719   0.55681   0.00000  Uiso   1.00
C1220  C     0.61407   0.84046   0.73995   0.00000  Uiso   1.00
C1221  C     0.47473   0.86030   0.91954   0.00000  Uiso   1.00
C1222  C     0.66005   0.84303   0.73573   0.00000  Uiso   1.00
C1223  C     0.34072   0.82422   0.76391   0.00000  Uiso   1.00
C1224  C     0.51384   0.98948   0.73914   0.00000  Uiso   1.00
C1225  C     0.48327   0.67857   0.76448   0.00000  Uiso   1.00
C1226  C     0.48962   0.72266   0.75981   0.00000  Uiso   1.00
C1227  C     0.50968   0.94459   0.74043   0.00000  Uiso   1.00
C1228  C     0.46871   0.91508   0.97998   0.00000  Uiso   1.00
C1229  C     0.51857   0.81470   0.62955   0.00000  Uiso   1.00
C1230  C     0.48096   0.85063   0.87101   0.00000  Uiso   1.00
C1231  C     0.54139   0.76315   0.51453   0.00000  Uiso   1.00
C1232  C     0.52324   0.80891   0.58175   0.00000  Uiso   1.00
C1233  C     0.46468   0.90031   0.93755   0.00000  Uiso   1.00
C1234  C     0.61074   0.77822   0.57489   0.00000  Uiso   1.00
C1235  C     0.64367   0.76630   0.53144   0.00000  Uiso   1.00
C1236  C     0.35550   0.78758   0.53148   0.00000  Uiso   1.00
C1237  C     0.42776   0.67908   0.82969   0.00000  Uiso   1.00
C1238  C     0.45269   0.66997   0.86228   0.00000  Uiso   1.00
C1239  C     0.48212   0.89005   0.50537   0.00000  Uiso   1.00
C1240  C     0.43055   0.68367   0.91045   0.00000  Uiso   1.00
C1241  C     0.46481   0.85429   0.59215   0.00000  Uiso   1.00
C1242  C     0.48803   0.84802   0.99052   0.00000  Uiso   1.00
C1243  C     0.48439   0.83304   0.94678   0.00000  Uiso   1.00
C1244  C     0.50146   0.82160   0.51615   0.00000  Uiso   1.00
C1245  C     0.51846   0.78463   0.99437   0.00000  Uiso   1.00
C1246  C     0.51151   0.76898   0.95304   0.00000  Uiso   1.00
C1247  C     0.49200   0.79168   0.93099   0.00000  Uiso   1.00
H1248  H     0.65221   0.80719   0.79049   0.00000  Uiso   1.00
H1249  H     0.62134   0.76984   0.60340   0.00000  Uiso   1.00
H1250  H     0.61018   0.81270   0.57960   0.00000  Uiso   1.00
H1251  H     0.64405   0.73197   0.52733   0.00000  Uiso   1.00
H1252  H     0.63435   0.77567   0.50258   0.00000  Uiso   1.00
H1253  H     0.35605   0.82199   0.53488   0.00000  Uiso   1.00
H1254  H     0.37849   0.77844   0.99958   0.00000  Uiso   1.00
H1255  H     0.36609   0.77802   0.55944   0.00000  Uiso   1.00
H1256  H     0.39355   0.99938   0.84189   0.00000  Uiso   1.00
H1257  H     0.42766   0.71320   0.82939   0.00000  Uiso   1.00
H1258  H     0.45500   0.96933   0.85943   0.00000  Uiso   1.00
H1259  H     0.54297   0.67138   0.71800   0.00000  Uiso   1.00
H1260  H     0.48581   0.68671   0.85367   0.00000  Uiso   1.00
H1261  H     0.42650   0.71727   0.91396   0.00000  Uiso   1.00
H1262  H     0.45037   0.67845   0.93286   0.00000  Uiso   1.00
H1263  H     0.39845   0.99860   0.92084   0.00000  Uiso   1.00
H1264  H     0.44867   0.89744   0.64392   0.00000  Uiso   1.00
H1265  H     0.52079   0.73886   0.93788   0.00000  Uiso   1.00
H1266  H     0.55578   0.73579   0.99722   0.00000  Uiso   1.00
H1267  H     0.45678   0.92151   0.91758   0.00000  Uiso   1.00
H1268  H     0.48953   0.90490   0.53569   0.00000  Uiso   1.00
H1269  H     0.46360   0.94694   0.99234   0.00000  Uiso   1.00
H1270  H     0.48448   0.77669   0.90075   0.00000  Uiso   1.00
H1271  H     0.34924   0.86021   0.70963   0.00000  Uiso   1.00
O1272  O     0.50000   0.83333   0.75000   0.00000  Uiso   1.00
O1273  O     0.48784   0.79304   0.65458   0.00000  Uiso   1.00
O1274  O     0.46274   0.87058   0.84968   0.00000  Uiso   1.00
O1275  O     0.54157   0.84425   0.64606   0.00000  Uiso   1.00
O1276  O     0.50785   0.82546   0.84968   0.00000  Uiso   1.00
O1277  O     0.56984   0.75547   0.57593   0.00000  Uiso   1.00
O1278  O     0.44328   0.99252   0.78656   0.00000  Uiso   1.00
O1279  O     0.42839   0.84873   0.58674   0.00000  Uiso   1.00
O1280  O     0.47448   0.88332   0.62603   0.00000  Uiso   1.00
O1281  O     0.51264   0.74686   0.78213   0.00000  Uiso   1.00
O1282  O     0.47965   0.92751   0.77013   0.00000  Uiso   1.00
O1283  O     0.40745   0.79958   0.73413   0.00000  Uiso   1.00
O1284  O     0.60026   0.85939   0.71360   0.00000  Uiso   1.00
O1285  O     0.40405   0.85544   0.78213   0.00000  Uiso   1.00
O1286  O     0.58824   0.81892   0.77013   0.00000  Uiso   1.00
O1287  O     0.47093   0.73610   0.73413   0.00000  Uiso   1.00
O1288  O     0.53678   0.92286   0.71360   0.00000  Uiso   1.00
Zn1289 Zn    0.52672   0.80661   0.78734   0.00000  Uiso   1.00
Zn1290 Zn    0.46713   0.79124   0.71875   0.00000  Uiso   1.00
Zn1291 Zn    0.54389   0.86442   0.70657   0.00000  Uiso   1.00
Zn1292 Zn    0.46226   0.87106   0.78733   0.00000  Uiso   1.00
C1293  C     0.71937   0.82644   0.75996   0.00000  Uiso   1.00
C1294  C     0.83206   0.83009   0.56244   0.00000  Uiso   1.00
C1295  C     0.88010   0.77719   0.55681   0.00000  Uiso   1.00
C1296  C     0.94740   0.84046   0.73995   0.00000  Uiso   1.00
C1297  C     0.80806   0.86030   0.91954   0.00000  Uiso   1.00
C1298  C     0.99338   0.84303   0.73573   0.00000  Uiso   1.00
C1299  C     0.67405   0.82422   0.76391   0.00000  Uiso   1.00
C1300  C     0.84717   0.98948   0.73914   0.00000  Uiso   1.00
C1301  C     0.81660   0.67857   0.76448   0.00000  Uiso   1.00
C1302  C     0.82295   0.72266   0.75981   0.00000  Uiso   1.00
C1303  C     0.84301   0.94459   0.74043   0.00000  Uiso   1.00
C1304  C     0.80204   0.91508   0.97998   0.00000  Uiso   1.00
C1305  C     0.85191   0.81470   0.62955   0.00000  Uiso   1.00
C1306  C     0.81429   0.85063   0.87101   0.00000  Uiso   1.00
C1307  C     0.87473   0.76315   0.51453   0.00000  Uiso   1.00
C1308  C     0.85657   0.80891   0.58175   0.00000  Uiso   1.00
C1309  C     0.79802   0.90031   0.93755   0.00000  Uiso   1.00
C1310  C     0.94408   0.77822   0.57489   0.00000  Uiso   1.00
C1311  C     0.97700   0.76630   0.53144   0.00000  Uiso   1.00
C1312  C     0.68884   0.78758   0.53148   0.00000  Uiso   1.00
C1313  C     0.76110   0.67908   0.82969   0.00000  Uiso   1.00
C1314  C     0.78602   0.66997   0.86228   0.00000  Uiso   1.00
C1315  C     0.81545   0.89005   0.50537   0.00000  Uiso   1.00
C1316  C     0.76388   0.68367   0.91045   0.00000  Uiso   1.00
C1317  C     0.79815   0.85429   0.59215   0.00000  Uiso   1.00
C1318  C     0.82137   0.84802   0.99052   0.00000  Uiso   1.00
C1319  C     0.81772   0.83304   0.94678   0.00000  Uiso   1.00
C1320  C     0.83480   0.82160   0.51615   0.00000  Uiso   1.00
C1321  C     0.85179   0.78463   0.99437   0.00000  Uiso   1.00
C1322  C     0.84484   0.76898   0.95304   0.00000  Uiso   1.00
C1323  C     0.82533   0.79168   0.93099   0.00000  Uiso   1.00
H1324  H     0.98555   0.80719   0.79049   0.00000  Uiso   1.00
H1325  H     0.95468   0.76984   0.60340   0.00000  Uiso   1.00
H1326  H     0.94352   0.81270   0.57960   0.00000  Uiso   1.00
H1327  H     0.97738   0.73197   0.52733   0.00000  Uiso   1.00
H1328  H     0.96768   0.77567   0.50258   0.00000  Uiso   1.00
H1329  H     0.68938   0.82199   0.53488   0.00000  Uiso   1.00
H1330  H     0.71183   0.77844   0.99958   0.00000  Uiso   1.00
H1331  H     0.69943   0.77802   0.55944   0.00000  Uiso   1.00
H1332  H     0.72688   0.99938   0.84189   0.00000  Uiso   1.00
H1333  H     0.76100   0.71320   0.82939   0.00000  Uiso   1.00
H1334  H     0.78834   0.96933   0.85943   0.00000  Uiso   1.00
H1335  H     0.87630   0.67138   0.71800   0.00000  Uiso   1.00
H1336  H     0.81915   0.68671   0.85367   0.00000  Uiso   1.00
H1337  H     0.75984   0.71727   0.91396   0.00000  Uiso   1.00
H1338  H     0.78370   0.67845   0.93286   0.00000  Uiso   1.00
H1339  H     0.73178   0.99860   0.92084   0.00000  Uiso   1.00
H1340  H     0.78200   0.89744   0.64392   0.00000  Uiso   1.00
H1341  H     0.85412   0.73886   0.93788   0.00000  Uiso   1.00
H1342  H     0.88911   0.73579   0.99722   0.00000  Uiso   1.00
H1343  H     0.79011   0.92151   0.91758   0.00000  Uiso   1.00
H1344  H     0.82286   0.90490   0.53569   0.00000  Uiso   1.00
H1345  H     0.79693   0.94694   0.99234   0.00000  Uiso   1.00
H1346  H     0.81781   0.77669   0.90075   0.00000  Uiso   1.00
H1347  H     0.68257   0.86021   0.70963   0.00000  Uiso   1.00
O1348  O     0.83333   0.83333   0.75000   0.00000  Uiso   1.00
O1349  O     0.82118   0.79304   0.65458   0.00000  Uiso   1.00
O1350  O     0.79607   0.87058   0.84968   0.00000  Uiso   1.00
O1351  O     0.87491   0.84425   0.64606   0.00000  Uiso   1.00
O1352  O     0.84118   0.82546   0.84968   0.00000  Uiso   1.00
O1353  O     0.90317   0.75547   0.57593   0.00000  Uiso   1.00
O1354  O     0.77661   0.99252   0.78656   0.00000  Uiso   1.00
O1355  O     0.76173   0.84873   0.58674   0.00000  Uiso   1.00
O1356  O     0.80781   0.88332   0.62603   0.00000  Uiso   1.00
O1357  O     0.84597   0.74686   0.78213   0.00000  Uiso   1.00
O1358  O     0.81298   0.92751   0.77013   0.00000  Uiso   1.00
O1359  O     0.74078   0.79958   0.73413   0.00000  Uiso   1.00
O1360  O     0.93360   0.85939   0.71360   0.00000  Uiso   1.00
O1361  O     0.73738   0.85544   0.78213   0.00000  Uiso   1.00
O1362  O     0.92158   0.81892   0.77013   0.00000  Uiso   1.00
O1363  O     0.80426   0.73610   0.73413   0.00000  Uiso   1.00
O1364  O     0.87012   0.92286   0.71360   0.00000  Uiso   1.00
Zn1365 Zn    0.86005   0.80661   0.78734   0.00000  Uiso   1.00
Zn1366 Zn    0.80046   0.79124   0.71875   0.00000  Uiso   1.00
Zn1367 Zn    0.87723   0.86442   0.70657   0.00000  Uiso   1.00
Zn1368 Zn    0.79560   0.87106   0.78733   0.00000  Uiso   1.00
loop_
_geom_bond_atom_site_label_1
_geom_bond_atom_site_label_2
_geom_bond_distance
_geom_bond_site_symmetry_2
_ccdc_geom_bond_type
C1     O69     1.268   .     A
C1     C7      1.436   .     S
C1     O67     1.268   .     A
C2     C16     1.411   .     A
C2     C25     1.493   .     S
C2     C28     1.419   .     A
C3     O61     1.384   .     S
C3     C15     1.390   .     A
C3     C16     1.406   .     A
C4     O70     1.284   .     A
C4     C6      1.454   .     S
C4     O68     1.288   .     A
C5     C17     1.404   .     A
C5     C27     1.420   .     A
C5     C14     1.474   .     S
C6     C83     1.335   .     S
C6     H131    1.088   .     S
C7     C158    1.335   1_455 S
C7     H184    1.086   1_455 S
C8     C11     1.453   .     S
C8     C237    1.342   .     S
C8     H271    1.088   .     S
C9     C10     1.440   .     S
C9     C464    1.342   1_545 S
C9     O518    1.395   1_545 S
C10    O71     1.275   .     A
C10    O65     1.279   .     A
C11    O66     1.266   .     A
C11    O72     1.274   .     A
C12    C17     1.386   .     A
C12    H53     1.083   .     S
C12    C707    1.388   .     S
C13    O59     1.274   .     A
C13    O57     1.270   .     A
C13    C16     1.450   .     S
C14    O58     1.282   .     A
C14    O60     1.283   .     A
C15    C713    1.397   1_554 S
C15    H734    1.084   1_554 S
C17    H51     1.083   .     S
C18    C19     1.534   .     S
C18    H34     1.117   .     S
C18    O61     1.417   .     S
C18    H33     1.111   .     S
C19    H36     1.111   .     S
C19    H35     1.112   .     S
C19    C96     1.527   .     S
C20    H39     1.111   .     S
C20    H37     1.111   .     S
C20    C171    1.527   1_455 S
C20    H722    1.111   1_554 S
C21    C22     1.537   .     S
C21    H41     1.113   .     S
C21    H496    1.111   1_545 S
C21    O518    1.417   1_545 S
C22    H44     1.111   .     S
C22    C24     1.526   .     S
C22    H498    1.111   1_545 S
C23    H52     1.078   .     S
C23    C696    1.388   1_554 S
C23    C710    1.415   1_554 S
C24    H45     1.110   .     S
C24    H46     1.111   .     S
C24    H503    1.111   1_545 S
C25    O63     1.223   .     D
C25    O64     1.399   .     S
C26    C27     1.422   .     A
C26    C707    1.415   .     S
C26    C712    1.426   .     S
C27    C31     1.411   .     A
C28    C710    1.426   1_554 S
C28    C713    1.419   1_554 S
C29    C30     1.391   .     A
C29    C712    1.419   .     S
C29    C699    1.397   .     S
C30    C31     1.384   .     A
C30    H49     1.084   .     S
C31    H54     1.079   .     S
H32    C83     1.086   .     S
H38    C704    1.111   .     S
H40    C249    1.111   .     S
H42    C250    1.111   .     S
H43    C464    1.088   1_545 S
H47    C252    1.111   .     S
H48    O64     1.014   .     S
H50    C699    1.084   .     S
H55    C158    1.088   1_455 S
O56    Zn76    1.925   .     S
O56    Zn75    1.941   .     S
O56    Zn74    1.941   .     S
O56    Zn73    1.969   .     S
O57    Zn74    1.940   .     S
O58    Zn76    1.951   .     S
O59    Zn75    1.939   .     S
O60    Zn73    1.929   .     S
O62    C249    1.417   .     S
O62    C237    1.395   .     S
O65    Zn73    1.929   .     S
O66    Zn76    1.939   .     S
O67    Zn74    1.921   .     S
O68    Zn75    1.934   .     S
O69    Zn76    1.929   .     S
O70    Zn73    1.920   .     S
O71    Zn74    1.943   .     S
O72    Zn75    1.930   .     S
C77    O145    1.268   .     A
C77    C83     1.436   .     S
C77    O143    1.268   .     A
C78    C92     1.411   .     A
C78    C101    1.493   .     S
C78    C104    1.419   .     A
C79    O137    1.384   .     S
C79    C91     1.390   .     A
C79    C92     1.406   .     A
C80    O146    1.284   .     A
C80    C82     1.454   .     S
C80    O144    1.288   .     A
C81    C93     1.404   .     A
C81    C103    1.420   .     A
C81    C90     1.474   .     S
C82    C159    1.335   .     S
C82    H207    1.088   .     S
C84    C87     1.453   .     S
C84    C313    1.342   .     S
C84    H347    1.088   .     S
C85    C86     1.440   .     S
C85    C540    1.342   1_545 S
C85    O594    1.395   1_545 S
C86    O147    1.275   .     A
C86    O141    1.279   .     A
C87    O142    1.266   .     A
C87    O148    1.274   .     A
C88    C93     1.386   .     A
C88    H129    1.083   .     S
C88    C783    1.388   .     S
C89    O135    1.274   .     A
C89    O133    1.270   .     A
C89    C92     1.450   .     S
C90    O134    1.282   .     A
C90    O136    1.283   .     A
C91    C789    1.397   1_554 S
C91    H810    1.084   1_554 S
C93    H127    1.083   .     S
C94    C95     1.534   .     S
C94    H110    1.117   .     S
C94    O137    1.417   .     S
C94    H109    1.111   .     S
C95    H112    1.111   .     S
C95    H111    1.112   .     S
C95    C172    1.527   .     S
C96    H115    1.111   .     S
C96    H113    1.111   .     S
C96    H798    1.111   1_554 S
C97    C98     1.537   .     S
C97    H117    1.113   .     S
C97    H572    1.111   1_545 S
C97    O594    1.417   1_545 S
C98    H120    1.111   .     S
C98    C100    1.526   .     S
C98    H574    1.111   1_545 S
C99    H128    1.078   .     S
C99    C772    1.388   1_554 S
C99    C786    1.415   1_554 S
C100   H121    1.110   .     S
C100   H122    1.111   .     S
C100   H579    1.111   1_545 S
C101   O139    1.223   .     D
C101   O140    1.399   .     S
C102   C103    1.422   .     A
C102   C783    1.415   .     S
C102   C788    1.426   .     S
C103   C107    1.411   .     A
C104   C786    1.426   1_554 S
C104   C789    1.419   1_554 S
C105   C106    1.391   .     A
C105   C788    1.419   .     S
C105   C775    1.397   .     S
C106   C107    1.384   .     A
C106   H125    1.084   .     S
C107   H130    1.079   .     S
H108   C159    1.086   .     S
H114   C780    1.111   .     S
H116   C325    1.111   .     S
H118   C326    1.111   .     S
H119   C540    1.088   1_545 S
H123   C328    1.111   .     S
H124   O140    1.014   .     S
H126   C775    1.084   .     S
O132   Zn152   1.925   .     S
O132   Zn151   1.941   .     S
O132   Zn150   1.941   .     S
O132   Zn149   1.969   .     S
O133   Zn150   1.940   .     S
O134   Zn152   1.951   .     S
O135   Zn151   1.939   .     S
O136   Zn149   1.929   .     S
O138   C325    1.417   .     S
O138   C313    1.395   .     S
O141   Zn149   1.929   .     S
O142   Zn152   1.939   .     S
O143   Zn150   1.921   .     S
O144   Zn151   1.934   .     S
O145   Zn152   1.929   .     S
O146   Zn149   1.920   .     S
O147   Zn150   1.943   .     S
O148   Zn151   1.930   .     S
C153   O221    1.268   .     A
C153   C159    1.436   .     S
C153   O219    1.268   .     A
C154   C168    1.411   .     A
C154   C177    1.493   .     S
C154   C180    1.419   .     A
C155   O213    1.384   .     S
C155   C167    1.390   .     A
C155   C168    1.406   .     A
C156   O222    1.284   .     A
C156   C158    1.454   .     S
C156   O220    1.288   .     A
C157   C169    1.404   .     A
C157   C179    1.420   .     A
C157   C166    1.474   .     S
C158   C7      1.335   1_655 S
C158   H55     1.088   1_655 S
C160   C163    1.453   .     S
C160   C389    1.342   .     S
C160   H423    1.088   .     S
C161   C162    1.440   .     S
C161   C616    1.342   1_545 S
C161   O670    1.395   1_545 S
C162   O223    1.275   .     A
C162   O217    1.279   .     A
C163   O218    1.266   .     A
C163   O224    1.274   .     A
C164   C169    1.386   .     A
C164   H205    1.083   .     S
C164   C859    1.388   .     S
C165   O211    1.274   .     A
C165   O209    1.270   .     A
C165   C168    1.450   .     S
C166   O210    1.282   .     A
C166   O212    1.283   .     A
C167   C865    1.397   1_554 S
C167   H886    1.084   1_554 S
C169   H203    1.083   .     S
C170   C171    1.534   .     S
C170   H186    1.117   .     S
C170   O213    1.417   .     S
C170   H185    1.111   .     S
C171   H188    1.111   .     S
C171   H187    1.112   .     S
C171   C20     1.527   1_655 S
C172   H191    1.111   .     S
C172   H189    1.111   .     S
C172   H874    1.111   1_554 S
C173   C174    1.537   .     S
C173   H193    1.113   .     S
C173   H648    1.111   1_545 S
C173   O670    1.417   1_545 S
C174   H196    1.111   .     S
C174   C176    1.526   .     S
C174   H650    1.111   1_545 S
C175   H204    1.078   .     S
C175   C848    1.388   1_554 S
C175   C862    1.415   1_554 S
C176   H197    1.110   .     S
C176   H198    1.111   .     S
C176   H655    1.111   1_545 S
C177   O215    1.223   .     D
C177   O216    1.399   .     S
C178   C179    1.422   .     A
C178   C859    1.415   .     S
C178   C864    1.426   .     S
C179   C183    1.411   .     A
C180   C862    1.426   1_554 S
C180   C865    1.419   1_554 S
C181   C182    1.391   .     A
C181   C864    1.419   .     S
C181   C851    1.397   .     S
C182   C183    1.384   .     A
C182   H201    1.084   .     S
C183   H206    1.079   .     S
H184   C7      1.086   1_655 S
H190   C856    1.111   .     S
H192   C401    1.111   .     S
H194   C402    1.111   .     S
H195   C616    1.088   1_545 S
H199   C404    1.111   .     S
H200   O216    1.014   .     S
H202   C851    1.084   .     S
O208   Zn228   1.925   .     S
O208   Zn227   1.941   .     S
O208   Zn226   1.941   .     S
O208   Zn225   1.969   .     S
O209   Zn226   1.940   .     S
O210   Zn228   1.951   .     S
O211   Zn227   1.939   .     S
O212   Zn225   1.929   .     S
O214   C401    1.417   .     S
O214   C389    1.395   .     S
O217   Zn225   1.929   .     S
O218   Zn228   1.939   .     S
O219   Zn226   1.921   .     S
O220   Zn227   1.934   .     S
O221   Zn228   1.929   .     S
O222   Zn225   1.920   .     S
O223   Zn226   1.943   .     S
O224   Zn227   1.930   .     S
C229   O297    1.268   .     A
C229   C235    1.436   .     S
C229   O295    1.268   .     A
C230   C244    1.411   .     A
C230   C253    1.493   .     S
C230   C256    1.419   .     A
C231   O289    1.384   .     S
C231   C243    1.390   .     A
C231   C244    1.406   .     A
C232   O298    1.284   .     A
C232   C234    1.454   .     S
C232   O296    1.288   .     A
C233   C245    1.404   .     A
C233   C255    1.420   .     A
C233   C242    1.474   .     S
C234   C311    1.335   .     S
C234   H359    1.088   .     S
C235   C386    1.335   1_455 S
C235   H412    1.086   1_455 S
C236   C239    1.453   .     S
C236   C465    1.342   .     S
C236   H499    1.088   .     S
C237   C238    1.440   .     S
C238   O299    1.275   .     A
C238   O293    1.279   .     A
C239   O294    1.266   .     A
C239   O300    1.274   .     A
C240   C245    1.386   .     A
C240   H281    1.083   .     S
C240   C935    1.388   .     S
C241   O287    1.274   .     A
C241   O285    1.270   .     A
C241   C244    1.450   .     S
C242   O286    1.282   .     A
C242   O288    1.283   .     A
C243   C941    1.397   1_554 S
C243   H962    1.084   1_554 S
C245   H279    1.083   .     S
C246   C247    1.534   .     S
C246   H262    1.117   .     S
C246   O289    1.417   .     S
C246   H261    1.111   .     S
C247   H264    1.111   .     S
C247   H263    1.112   .     S
C247   C324    1.527   .     S
C248   H267    1.111   .     S
C248   H265    1.111   .     S
C248   C399    1.527   1_455 S
C248   H950    1.111   1_554 S
C249   C250    1.537   .     S
C249   H269    1.113   .     S
C250   H272    1.111   .     S
C250   C252    1.526   .     S
C251   H280    1.078   .     S
C251   C924    1.388   1_554 S
C251   C938    1.415   1_554 S
C252   H273    1.110   .     S
C252   H274    1.111   .     S
C253   O291    1.223   .     D
C253   O292    1.399   .     S
C254   C255    1.422   .     A
C254   C935    1.415   .     S
C254   C940    1.426   .     S
C255   C259    1.411   .     A
C256   C938    1.426   1_554 S
C256   C941    1.419   1_554 S
C257   C258    1.391   .     A
C257   C940    1.419   .     S
C257   C927    1.397   .     S
C258   C259    1.384   .     A
C258   H277    1.084   .     S
C259   H282    1.079   .     S
H260   C311    1.086   .     S
H266   C932    1.111   .     S
H268   C477    1.111   .     S
H270   C478    1.111   .     S
H275   C480    1.111   .     S
H276   O292    1.014   .     S
H278   C927    1.084   .     S
H283   C386    1.088   1_455 S
O284   Zn304   1.925   .     S
O284   Zn303   1.941   .     S
O284   Zn302   1.941   .     S
O284   Zn301   1.969   .     S
O285   Zn302   1.940   .     S
O286   Zn304   1.951   .     S
O287   Zn303   1.939   .     S
O288   Zn301   1.929   .     S
O290   C477    1.417   .     S
O290   C465    1.395   .     S
O293   Zn301   1.929   .     S
O294   Zn304   1.939   .     S
O295   Zn302   1.921   .     S
O296   Zn303   1.934   .     S
O297   Zn304   1.929   .     S
O298   Zn301   1.920   .     S
O299   Zn302   1.943   .     S
O300   Zn303   1.930   .     S
C305   O373    1.268   .     A
C305   C311    1.436   .     S
C305   O371    1.268   .     A
C306   C320    1.411   .     A
C306   C329    1.493   .     S
C306   C332    1.419   .     A
C307   O365    1.384   .     S
C307   C319    1.390   .     A
C307   C320    1.406   .     A
C308   O374    1.284   .     A
C308   C310    1.454   .     S
C308   O372    1.288   .     A
C309   C321    1.404   .     A
C309   C331    1.420   .     A
C309   C318    1.474   .     S
C310   C387    1.335   .     S
C310   H435    1.088   .     S
C312   C315    1.453   .     S
C312   C541    1.342   .     S
C312   H575    1.088   .     S
C313   C314    1.440   .     S
C314   O375    1.275   .     A
C314   O369    1.279   .     A
C315   O370    1.266   .     A
C315   O376    1.274   .     A
C316   C321    1.386   .     A
C316   H357    1.083   .     S
C316   C1011   1.388   .     S
C317   O363    1.274   .     A
C317   O361    1.270   .     A
C317   C320    1.450   .     S
C318   O362    1.282   .     A
C318   O364    1.283   .     A
C319   C1017   1.397   1_554 S
C319   H1038   1.084   1_554 S
C321   H355    1.083   .     S
C322   C323    1.534   .     S
C322   H338    1.117   .     S
C322   O365    1.417   .     S
C322   H337    1.111   .     S
C323   H340    1.111   .     S
C323   H339    1.112   .     S
C323   C400    1.527   .     S
C324   H343    1.111   .     S
C324   H341    1.111   .     S
C324   H1026   1.111   1_554 S
C325   C326    1.537   .     S
C325   H345    1.113   .     S
C326   H348    1.111   .     S
C326   C328    1.526   .     S
C327   H356    1.078   .     S
C327   C1000   1.388   1_554 S
C327   C1014   1.415   1_554 S
C328   H349    1.110   .     S
C328   H350    1.111   .     S
C329   O367    1.223   .     D
C329   O368    1.399   .     S
C330   C331    1.422   .     A
C330   C1011   1.415   .     S
C330   C1016   1.426   .     S
C331   C335    1.411   .     A
C332   C1014   1.426   1_554 S
C332   C1017   1.419   1_554 S
C333   C334    1.391   .     A
C333   C1016   1.419   .     S
C333   C1003   1.397   .     S
C334   C335    1.384   .     A
C334   H353    1.084   .     S
C335   H358    1.079   .     S
H336   C387    1.086   .     S
H342   C1008   1.111   .     S
H344   C553    1.111   .     S
H346   C554    1.111   .     S
H351   C556    1.111   .     S
H352   O368    1.014   .     S
H354   C1003   1.084   .     S
O360   Zn380   1.925   .     S
O360   Zn379   1.941   .     S
O360   Zn378   1.941   .     S
O360   Zn377   1.969   .     S
O361   Zn378   1.940   .     S
O362   Zn380   1.951   .     S
O363   Zn379   1.939   .     S
O364   Zn377   1.929   .     S
O366   C553    1.417   .     S
O366   C541    1.395   .     S
O369   Zn377   1.929   .     S
O370   Zn380   1.939   .     S
O371   Zn378   1.921   .     S
O372   Zn379   1.934   .     S
O373   Zn380   1.929   .     S
O374   Zn377   1.920   .     S
O375   Zn378   1.943   .     S
O376   Zn379   1.930   .     S
C381   O449    1.268   .     A
C381   C387    1.436   .     S
C381   O447    1.268   .     A
C382   C396    1.411   .     A
C382   C405    1.493   .     S
C382   C408    1.419   .     A
C383   O441    1.384   .     S
C383   C395    1.390   .     A
C383   C396    1.406   .     A
C384   O450    1.284   .     A
C384   C386    1.454   .     S
C384   O448    1.288   .     A
C385   C397    1.404   .     A
C385   C407    1.420   .     A
C385   C394    1.474   .     S
C386   C235    1.335   1_655 S
C386   H283    1.088   1_655 S
C388   C391    1.453   .     S
C388   C617    1.342   .     S
C388   H651    1.088   .     S
C389   C390    1.440   .     S
C390   O451    1.275   .     A
C390   O445    1.279   .     A
C391   O446    1.266   .     A
C391   O452    1.274   .     A
C392   C397    1.386   .     A
C392   H433    1.083   .     S
C392   C1087   1.388   .     S
C393   O439    1.274   .     A
C393   O437    1.270   .     A
C393   C396    1.450   .     S
C394   O438    1.282   .     A
C394   O440    1.283   .     A
C395   C1093   1.397   1_554 S
C395   H1114   1.084   1_554 S
C397   H431    1.083   .     S
C398   C399    1.534   .     S
C398   H414    1.117   .     S
C398   O441    1.417   .     S
C398   H413    1.111   .     S
C399   H416    1.111   .     S
C399   H415    1.112   .     S
C399   C248    1.527   1_655 S
C400   H419    1.111   .     S
C400   H417    1.111   .     S
C400   H1102   1.111   1_554 S
C401   C402    1.537   .     S
C401   H421    1.113   .     S
C402   H424    1.111   .     S
C402   C404    1.526   .     S
C403   H432    1.078   .     S
C403   C1076   1.388   1_554 S
C403   C1090   1.415   1_554 S
C404   H425    1.110   .     S
C404   H426    1.111   .     S
C405   O443    1.223   .     D
C405   O444    1.399   .     S
C406   C407    1.422   .     A
C406   C1087   1.415   .     S
C406   C1092   1.426   .     S
C407   C411    1.411   .     A
C408   C1090   1.426   1_554 S
C408   C1093   1.419   1_554 S
C409   C410    1.391   .     A
C409   C1092   1.419   .     S
C409   C1079   1.397   .     S
C410   C411    1.384   .     A
C410   H429    1.084   .     S
C411   H434    1.079   .     S
H412   C235    1.086   1_655 S
H418   C1084   1.111   .     S
H420   C629    1.111   .     S
H422   C630    1.111   .     S
H427   C632    1.111   .     S
H428   O444    1.014   .     S
H430   C1079   1.084   .     S
O436   Zn456   1.925   .     S
O436   Zn455   1.941   .     S
O436   Zn454   1.941   .     S
O436   Zn453   1.969   .     S
O437   Zn454   1.940   .     S
O438   Zn456   1.951   .     S
O439   Zn455   1.939   .     S
O440   Zn453   1.929   .     S
O442   C629    1.417   .     S
O442   C617    1.395   .     S
O445   Zn453   1.929   .     S
O446   Zn456   1.939   .     S
O447   Zn454   1.921   .     S
O448   Zn455   1.934   .     S
O449   Zn456   1.929   .     S
O450   Zn453   1.920   .     S
O451   Zn454   1.943   .     S
O452   Zn455   1.930   .     S
C457   O525    1.268   .     A
C457   C463    1.436   .     S
C457   O523    1.268   .     A
C458   C472    1.411   .     A
C458   C481    1.493   .     S
C458   C484    1.419   .     A
C459   O517    1.384   .     S
C459   C471    1.390   .     A
C459   C472    1.406   .     A
C460   O526    1.284   .     A
C460   C462    1.454   .     S
C460   O524    1.288   .     A
C461   C473    1.404   .     A
C461   C483    1.420   .     A
C461   C470    1.474   .     S
C462   C539    1.335   .     S
C462   H587    1.088   .     S
C463   C614    1.335   1_455 S
C463   H640    1.086   1_455 S
C464   C467    1.453   .     S
C464   C9      1.342   1_565 S
C464   H43     1.088   1_565 S
C465   C466    1.440   .     S
C466   O527    1.275   .     A
C466   O521    1.279   .     A
C467   O522    1.266   .     A
C467   O528    1.274   .     A
C468   C473    1.386   .     A
C468   H509    1.083   .     S
C468   C1163   1.388   .     S
C469   O515    1.274   .     A
C469   O513    1.270   .     A
C469   C472    1.450   .     S
C470   O514    1.282   .     A
C470   O516    1.283   .     A
C471   C1169   1.397   1_554 S
C471   H1190   1.084   1_554 S
C473   H507    1.083   .     S
C474   C475    1.534   .     S
C474   H490    1.117   .     S
C474   O517    1.417   .     S
C474   H489    1.111   .     S
C475   H492    1.111   .     S
C475   H491    1.112   .     S
C475   C552    1.527   .     S
C476   H495    1.111   .     S
C476   H493    1.111   .     S
C476   C627    1.527   1_455 S
C476   H1178   1.111   1_554 S
C477   C478    1.537   .     S
C477   H497    1.113   .     S
C478   H500    1.111   .     S
C478   C480    1.526   .     S
C479   H508    1.078   .     S
C479   C1152   1.388   1_554 S
C479   C1166   1.415   1_554 S
C480   H501    1.110   .     S
C480   H502    1.111   .     S
C481   O519    1.223   .     D
C481   O520    1.399   .     S
C482   C483    1.422   .     A
C482   C1163   1.415   .     S
C482   C1168   1.426   .     S
C483   C487    1.411   .     A
C484   C1166   1.426   1_554 S
C484   C1169   1.419   1_554 S
C485   C486    1.391   .     A
C485   C1168   1.419   .     S
C485   C1155   1.397   .     S
C486   C487    1.384   .     A
C486   H505    1.084   .     S
C487   H510    1.079   .     S
H488   C539    1.086   .     S
H494   C1160   1.111   .     S
H496   C21     1.111   1_565 S
H498   C22     1.111   1_565 S
H503   C24     1.111   1_565 S
H504   O520    1.014   .     S
H506   C1155   1.084   .     S
H511   C614    1.088   1_455 S
O512   Zn532   1.925   .     S
O512   Zn531   1.941   .     S
O512   Zn530   1.941   .     S
O512   Zn529   1.969   .     S
O513   Zn530   1.940   .     S
O514   Zn532   1.951   .     S
O515   Zn531   1.939   .     S
O516   Zn529   1.929   .     S
O518   C21     1.417   1_565 S
O518   C9      1.395   1_565 S
O521   Zn529   1.929   .     S
O522   Zn532   1.939   .     S
O523   Zn530   1.921   .     S
O524   Zn531   1.934   .     S
O525   Zn532   1.929   .     S
O526   Zn529   1.920   .     S
O527   Zn530   1.943   .     S
O528   Zn531   1.930   .     S
C533   O601    1.268   .     A
C533   C539    1.436   .     S
C533   O599    1.268   .     A
C534   C548    1.411   .     A
C534   C557    1.493   .     S
C534   C560    1.419   .     A
C535   O593    1.384   .     S
C535   C547    1.390   .     A
C535   C548    1.406   .     A
C536   O602    1.284   .     A
C536   C538    1.454   .     S
C536   O600    1.288   .     A
C537   C549    1.404   .     A
C537   C559    1.420   .     A
C537   C546    1.474   .     S
C538   C615    1.335   .     S
C538   H663    1.088   .     S
C540   C543    1.453   .     S
C540   C85     1.342   1_565 S
C540   H119    1.088   1_565 S
C541   C542    1.440   .     S
C542   O603    1.275   .     A
C542   O597    1.279   .     A
C543   O598    1.266   .     A
C543   O604    1.274   .     A
C544   C549    1.386   .     A
C544   H585    1.083   .     S
C544   C1239   1.388   .     S
C545   O591    1.274   .     A
C545   O589    1.270   .     A
C545   C548    1.450   .     S
C546   O590    1.282   .     A
C546   O592    1.283   .     A
C547   C1245   1.397   1_554 S
C547   H1266   1.084   1_554 S
C549   H583    1.083   .     S
C550   C551    1.534   .     S
C550   H566    1.117   .     S
C550   O593    1.417   .     S
C550   H565    1.111   .     S
C551   H568    1.111   .     S
C551   H567    1.112   .     S
C551   C628    1.527   .     S
C552   H571    1.111   .     S
C552   H569    1.111   .     S
C552   H1254   1.111   1_554 S
C553   C554    1.537   .     S
C553   H573    1.113   .     S
C554   H576    1.111   .     S
C554   C556    1.526   .     S
C555   H584    1.078   .     S
C555   C1228   1.388   1_554 S
C555   C1242   1.415   1_554 S
C556   H577    1.110   .     S
C556   H578    1.111   .     S
C557   O595    1.223   .     D
C557   O596    1.399   .     S
C558   C559    1.422   .     A
C558   C1239   1.415   .     S
C558   C1244   1.426   .     S
C559   C563    1.411   .     A
C560   C1242   1.426   1_554 S
C560   C1245   1.419   1_554 S
C561   C562    1.391   .     A
C561   C1244   1.419   .     S
C561   C1231   1.397   .     S
C562   C563    1.384   .     A
C562   H581    1.084   .     S
C563   H586    1.079   .     S
H564   C615    1.086   .     S
H570   C1236   1.111   .     S
H572   C97     1.111   1_565 S
H574   C98     1.111   1_565 S
H579   C100    1.111   1_565 S
H580   O596    1.014   .     S
H582   C1231   1.084   .     S
O588   Zn608   1.925   .     S
O588   Zn607   1.941   .     S
O588   Zn606   1.941   .     S
O588   Zn605   1.969   .     S
O589   Zn606   1.940   .     S
O590   Zn608   1.951   .     S
O591   Zn607   1.939   .     S
O592   Zn605   1.929   .     S
O594   C97     1.417   1_565 S
O594   C85     1.395   1_565 S
O597   Zn605   1.929   .     S
O598   Zn608   1.939   .     S
O599   Zn606   1.921   .     S
O600   Zn607   1.934   .     S
O601   Zn608   1.929   .     S
O602   Zn605   1.920   .     S
O603   Zn606   1.943   .     S
O604   Zn607   1.930   .     S
C609   O677    1.268   .     A
C609   C615    1.436   .     S
C609   O675    1.268   .     A
C610   C624    1.411   .     A
C610   C633    1.493   .     S
C610   C636    1.419   .     A
C611   O669    1.384   .     S
C611   C623    1.390   .     A
C611   C624    1.406   .     A
C612   O678    1.284   .     A
C612   C614    1.454   .     S
C612   O676    1.288   .     A
C613   C625    1.404   .     A
C613   C635    1.420   .     A
C613   C622    1.474   .     S
C614   C463    1.335   1_655 S
C614   H511    1.088   1_655 S
C616   C619    1.453   .     S
C616   C161    1.342   1_565 S
C616   H195    1.088   1_565 S
C617   C618    1.440   .     S
C618   O679    1.275   .     A
C618   O673    1.279   .     A
C619   O674    1.266   .     A
C619   O680    1.274   .     A
C620   C625    1.386   .     A
C620   H661    1.083   .     S
C620   C1315   1.388   .     S
C621   O667    1.274   .     A
C621   O665    1.270   .     A
C621   C624    1.450   .     S
C622   O666    1.282   .     A
C622   O668    1.283   .     A
C623   C1321   1.397   1_554 S
C623   H1342   1.084   1_554 S
C625   H659    1.083   .     S
C626   C627    1.534   .     S
C626   H642    1.117   .     S
C626   O669    1.417   .     S
C626   H641    1.111   .     S
C627   H644    1.111   .     S
C627   H643    1.112   .     S
C627   C476    1.527   1_655 S
C628   H647    1.111   .     S
C628   H645    1.111   .     S
C628   H1330   1.111   1_554 S
C629   C630    1.537   .     S
C629   H649    1.113   .     S
C630   H652    1.111   .     S
C630   C632    1.526   .     S
C631   H660    1.078   .     S
C631   C1304   1.388   1_554 S
C631   C1318   1.415   1_554 S
C632   H653    1.110   .     S
C632   H654    1.111   .     S
C633   O671    1.223   .     D
C633   O672    1.399   .     S
C634   C635    1.422   .     A
C634   C1315   1.415   .     S
C634   C1320   1.426   .     S
C635   C639    1.411   .     A
C636   C1318   1.426   1_554 S
C636   C1321   1.419   1_554 S
C637   C638    1.391   .     A
C637   C1320   1.419   .     S
C637   C1307   1.397   .     S
C638   C639    1.384   .     A
C638   H657    1.084   .     S
C639   H662    1.079   .     S
H640   C463    1.086   1_655 S
H646   C1312   1.111   .     S
H648   C173    1.111   1_565 S
H650   C174    1.111   1_565 S
H655   C176    1.111   1_565 S
H656   O672    1.014   .     S
H658   C1307   1.084   .     S
O664   Zn684   1.925   .     S
O664   Zn683   1.941   .     S
O664   Zn682   1.941   .     S
O664   Zn681   1.969   .     S
O665   Zn682   1.940   .     S
O666   Zn684   1.951   .     S
O667   Zn683   1.939   .     S
O668   Zn681   1.929   .     S
O670   C173    1.417   1_565 S
O670   C161    1.395   1_565 S
O673   Zn681   1.929   .     S
O674   Zn684   1.939   .     S
O675   Zn682   1.921   .     S
O676   Zn683   1.934   .     S
O677   Zn684   1.929   .     S
O678   Zn681   1.920   .     S
O679   Zn682   1.943   .     S
O680   Zn683   1.930   .     S
C685   O753    1.268   .     A
C685   C691    1.436   .     S
C685   O751    1.268   .     A
C686   C700    1.411   .     A
C686   C709    1.493   .     S
C686   C712    1.419   .     A
C687   O745    1.384   .     S
C687   C699    1.390   .     A
C687   C700    1.406   .     A
C688   O754    1.284   .     A
C688   C690    1.454   .     S
C688   O752    1.288   .     A
C689   C701    1.404   .     A
C689   C711    1.420   .     A
C689   C698    1.474   .     S
C690   C767    1.335   .     S
C690   H815    1.088   .     S
C691   C842    1.335   1_455 S
C691   H868    1.086   1_455 S
C692   C695    1.453   .     S
C692   C921    1.342   .     S
C692   H955    1.088   .     S
C693   C694    1.440   .     S
C693   C1148   1.342   1_545 S
C693   O1202   1.395   1_545 S
C694   O755    1.275   .     A
C694   O749    1.279   .     A
C695   O750    1.266   .     A
C695   O756    1.274   .     A
C696   C701    1.386   .     A
C696   H737    1.083   .     S
C696   C23     1.388   1_556 S
C697   O743    1.274   .     A
C697   O741    1.270   .     A
C697   C700    1.450   .     S
C698   O742    1.282   .     A
C698   O744    1.283   .     A
C701   H735    1.083   .     S
C702   C703    1.534   .     S
C702   H718    1.117   .     S
C702   O745    1.417   .     S
C702   H717    1.111   .     S
C703   H720    1.111   .     S
C703   H719    1.112   .     S
C703   C780    1.527   .     S
C704   H723    1.111   .     S
C704   H721    1.111   .     S
C704   C855    1.527   1_455 S
C705   C706    1.537   .     S
C705   H725    1.113   .     S
C705   H1180   1.111   1_545 S
C705   O1202   1.417   1_545 S
C706   H728    1.111   .     S
C706   C708    1.526   .     S
C706   H1182   1.111   1_545 S
C707   H736    1.078   .     S
C708   H729    1.110   .     S
C708   H730    1.111   .     S
C708   H1187   1.111   1_545 S
C709   O747    1.223   .     D
C709   O748    1.399   .     S
C710   C711    1.422   .     A
C710   C23     1.415   1_556 S
C710   C28     1.426   1_556 S
C711   C715    1.411   .     A
C713   C714    1.391   .     A
C713   C28     1.419   1_556 S
C713   C15     1.397   1_556 S
C714   C715    1.384   .     A
C714   H733    1.084   .     S
C715   H738    1.079   .     S
H716   C767    1.086   .     S
H722   C20     1.111   1_556 S
H724   C933    1.111   .     S
H726   C934    1.111   .     S
H727   C1148   1.088   1_545 S
H731   C936    1.111   .     S
H732   O748    1.014   .     S
H734   C15     1.084   1_556 S
H739   C842    1.088   1_455 S
O740   Zn760   1.925   .     S
O740   Zn759   1.941   .     S
O740   Zn758   1.941   .     S
O740   Zn757   1.969   .     S
O741   Zn758   1.940   .     S
O742   Zn760   1.951   .     S
O743   Zn759   1.939   .     S
O744   Zn757   1.929   .     S
O746   C933    1.417   .     S
O746   C921    1.395   .     S
O749   Zn757   1.929   .     S
O750   Zn760   1.939   .     S
O751   Zn758   1.921   .     S
O752   Zn759   1.934   .     S
O753   Zn760   1.929   .     S
O754   Zn757   1.920   .     S
O755   Zn758   1.943   .     S
O756   Zn759   1.930   .     S
C761   O829    1.268   .     A
C761   C767    1.436   .     S
C761   O827    1.268   .     A
C762   C776    1.411   .     A
C762   C785    1.493   .     S
C762   C788    1.419   .     A
C763   O821    1.384   .     S
C763   C775    1.390   .     A
C763   C776    1.406   .     A
C764   O830    1.284   .     A
C764   C766    1.454   .     S
C764   O828    1.288   .     A
C765   C777    1.404   .     A
C765   C787    1.420   .     A
C765   C774    1.474   .     S
C766   C843    1.335   .     S
C766   H891    1.088   .     S
C768   C771    1.453   .     S
C768   C997    1.342   .     S
C768   H1031   1.088   .     S
C769   C770    1.440   .     S
C769   C1224   1.342   1_545 S
C769   O1278   1.395   1_545 S
C770   O831    1.275   .     A
C770   O825    1.279   .     A
C771   O826    1.266   .     A
C771   O832    1.274   .     A
C772   C777    1.386   .     A
C772   H813    1.083   .     S
C772   C99     1.388   1_556 S
C773   O819    1.274   .     A
C773   O817    1.270   .     A
C773   C776    1.450   .     S
C774   O818    1.282   .     A
C774   O820    1.283   .     A
C777   H811    1.083   .     S
C778   C779    1.534   .     S
C778   H794    1.117   .     S
C778   O821    1.417   .     S
C778   H793    1.111   .     S
C779   H796    1.111   .     S
C779   H795    1.112   .     S
C779   C856    1.527   .     S
C780   H799    1.111   .     S
C780   H797    1.111   .     S
C781   C782    1.537   .     S
C781   H801    1.113   .     S
C781   H1256   1.111   1_545 S
C781   O1278   1.417   1_545 S
C782   H804    1.111   .     S
C782   C784    1.526   .     S
C782   H1258   1.111   1_545 S
C783   H812    1.078   .     S
C784   H805    1.110   .     S
C784   H806    1.111   .     S
C784   H1263   1.111   1_545 S
C785   O823    1.223   .     D
C785   O824    1.399   .     S
C786   C787    1.422   .     A
C786   C99     1.415   1_556 S
C786   C104    1.426   1_556 S
C787   C791    1.411   .     A
C789   C790    1.391   .     A
C789   C104    1.419   1_556 S
C789   C91     1.397   1_556 S
C790   C791    1.384   .     A
C790   H809    1.084   .     S
C791   H814    1.079   .     S
H792   C843    1.086   .     S
H798   C96     1.111   1_556 S
H800   C1009   1.111   .     S
H802   C1010   1.111   .     S
H803   C1224   1.088   1_545 S
H807   C1012   1.111   .     S
H808   O824    1.014   .     S
H810   C91     1.084   1_556 S
O816   Zn836   1.925   .     S
O816   Zn835   1.941   .     S
O816   Zn834   1.941   .     S
O816   Zn833   1.969   .     S
O817   Zn834   1.940   .     S
O818   Zn836   1.951   .     S
O819   Zn835   1.939   .     S
O820   Zn833   1.929   .     S
O822   C1009   1.417   .     S
O822   C997    1.395   .     S
O825   Zn833   1.929   .     S
O826   Zn836   1.939   .     S
O827   Zn834   1.921   .     S
O828   Zn835   1.934   .     S
O829   Zn836   1.929   .     S
O830   Zn833   1.920   .     S
O831   Zn834   1.943   .     S
O832   Zn835   1.930   .     S
C837   O905    1.268   .     A
C837   C843    1.436   .     S
C837   O903    1.268   .     A
C838   C852    1.411   .     A
C838   C861    1.493   .     S
C838   C864    1.419   .     A
C839   O897    1.384   .     S
C839   C851    1.390   .     A
C839   C852    1.406   .     A
C840   O906    1.284   .     A
C840   C842    1.454   .     S
C840   O904    1.288   .     A
C841   C853    1.404   .     A
C841   C863    1.420   .     A
C841   C850    1.474   .     S
C842   C691    1.335   1_655 S
C842   H739    1.088   1_655 S
C844   C847    1.453   .     S
C844   C1073   1.342   .     S
C844   H1107   1.088   .     S
C845   C846    1.440   .     S
C845   C1300   1.342   1_545 S
C845   O1354   1.395   1_545 S
C846   O907    1.275   .     A
C846   O901    1.279   .     A
C847   O902    1.266   .     A
C847   O908    1.274   .     A
C848   C853    1.386   .     A
C848   H889    1.083   .     S
C848   C175    1.388   1_556 S
C849   O895    1.274   .     A
C849   O893    1.270   .     A
C849   C852    1.450   .     S
C850   O894    1.282   .     A
C850   O896    1.283   .     A
C853   H887    1.083   .     S
C854   C855    1.534   .     S
C854   H870    1.117   .     S
C854   O897    1.417   .     S
C854   H869    1.111   .     S
C855   H872    1.111   .     S
C855   H871    1.112   .     S
C855   C704    1.527   1_655 S
C856   H875    1.111   .     S
C856   H873    1.111   .     S
C857   C858    1.537   .     S
C857   H877    1.113   .     S
C857   H1332   1.111   1_545 S
C857   O1354   1.417   1_545 S
C858   H880    1.111   .     S
C858   C860    1.526   .     S
C858   H1334   1.111   1_545 S
C859   H888    1.078   .     S
C860   H881    1.110   .     S
C860   H882    1.111   .     S
C860   H1339   1.111   1_545 S
C861   O899    1.223   .     D
C861   O900    1.399   .     S
C862   C863    1.422   .     A
C862   C175    1.415   1_556 S
C862   C180    1.426   1_556 S
C863   C867    1.411   .     A
C865   C866    1.391   .     A
C865   C180    1.419   1_556 S
C865   C167    1.397   1_556 S
C866   C867    1.384   .     A
C866   H885    1.084   .     S
C867   H890    1.079   .     S
H868   C691    1.086   1_655 S
H874   C172    1.111   1_556 S
H876   C1085   1.111   .     S
H878   C1086   1.111   .     S
H879   C1300   1.088   1_545 S
H883   C1088   1.111   .     S
H884   O900    1.014   .     S
H886   C167    1.084   1_556 S
O892   Zn912   1.925   .     S
O892   Zn911   1.941   .     S
O892   Zn910   1.941   .     S
O892   Zn909   1.969   .     S
O893   Zn910   1.940   .     S
O894   Zn912   1.951   .     S
O895   Zn911   1.939   .     S
O896   Zn909   1.929   .     S
O898   C1085   1.417   .     S
O898   C1073   1.395   .     S
O901   Zn909   1.929   .     S
O902   Zn912   1.939   .     S
O903   Zn910   1.921   .     S
O904   Zn911   1.934   .     S
O905   Zn912   1.929   .     S
O906   Zn909   1.920   .     S
O907   Zn910   1.943   .     S
O908   Zn911   1.930   .     S
C913   O981    1.268   .     A
C913   C919    1.436   .     S
C913   O979    1.268   .     A
C914   C928    1.411   .     A
C914   C937    1.493   .     S
C914   C940    1.419   .     A
C915   O973    1.384   .     S
C915   C927    1.390   .     A
C915   C928    1.406   .     A
C916   O982    1.284   .     A
C916   C918    1.454   .     S
C916   O980    1.288   .     A
C917   C929    1.404   .     A
C917   C939    1.420   .     A
C917   C926    1.474   .     S
C918   C995    1.335   .     S
C918   H1043   1.088   .     S
C919   C1070   1.335   1_455 S
C919   H1096   1.086   1_455 S
C920   C923    1.453   .     S
C920   C1149   1.342   .     S
C920   H1183   1.088   .     S
C921   C922    1.440   .     S
C922   O983    1.275   .     A
C922   O977    1.279   .     A
C923   O978    1.266   .     A
C923   O984    1.274   .     A
C924   C929    1.386   .     A
C924   H965    1.083   .     S
C924   C251    1.388   1_556 S
C925   O971    1.274   .     A
C925   O969    1.270   .     A
C925   C928    1.450   .     S
C926   O970    1.282   .     A
C926   O972    1.283   .     A
C929   H963    1.083   .     S
C930   C931    1.534   .     S
C930   H946    1.117   .     S
C930   O973    1.417   .     S
C930   H945    1.111   .     S
C931   H948    1.111   .     S
C931   H947    1.112   .     S
C931   C1008   1.527   .     S
C932   H951    1.111   .     S
C932   H949    1.111   .     S
C932   C1083   1.527   1_455 S
C933   C934    1.537   .     S
C933   H953    1.113   .     S
C934   H956    1.111   .     S
C934   C936    1.526   .     S
C935   H964    1.078   .     S
C936   H957    1.110   .     S
C936   H958    1.111   .     S
C937   O975    1.223   .     D
C937   O976    1.399   .     S
C938   C939    1.422   .     A
C938   C251    1.415   1_556 S
C938   C256    1.426   1_556 S
C939   C943    1.411   .     A
C941   C942    1.391   .     A
C941   C256    1.419   1_556 S
C941   C243    1.397   1_556 S
C942   C943    1.384   .     A
C942   H961    1.084   .     S
C943   H966    1.079   .     S
H944   C995    1.086   .     S
H950   C248    1.111   1_556 S
H952   C1161   1.111   .     S
H954   C1162   1.111   .     S
H959   C1164   1.111   .     S
H960   O976    1.014   .     S
H962   C243    1.084   1_556 S
H967   C1070   1.088   1_455 S
O968   Zn988   1.925   .     S
O968   Zn987   1.941   .     S
O968   Zn986   1.941   .     S
O968   Zn985   1.969   .     S
O969   Zn986   1.940   .     S
O970   Zn988   1.951   .     S
O971   Zn987   1.939   .     S
O972   Zn985   1.929   .     S
O974   C1161   1.417   .     S
O974   C1149   1.395   .     S
O977   Zn985   1.929   .     S
O978   Zn988   1.939   .     S
O979   Zn986   1.921   .     S
O980   Zn987   1.934   .     S
O981   Zn988   1.929   .     S
O982   Zn985   1.920   .     S
O983   Zn986   1.943   .     S
O984   Zn987   1.930   .     S
C989   O1057   1.268   .     A
C989   C995    1.436   .     S
C989   O1055   1.268   .     A
C990   C1004   1.411   .     A
C990   C1013   1.493   .     S
C990   C1016   1.419   .     A
C991   O1049   1.384   .     S
C991   C1003   1.390   .     A
C991   C1004   1.406   .     A
C992   O1058   1.284   .     A
C992   C994    1.454   .     S
C992   O1056   1.288   .     A
C993   C1005   1.404   .     A
C993   C1015   1.420   .     A
C993   C1002   1.474   .     S
C994   C1071   1.335   .     S
C994   H1119   1.088   .     S
C996   C999    1.453   .     S
C996   C1225   1.342   .     S
C996   H1259   1.088   .     S
C997   C998    1.440   .     S
C998   O1059   1.275   .     A
C998   O1053   1.279   .     A
C999   O1054   1.266   .     A
C999   O1060   1.274   .     A
C1000  C1005   1.386   .     A
C1000  H1041   1.083   .     S
C1000  C327    1.388   1_556 S
C1001  O1047   1.274   .     A
C1001  O1045   1.270   .     A
C1001  C1004   1.450   .     S
C1002  O1046   1.282   .     A
C1002  O1048   1.283   .     A
C1005  H1039   1.083   .     S
C1006  C1007   1.534   .     S
C1006  H1022   1.117   .     S
C1006  O1049   1.417   .     S
C1006  H1021   1.111   .     S
C1007  H1024   1.111   .     S
C1007  H1023   1.112   .     S
C1007  C1084   1.527   .     S
C1008  H1027   1.111   .     S
C1008  H1025   1.111   .     S
C1009  C1010   1.537   .     S
C1009  H1029   1.113   .     S
C1010  H1032   1.111   .     S
C1010  C1012   1.526   .     S
C1011  H1040   1.078   .     S
C1012  H1033   1.110   .     S
C1012  H1034   1.111   .     S
C1013  O1051   1.223   .     D
C1013  O1052   1.399   .     S
C1014  C1015   1.422   .     A
C1014  C327    1.415   1_556 S
C1014  C332    1.426   1_556 S
C1015  C1019   1.411   .     A
C1017  C1018   1.391   .     A
C1017  C332    1.419   1_556 S
C1017  C319    1.397   1_556 S
C1018  C1019   1.384   .     A
C1018  H1037   1.084   .     S
C1019  H1042   1.079   .     S
H1020  C1071   1.086   .     S
H1026  C324    1.111   1_556 S
H1028  C1237   1.111   .     S
H1030  C1238   1.111   .     S
H1035  C1240   1.111   .     S
H1036  O1052   1.014   .     S
H1038  C319    1.084   1_556 S
O1044  Zn1064  1.925   .     S
O1044  Zn1063  1.941   .     S
O1044  Zn1062  1.941   .     S
O1044  Zn1061  1.969   .     S
O1045  Zn1062  1.940   .     S
O1046  Zn1064  1.951   .     S
O1047  Zn1063  1.939   .     S
O1048  Zn1061  1.929   .     S
O1050  C1237   1.417   .     S
O1050  C1225   1.395   .     S
O1053  Zn1061  1.929   .     S
O1054  Zn1064  1.939   .     S
O1055  Zn1062  1.921   .     S
O1056  Zn1063  1.934   .     S
O1057  Zn1064  1.929   .     S
O1058  Zn1061  1.920   .     S
O1059  Zn1062  1.943   .     S
O1060  Zn1063  1.930   .     S
C1065  O1133   1.268   .     A
C1065  C1071   1.436   .     S
C1065  O1131   1.268   .     A
C1066  C1080   1.411   .     A
C1066  C1089   1.493   .     S
C1066  C1092   1.419   .     A
C1067  O1125   1.384   .     S
C1067  C1079   1.390   .     A
C1067  C1080   1.406   .     A
C1068  O1134   1.284   .     A
C1068  C1070   1.454   .     S
C1068  O1132   1.288   .     A
C1069  C1081   1.404   .     A
C1069  C1091   1.420   .     A
C1069  C1078   1.474   .     S
C1070  C919    1.335   1_655 S
C1070  H967    1.088   1_655 S
C1072  C1075   1.453   .     S
C1072  C1301   1.342   .     S
C1072  H1335   1.088   .     S
C1073  C1074   1.440   .     S
C1074  O1135   1.275   .     A
C1074  O1129   1.279   .     A
C1075  O1130   1.266   .     A
C1075  O1136   1.274   .     A
C1076  C1081   1.386   .     A
C1076  H1117   1.083   .     S
C1076  C403    1.388   1_556 S
C1077  O1123   1.274   .     A
C1077  O1121   1.270   .     A
C1077  C1080   1.450   .     S
C1078  O1122   1.282   .     A
C1078  O1124   1.283   .     A
C1081  H1115   1.083   .     S
C1082  C1083   1.534   .     S
C1082  H1098   1.117   .     S
C1082  O1125   1.417   .     S
C1082  H1097   1.111   .     S
C1083  H1100   1.111   .     S
C1083  H1099   1.112   .     S
C1083  C932    1.527   1_655 S
C1084  H1103   1.111   .     S
C1084  H1101   1.111   .     S
C1085  C1086   1.537   .     S
C1085  H1105   1.113   .     S
C1086  H1108   1.111   .     S
C1086  C1088   1.526   .     S
C1087  H1116   1.078   .     S
C1088  H1109   1.110   .     S
C1088  H1110   1.111   .     S
C1089  O1127   1.223   .     D
C1089  O1128   1.399   .     S
C1090  C1091   1.422   .     A
C1090  C403    1.415   1_556 S
C1090  C408    1.426   1_556 S
C1091  C1095   1.411   .     A
C1093  C1094   1.391   .     A
C1093  C408    1.419   1_556 S
C1093  C395    1.397   1_556 S
C1094  C1095   1.384   .     A
C1094  H1113   1.084   .     S
C1095  H1118   1.079   .     S
H1096  C919    1.086   1_655 S
H1102  C400    1.111   1_556 S
H1104  C1313   1.111   .     S
H1106  C1314   1.111   .     S
H1111  C1316   1.111   .     S
H1112  O1128   1.014   .     S
H1114  C395    1.084   1_556 S
O1120  Zn1140  1.925   .     S
O1120  Zn1139  1.941   .     S
O1120  Zn1138  1.941   .     S
O1120  Zn1137  1.969   .     S
O1121  Zn1138  1.940   .     S
O1122  Zn1140  1.951   .     S
O1123  Zn1139  1.939   .     S
O1124  Zn1137  1.929   .     S
O1126  C1313   1.417   .     S
O1126  C1301   1.395   .     S
O1129  Zn1137  1.929   .     S
O1130  Zn1140  1.939   .     S
O1131  Zn1138  1.921   .     S
O1132  Zn1139  1.934   .     S
O1133  Zn1140  1.929   .     S
O1134  Zn1137  1.920   .     S
O1135  Zn1138  1.943   .     S
O1136  Zn1139  1.930   .     S
C1141  O1209   1.268   .     A
C1141  C1147   1.436   .     S
C1141  O1207   1.268   .     A
C1142  C1156   1.411   .     A
C1142  C1165   1.493   .     S
C1142  C1168   1.419   .     A
C1143  O1201   1.384   .     S
C1143  C1155   1.390   .     A
C1143  C1156   1.406   .     A
C1144  O1210   1.284   .     A
C1144  C1146   1.454   .     S
C1144  O1208   1.288   .     A
C1145  C1157   1.404   .     A
C1145  C1167   1.420   .     A
C1145  C1154   1.474   .     S
C1146  C1223   1.335   .     S
C1146  H1271   1.088   .     S
C1147  C1298   1.335   1_455 S
C1147  H1324   1.086   1_455 S
C1148  C1151   1.453   .     S
C1148  C693    1.342   1_565 S
C1148  H727    1.088   1_565 S
C1149  C1150   1.440   .     S
C1150  O1211   1.275   .     A
C1150  O1205   1.279   .     A
C1151  O1206   1.266   .     A
C1151  O1212   1.274   .     A
C1152  C1157   1.386   .     A
C1152  H1193   1.083   .     S
C1152  C479    1.388   1_556 S
C1153  O1199   1.274   .     A
C1153  O1197   1.270   .     A
C1153  C1156   1.450   .     S
C1154  O1198   1.282   .     A
C1154  O1200   1.283   .     A
C1157  H1191   1.083   .     S
C1158  C1159   1.534   .     S
C1158  H1174   1.117   .     S
C1158  O1201   1.417   .     S
C1158  H1173   1.111   .     S
C1159  H1176   1.111   .     S
C1159  H1175   1.112   .     S
C1159  C1236   1.527   .     S
C1160  H1179   1.111   .     S
C1160  H1177   1.111   .     S
C1160  C1311   1.527   1_455 S
C1161  C1162   1.537   .     S
C1161  H1181   1.113   .     S
C1162  H1184   1.111   .     S
C1162  C1164   1.526   .     S
C1163  H1192   1.078   .     S
C1164  H1185   1.110   .     S
C1164  H1186   1.111   .     S
C1165  O1203   1.223   .     D
C1165  O1204   1.399   .     S
C1166  C1167   1.422   .     A
C1166  C479    1.415   1_556 S
C1166  C484    1.426   1_556 S
C1167  C1171   1.411   .     A
C1169  C1170   1.391   .     A
C1169  C484    1.419   1_556 S
C1169  C471    1.397   1_556 S
C1170  C1171   1.384   .     A
C1170  H1189   1.084   .     S
C1171  H1194   1.079   .     S
H1172  C1223   1.086   .     S
H1178  C476    1.111   1_556 S
H1180  C705    1.111   1_565 S
H1182  C706    1.111   1_565 S
H1187  C708    1.111   1_565 S
H1188  O1204   1.014   .     S
H1190  C471    1.084   1_556 S
H1195  C1298   1.088   1_455 S
O1196  Zn1216  1.925   .     S
O1196  Zn1215  1.941   .     S
O1196  Zn1214  1.941   .     S
O1196  Zn1213  1.969   .     S
O1197  Zn1214  1.940   .     S
O1198  Zn1216  1.951   .     S
O1199  Zn1215  1.939   .     S
O1200  Zn1213  1.929   .     S
O1202  C705    1.417   1_565 S
O1202  C693    1.395   1_565 S
O1205  Zn1213  1.929   .     S
O1206  Zn1216  1.939   .     S
O1207  Zn1214  1.921   .     S
O1208  Zn1215  1.934   .     S
O1209  Zn1216  1.929   .     S
O1210  Zn1213  1.920   .     S
O1211  Zn1214  1.943   .     S
O1212  Zn1215  1.930   .     S
C1217  O1285   1.268   .     A
C1217  C1223   1.436   .     S
C1217  O1283   1.268   .     A
C1218  C1232   1.411   .     A
C1218  C1241   1.493   .     S
C1218  C1244   1.419   .     A
C1219  O1277   1.384   .     S
C1219  C1231   1.390   .     A
C1219  C1232   1.406   .     A
C1220  O1286   1.284   .     A
C1220  C1222   1.454   .     S
C1220  O1284   1.288   .     A
C1221  C1233   1.404   .     A
C1221  C1243   1.420   .     A
C1221  C1230   1.474   .     S
C1222  C1299   1.335   .     S
C1222  H1347   1.088   .     S
C1224  C1227   1.453   .     S
C1224  C769    1.342   1_565 S
C1224  H803    1.088   1_565 S
C1225  C1226   1.440   .     S
C1226  O1287   1.275   .     A
C1226  O1281   1.279   .     A
C1227  O1282   1.266   .     A
C1227  O1288   1.274   .     A
C1228  C1233   1.386   .     A
C1228  H1269   1.083   .     S
C1228  C555    1.388   1_556 S
C1229  O1275   1.274   .     A
C1229  O1273   1.270   .     A
C1229  C1232   1.450   .     S
C1230  O1274   1.282   .     A
C1230  O1276   1.283   .     A
C1233  H1267   1.083   .     S
C1234  C1235   1.534   .     S
C1234  H1250   1.117   .     S
C1234  O1277   1.417   .     S
C1234  H1249   1.111   .     S
C1235  H1252   1.111   .     S
C1235  H1251   1.112   .     S
C1235  C1312   1.527   .     S
C1236  H1255   1.111   .     S
C1236  H1253   1.111   .     S
C1237  C1238   1.537   .     S
C1237  H1257   1.113   .     S
C1238  H1260   1.111   .     S
C1238  C1240   1.526   .     S
C1239  H1268   1.078   .     S
C1240  H1261   1.110   .     S
C1240  H1262   1.111   .     S
C1241  O1279   1.223   .     D
C1241  O1280   1.399   .     S
C1242  C1243   1.422   .     A
C1242  C555    1.415   1_556 S
C1242  C560    1.426   1_556 S
C1243  C1247   1.411   .     A
C1245  C1246   1.391   .     A
C1245  C560    1.419   1_556 S
C1245  C547    1.397   1_556 S
C1246  C1247   1.384   .     A
C1246  H1265   1.084   .     S
C1247  H1270   1.079   .     S
H1248  C1299   1.086   .     S
H1254  C552    1.111   1_556 S
H1256  C781    1.111   1_565 S
H1258  C782    1.111   1_565 S
H1263  C784    1.111   1_565 S
H1264  O1280   1.014   .     S
H1266  C547    1.084   1_556 S
O1272  Zn1292  1.925   .     S
O1272  Zn1291  1.941   .     S
O1272  Zn1290  1.941   .     S
O1272  Zn1289  1.969   .     S
O1273  Zn1290  1.940   .     S
O1274  Zn1292  1.951   .     S
O1275  Zn1291  1.939   .     S
O1276  Zn1289  1.929   .     S
O1278  C781    1.417   1_565 S
O1278  C769    1.395   1_565 S
O1281  Zn1289  1.929   .     S
O1282  Zn1292  1.939   .     S
O1283  Zn1290  1.921   .     S
O1284  Zn1291  1.934   .     S
O1285  Zn1292  1.929   .     S
O1286  Zn1289  1.920   .     S
O1287  Zn1290  1.943   .     S
O1288  Zn1291  1.930   .     S
C1293  O1361   1.268   .     A
C1293  C1299   1.436   .     S
C1293  O1359   1.268   .     A
C1294  C1308   1.411   .     A
C1294  C1317   1.493   .     S
C1294  C1320   1.419   .     A
C1295  O1353   1.384   .     S
C1295  C1307   1.390   .     A
C1295  C1308   1.406   .     A
C1296  O1362   1.284   .     A
C1296  C1298   1.454   .     S
C1296  O1360   1.288   .     A
C1297  C1309   1.404   .     A
C1297  C1319   1.420   .     A
C1297  C1306   1.474   .     S
C1298  C1147   1.335   1_655 S
C1298  H1195   1.088   1_655 S
C1300  C1303   1.453   .     S
C1300  C845    1.342   1_565 S
C1300  H879    1.088   1_565 S
C1301  C1302   1.440   .     S
C1302  O1363   1.275   .     A
C1302  O1357   1.279   .     A
C1303  O1358   1.266   .     A
C1303  O1364   1.274   .     A
C1304  C1309   1.386   .     A
C1304  H1345   1.083   .     S
C1304  C631    1.388   1_556 S
C1305  O1351   1.274   .     A
C1305  O1349   1.270   .     A
C1305  C1308   1.450   .     S
C1306  O1350   1.282   .     A
C1306  O1352   1.283   .     A
C1309  H1343   1.083   .     S
C1310  C1311   1.534   .     S
C1310  H1326   1.117   .     S
C1310  O1353   1.417   .     S
C1310  H1325   1.111   .     S
C1311  H1328   1.111   .     S
C1311  H1327   1.112   .     S
C1311  C1160   1.527   1_655 S
C1312  H1331   1.111   .     S
C1312  H1329   1.111   .     S
C1313  C1314   1.537   .     S
C1313  H1333   1.113   .     S
C1314  H1336   1.111   .     S
C1314  C1316   1.526   .     S
C1315  H1344   1.078   .     S
C1316  H1337   1.110   .     S
C1316  H1338   1.111   .     S
C1317  O1355   1.223   .     D
C1317  O1356   1.399   .     S
C1318  C1319   1.422   .     A
C1318  C631    1.415   1_556 S
C1318  C636    1.426   1_556 S
C1319  C1323   1.411   .     A
C1321  C1322   1.391   .     A
C1321  C636    1.419   1_556 S
C1321  C623    1.397   1_556 S
C1322  C1323   1.384   .     A
C1322  H1341   1.084   .     S
C1323  H1346   1.079   .     S
H1324  C1147   1.086   1_655 S
H1330  C628    1.111   1_556 S
H1332  C857    1.111   1_565 S
H1334  C858    1.111   1_565 S
H1339  C860    1.111   1_565 S
H1340  O1356   1.014   .     S
H1342  C623    1.084   1_556 S
O1348  Zn1368  1.925   .     S
O1348  Zn1367  1.941   .     S
O1348  Zn1366  1.941   .     S
O1348  Zn1365  1.969   .     S
O1349  Zn1366  1.940   .     S
O1350  Zn1368  1.951   .     S
O1351  Zn1367  1.939   .     S
O1352  Zn1365  1.929   .     S
O1354  C857    1.417   1_565 S
O1354  C845    1.395   1_565 S
O1357  Zn1365  1.929   .     S
O1358  Zn1368  1.939   .     S
O1359  Zn1366  1.921   .     S
O1360  Zn1367  1.934   .     S
O1361  Zn1368  1.929   .     S
O1362  Zn1365  1.920   .     S
O1363  Zn1366  1.943   .     S
O1364  Zn1367  1.930   .     S
