data_str_m1_o5_o17_pcu_sym.71
_audit_creation_date              2020-01-03
_audit_creation_method            'Materials Studio'
_symmetry_space_group_name_H-M    'P1'
_symmetry_Int_Tables_number       1
_symmetry_cell_setting            triclinic
loop_
_symmetry_equiv_pos_as_xyz
  x,y,z
_cell_length_a                    31.7688
_cell_length_b                    31.7883
_cell_length_c                    34.4776
_cell_angle_alpha                 90.0000
_cell_angle_beta                  90.0000
_cell_angle_gamma                 90.0450
loop_
_atom_site_label
_atom_site_type_symbol
_atom_site_fract_x
_atom_site_fract_y
_atom_site_fract_z
_atom_site_U_iso_or_equiv
_atom_site_adp_type
_atom_site_occupancy
Zn1    Zn    0.20053  -0.00000   0.21730   0.00000  Uiso   1.00
Zn2    Zn    0.29948  -0.00000   0.78270   0.00000  Uiso   1.00
Zn3    Zn    0.00000   0.20053   0.21730   0.00000  Uiso   1.00
Zn4    Zn    0.00000   0.29948   0.78270   0.00000  Uiso   1.00
Zn5    Zn    0.29948  -0.00000   0.21730   0.00000  Uiso   1.00
Zn6    Zn    0.20053  -0.00000   0.78270   0.00000  Uiso   1.00
Zn7    Zn    0.00000   0.29948   0.21730   0.00000  Uiso   1.00
Zn8    Zn    0.00000   0.20053   0.78270   0.00000  Uiso   1.00
Zn9    Zn    0.45053   0.25000   0.71730   0.00000  Uiso   1.00
Zn10   Zn    0.04948   0.25000   0.28270   0.00000  Uiso   1.00
Zn11   Zn    0.25000   0.45052   0.71730   0.00000  Uiso   1.00
Zn12   Zn    0.25000   0.04947   0.28270   0.00000  Uiso   1.00
Zn13   Zn    0.04948   0.25000   0.71730   0.00000  Uiso   1.00
Zn14   Zn    0.45053   0.25000   0.28270   0.00000  Uiso   1.00
Zn15   Zn    0.25000   0.04947   0.71730   0.00000  Uiso   1.00
Zn16   Zn    0.25000   0.45052   0.28270   0.00000  Uiso   1.00
O17    O     0.25000  -0.00000   0.25000   0.00000  Uiso   1.00
O18    O     0.25000  -0.00000   0.75000   0.00000  Uiso   1.00
O19    O     0.00000   0.25000   0.25000   0.00000  Uiso   1.00
O20    O     0.00000   0.25000   0.75000   0.00000  Uiso   1.00
O21    O     0.25000   0.46538   0.33749   0.00000  Uiso   1.00
O22    O     0.25000   0.03461   0.66251   0.00000  Uiso   1.00
O23    O     0.03462   0.25000   0.33749   0.00000  Uiso   1.00
O24    O     0.46539   0.25000   0.66251   0.00000  Uiso   1.00
O25    O     0.25000   0.03461   0.33749   0.00000  Uiso   1.00
O26    O     0.25000   0.46538   0.66251   0.00000  Uiso   1.00
O27    O     0.46539   0.25000   0.33749   0.00000  Uiso   1.00
O28    O     0.03462   0.25000   0.66251   0.00000  Uiso   1.00
O29    O     0.00000   0.21539   0.83749   0.00000  Uiso   1.00
O30    O     0.00000   0.28462   0.16251   0.00000  Uiso   1.00
O31    O     0.28462  -0.00000   0.83749   0.00000  Uiso   1.00
O32    O     0.21539  -0.00000   0.16251   0.00000  Uiso   1.00
O33    O     0.00000   0.28462   0.83749   0.00000  Uiso   1.00
O34    O     0.00000   0.21539   0.16251   0.00000  Uiso   1.00
O35    O     0.21539  -0.00000   0.83749   0.00000  Uiso   1.00
O36    O     0.28462  -0.00000   0.16251   0.00000  Uiso   1.00
O37    O     0.20127   0.08332   0.27298   0.00000  Uiso   1.00
O38    O     0.29874   0.41668   0.72702   0.00000  Uiso   1.00
O39    O     0.41668   0.20126   0.27298   0.00000  Uiso   1.00
O40    O     0.08332   0.29873   0.72702   0.00000  Uiso   1.00
O41    O     0.29874   0.41668   0.27298   0.00000  Uiso   1.00
O42    O     0.20127   0.08332   0.72702   0.00000  Uiso   1.00
O43    O     0.08332   0.29873   0.27298   0.00000  Uiso   1.00
O44    O     0.41668   0.20126   0.72702   0.00000  Uiso   1.00
O45    O     0.20127   0.41668   0.72702   0.00000  Uiso   1.00
O46    O     0.29874   0.08332   0.27298   0.00000  Uiso   1.00
O47    O     0.41668   0.29873   0.72702   0.00000  Uiso   1.00
O48    O     0.08332   0.20126   0.27298   0.00000  Uiso   1.00
O49    O     0.29874   0.08332   0.72702   0.00000  Uiso   1.00
O50    O     0.20127   0.41668   0.27298   0.00000  Uiso   1.00
O51    O     0.08332   0.20126   0.72702   0.00000  Uiso   1.00
O52    O     0.41668   0.29873   0.27298   0.00000  Uiso   1.00
O53    O     0.45127   0.33332   0.77298   0.00000  Uiso   1.00
O54    O     0.04874   0.16668   0.22702   0.00000  Uiso   1.00
O55    O     0.16668   0.45126   0.77298   0.00000  Uiso   1.00
O56    O     0.33332   0.04873   0.22702   0.00000  Uiso   1.00
O57    O     0.04874   0.16668   0.77298   0.00000  Uiso   1.00
O58    O     0.45127   0.33332   0.22702   0.00000  Uiso   1.00
O59    O     0.33332   0.04873   0.77298   0.00000  Uiso   1.00
O60    O     0.16668   0.45126   0.22702   0.00000  Uiso   1.00
O61    O     0.45127   0.16668   0.22702   0.00000  Uiso   1.00
O62    O     0.04874   0.33332   0.77298   0.00000  Uiso   1.00
O63    O     0.16668   0.04873   0.22702   0.00000  Uiso   1.00
O64    O     0.33332   0.45126   0.77298   0.00000  Uiso   1.00
O65    O     0.04874   0.33332   0.22702   0.00000  Uiso   1.00
O66    O     0.45127   0.16668   0.77298   0.00000  Uiso   1.00
O67    O     0.33332   0.45126   0.22702   0.00000  Uiso   1.00
O68    O     0.16668   0.04873   0.77298   0.00000  Uiso   1.00
C69    C     0.24995   0.00000   0.35591   0.00000  Uiso   1.00
C70    C     0.24995   0.00000   0.64409   0.00000  Uiso   1.00
C71    C     0.00002   0.25052   0.35606   0.00000  Uiso   1.00
C72    C     0.00002   0.25052   0.64394   0.00000  Uiso   1.00
C73    C     0.49998   0.25000   0.85591   0.00000  Uiso   1.00
C74    C     0.49998   0.25000   0.14410   0.00000  Uiso   1.00
C75    C     0.25000   0.00058   0.85603   0.00000  Uiso   1.00
C76    C     0.25000   0.00058   0.14397   0.00000  Uiso   1.00
C77    C     0.16997   0.08002   0.25000   0.00000  Uiso   1.00
C78    C     0.33003   0.41998   0.75001   0.00000  Uiso   1.00
C79    C     0.41998   0.16998   0.25000   0.00000  Uiso   1.00
C80    C     0.08002   0.33002   0.75000   0.00000  Uiso   1.00
C81    C     0.33003   0.41998   0.25000   0.00000  Uiso   1.00
C82    C     0.16997   0.08002   0.75000   0.00000  Uiso   1.00
C83    C     0.08002   0.33002   0.25000   0.00000  Uiso   1.00
C84    C     0.41998   0.16998   0.75000   0.00000  Uiso   1.00
C85    C     0.16998   0.41998   0.75000   0.00000  Uiso   1.00
C86    C     0.33002   0.08002   0.25000   0.00000  Uiso   1.00
C87    C     0.41997   0.33002   0.75000   0.00000  Uiso   1.00
C88    C     0.08003   0.16998   0.25000   0.00000  Uiso   1.00
C89    C     0.33002   0.08002   0.75000   0.00000  Uiso   1.00
C90    C     0.16998   0.41998   0.25000   0.00000  Uiso   1.00
C91    C     0.08003   0.16998   0.75000   0.00000  Uiso   1.00
C92    C     0.41997   0.33002   0.25000   0.00000  Uiso   1.00
C93    C     0.13833   0.38834   0.25000   0.00000  Uiso   1.00
C94    C     0.36167   0.11166   0.75001   0.00000  Uiso   1.00
C95    C     0.11167   0.13833   0.25001   0.00000  Uiso   1.00
C96    C     0.38833   0.36167   0.75000   0.00000  Uiso   1.00
C97    C     0.36167   0.11166   0.25000   0.00000  Uiso   1.00
C98    C     0.13833   0.38834   0.75001   0.00000  Uiso   1.00
C99    C     0.38833   0.36167   0.25000   0.00000  Uiso   1.00
C100   C     0.11167   0.13833   0.75000   0.00000  Uiso   1.00
C101   C     0.13833   0.11167   0.75001   0.00000  Uiso   1.00
C102   C     0.36167   0.38833   0.24999   0.00000  Uiso   1.00
C103   C     0.11167   0.36166   0.75000   0.00000  Uiso   1.00
C104   C     0.38833   0.13834   0.25001   0.00000  Uiso   1.00
C105   C     0.36167   0.38833   0.75001   0.00000  Uiso   1.00
C106   C     0.13833   0.11167   0.25000   0.00000  Uiso   1.00
C107   C     0.38833   0.13834   0.75000   0.00000  Uiso   1.00
C108   C     0.11167   0.36166   0.25001   0.00000  Uiso   1.00
C109   C     0.02028   0.28326   0.41938   0.00000  Uiso   1.00
C110   C     0.47446   0.22092   0.58144   0.00000  Uiso   1.00
C111   C     0.22240   0.47262   0.41852   0.00000  Uiso   1.00
C112   C     0.27625   0.02776   0.58124   0.00000  Uiso   1.00
C113   C     0.47446   0.22092   0.41856   0.00000  Uiso   1.00
C114   C     0.02028   0.28326   0.58062   0.00000  Uiso   1.00
C115   C     0.27625   0.02776   0.41876   0.00000  Uiso   1.00
C116   C     0.22240   0.47262   0.58148   0.00000  Uiso   1.00
C117   C     0.26666   0.03512   0.91925   0.00000  Uiso   1.00
C118   C     0.22784   0.46824   0.08155   0.00000  Uiso   1.00
C119   C     0.47228   0.22289   0.91854   0.00000  Uiso   1.00
C120   C     0.02674   0.27744   0.08128   0.00000  Uiso   1.00
C121   C     0.22784   0.46824   0.91845   0.00000  Uiso   1.00
C122   C     0.26666   0.03512   0.08075   0.00000  Uiso   1.00
C123   C     0.02674   0.27744   0.91872   0.00000  Uiso   1.00
C124   C     0.47228   0.22289   0.08146   0.00000  Uiso   1.00
C125   C     0.49928   0.25102   0.39882   0.00000  Uiso   1.00
C126   C     0.49928   0.25102   0.60118   0.00000  Uiso   1.00
C127   C     0.24960   0.00005   0.39838   0.00000  Uiso   1.00
C128   C     0.24960   0.00005   0.60162   0.00000  Uiso   1.00
C129   C     0.24926   0.00082   0.89875   0.00000  Uiso   1.00
C130   C     0.24926   0.00082   0.10125   0.00000  Uiso   1.00
C131   C     0.49972   0.25005   0.89838   0.00000  Uiso   1.00
C132   C     0.49972   0.25005   0.10162   0.00000  Uiso   1.00
C133   C     0.46716   0.22550   0.45897   0.00000  Uiso   1.00
C134   C     0.01162   0.28885   0.54070   0.00000  Uiso   1.00
C135   C     0.27067   0.03233   0.45917   0.00000  Uiso   1.00
C136   C     0.22724   0.46823   0.54093   0.00000  Uiso   1.00
C137   C     0.01162   0.28884   0.45930   0.00000  Uiso   1.00
C138   C     0.46716   0.22550   0.54103   0.00000  Uiso   1.00
C139   C     0.22724   0.46823   0.45907   0.00000  Uiso   1.00
C140   C     0.27067   0.03233   0.54083   0.00000  Uiso   1.00
C141   C     0.22028   0.47188   0.95893   0.00000  Uiso   1.00
C142   C     0.25776   0.03961   0.04074   0.00000  Uiso   1.00
C143   C     0.02132   0.28204   0.95915   0.00000  Uiso   1.00
C144   C     0.47715   0.21843   0.04092   0.00000  Uiso   1.00
C145   C     0.25776   0.03961   0.95926   0.00000  Uiso   1.00
C146   C     0.22028   0.47188   0.04107   0.00000  Uiso   1.00
C147   C     0.47715   0.21843   0.95908   0.00000  Uiso   1.00
C148   C     0.02132   0.28204   0.04085   0.00000  Uiso   1.00
C149   C     0.48907   0.25728   0.47949   0.00000  Uiso   1.00
C150   C     0.48907   0.25728   0.52051   0.00000  Uiso   1.00
C151   C     0.24894   0.00026   0.47956   0.00000  Uiso   1.00
C152   C     0.24894   0.00026   0.52044   0.00000  Uiso   1.00
C153   C     0.23878   0.00577   0.97948   0.00000  Uiso   1.00
C154   C     0.23878   0.00577   0.02053   0.00000  Uiso   1.00
C155   C     0.49923   0.25022   0.97956   0.00000  Uiso   1.00
C156   C     0.49923   0.25022   0.02044   0.00000  Uiso   1.00
C157   C     0.43700   0.20129   0.47960   0.00000  Uiso   1.00
C158   C     0.02196   0.32616   0.52035   0.00000  Uiso   1.00
C159   C     0.28481   0.06824   0.47967   0.00000  Uiso   1.00
C160   C     0.21236   0.43262   0.52035   0.00000  Uiso   1.00
C161   C     0.02196   0.32616   0.47965   0.00000  Uiso   1.00
C162   C     0.43700   0.20129   0.52040   0.00000  Uiso   1.00
C163   C     0.21236   0.43262   0.47965   0.00000  Uiso   1.00
C164   C     0.28481   0.06824   0.52033   0.00000  Uiso   1.00
C165   C     0.19291   0.44457   0.97960   0.00000  Uiso   1.00
C166   C     0.26415   0.07778   0.02036   0.00000  Uiso   1.00
C167   C     0.03596   0.31775   0.97967   0.00000  Uiso   1.00
C168   C     0.46194   0.18297   0.02035   0.00000  Uiso   1.00
C169   C     0.26415   0.07778   0.97965   0.00000  Uiso   1.00
C170   C     0.19291   0.44457   0.02040   0.00000  Uiso   1.00
C171   C     0.46194   0.18297   0.97966   0.00000  Uiso   1.00
C172   C     0.03596   0.31775   0.02033   0.00000  Uiso   1.00
C173   C     0.05570   0.30718   0.39967   0.00000  Uiso   1.00
H174   H     0.07739   0.28495   0.38507   0.00000  Uiso   1.00
H175   H     0.04280   0.32976   0.37817   0.00000  Uiso   1.00
H176   H     0.07646   0.32369   0.42050   0.00000  Uiso   1.00
C177   C     0.46304   0.18061   0.60266   0.00000  Uiso   1.00
H178   H     0.48679   0.17269   0.62513   0.00000  Uiso   1.00
H179   H     0.43194   0.18393   0.61701   0.00000  Uiso   1.00
H180   H     0.46321   0.15322   0.58271   0.00000  Uiso   1.00
C181   C     0.18535   0.45317   0.39727   0.00000  Uiso   1.00
H182   H     0.17215   0.47574   0.37592   0.00000  Uiso   1.00
H183   H     0.19532   0.42426   0.38174   0.00000  Uiso   1.00
H184   H     0.15905   0.44594   0.41739   0.00000  Uiso   1.00
C185   C     0.31348   0.04750   0.60199   0.00000  Uiso   1.00
H186   H     0.32748   0.02483   0.62283   0.00000  Uiso   1.00
H187   H     0.33920   0.05546   0.58147   0.00000  Uiso   1.00
H188   H     0.30344   0.07606   0.61802   0.00000  Uiso   1.00
C189   C     0.46304   0.18061   0.39734   0.00000  Uiso   1.00
H190   H     0.48679   0.17269   0.37487   0.00000  Uiso   1.00
H191   H     0.46321   0.15322   0.41729   0.00000  Uiso   1.00
H192   H     0.43194   0.18393   0.38299   0.00000  Uiso   1.00
C193   C     0.05570   0.30718   0.60033   0.00000  Uiso   1.00
H194   H     0.07739   0.28495   0.61493   0.00000  Uiso   1.00
H195   H     0.07646   0.32369   0.57950   0.00000  Uiso   1.00
H196   H     0.04280   0.32976   0.62183   0.00000  Uiso   1.00
C197   C     0.31348   0.04750   0.39801   0.00000  Uiso   1.00
H198   H     0.30344   0.07606   0.38198   0.00000  Uiso   1.00
H199   H     0.33920   0.05546   0.41853   0.00000  Uiso   1.00
H200   H     0.32747   0.02483   0.37717   0.00000  Uiso   1.00
C201   C     0.18535   0.45317   0.60273   0.00000  Uiso   1.00
H202   H     0.15905   0.44594   0.58261   0.00000  Uiso   1.00
H203   H     0.19532   0.42426   0.61826   0.00000  Uiso   1.00
H204   H     0.17215   0.47574   0.62409   0.00000  Uiso   1.00
C205   C     0.29882   0.06297   0.89917   0.00000  Uiso   1.00
H206   H     0.32219   0.04348   0.88348   0.00000  Uiso   1.00
H207   H     0.28296   0.08452   0.87846   0.00000  Uiso   1.00
H208   H     0.31835   0.08105   0.91990   0.00000  Uiso   1.00
C209   C     0.22035   0.42719   0.10304   0.00000  Uiso   1.00
H210   H     0.24455   0.42190   0.12576   0.00000  Uiso   1.00
H211   H     0.18894   0.42752   0.11715   0.00000  Uiso   1.00
H212   H     0.22350   0.39978   0.08333   0.00000  Uiso   1.00
C213   C     0.43503   0.20381   0.89733   0.00000  Uiso   1.00
H214   H     0.42199   0.22654   0.87602   0.00000  Uiso   1.00
H215   H     0.44470   0.17484   0.88174   0.00000  Uiso   1.00
H216   H     0.40869   0.19679   0.91747   0.00000  Uiso   1.00
C217   C     0.06411   0.29677   0.10213   0.00000  Uiso   1.00
H218   H     0.07777   0.27397   0.12304   0.00000  Uiso   1.00
H219   H     0.09001   0.30438   0.08169   0.00000  Uiso   1.00
H220   H     0.05435   0.32546   0.11811   0.00000  Uiso   1.00
C221   C     0.22035   0.42719   0.89696   0.00000  Uiso   1.00
H222   H     0.24455   0.42190   0.87424   0.00000  Uiso   1.00
H223   H     0.22350   0.39978   0.91667   0.00000  Uiso   1.00
H224   H     0.18894   0.42752   0.88285   0.00000  Uiso   1.00
C225   C     0.29882   0.06297   0.10084   0.00000  Uiso   1.00
H226   H     0.32219   0.04348   0.11652   0.00000  Uiso   1.00
H227   H     0.31835   0.08105   0.08010   0.00000  Uiso   1.00
H228   H     0.28296   0.08452   0.12154   0.00000  Uiso   1.00
C229   C     0.06411   0.29677   0.89787   0.00000  Uiso   1.00
H230   H     0.09001   0.30438   0.91831   0.00000  Uiso   1.00
H231   H     0.07777   0.27397   0.87696   0.00000  Uiso   1.00
H232   H     0.05435   0.32546   0.88190   0.00000  Uiso   1.00
C233   C     0.43502   0.20381   0.10267   0.00000  Uiso   1.00
H234   H     0.44470   0.17484   0.11826   0.00000  Uiso   1.00
H235   H     0.42199   0.22654   0.12398   0.00000  Uiso   1.00
H236   H     0.40869   0.19680   0.08253   0.00000  Uiso   1.00
Cl237  Cl    0.39384   0.17707   0.45566   0.00000  Uiso   1.00
Cl238  Cl    0.02563   0.37522   0.54476   0.00000  Uiso   1.00
Cl239  Cl    0.29517   0.11640   0.45544   0.00000  Uiso   1.00
Cl240  Cl    0.20074   0.38465   0.54448   0.00000  Uiso   1.00
Cl241  Cl    0.02563   0.37522   0.45524   0.00000  Uiso   1.00
Cl242  Cl    0.39384   0.17707   0.54434   0.00000  Uiso   1.00
Cl243  Cl    0.20074   0.38465   0.45552   0.00000  Uiso   1.00
Cl244  Cl    0.29517   0.11640   0.54456   0.00000  Uiso   1.00
Cl245  Cl    0.15255   0.41583   0.95571   0.00000  Uiso   1.00
Cl246  Cl    0.26265   0.12700   0.04470   0.00000  Uiso   1.00
Cl247  Cl    0.04702   0.36578   0.95545   0.00000  Uiso   1.00
Cl248  Cl    0.44989   0.13510   0.04448   0.00000  Uiso   1.00
Cl249  Cl    0.26265   0.12700   0.95530   0.00000  Uiso   1.00
Cl250  Cl    0.15255   0.41583   0.04429   0.00000  Uiso   1.00
Cl251  Cl    0.44989   0.13510   0.95552   0.00000  Uiso   1.00
Cl252  Cl    0.04702   0.36578   0.04455   0.00000  Uiso   1.00
Zn253  Zn    0.70053  -0.00000   0.21730   0.00000  Uiso   1.00
Zn254  Zn    0.79948  -0.00000   0.78270   0.00000  Uiso   1.00
Zn255  Zn    0.50000   0.20053   0.21730   0.00000  Uiso   1.00
Zn256  Zn    0.50000   0.29948   0.78270   0.00000  Uiso   1.00
Zn257  Zn    0.79948  -0.00000   0.21730   0.00000  Uiso   1.00
Zn258  Zn    0.70053  -0.00000   0.78270   0.00000  Uiso   1.00
Zn259  Zn    0.50000   0.29948   0.21730   0.00000  Uiso   1.00
Zn260  Zn    0.50000   0.20053   0.78270   0.00000  Uiso   1.00
Zn261  Zn    0.95053   0.25000   0.71730   0.00000  Uiso   1.00
Zn262  Zn    0.54948   0.25000   0.28270   0.00000  Uiso   1.00
Zn263  Zn    0.75000   0.45052   0.71730   0.00000  Uiso   1.00
Zn264  Zn    0.75000   0.04947   0.28270   0.00000  Uiso   1.00
Zn265  Zn    0.54948   0.25000   0.71730   0.00000  Uiso   1.00
Zn266  Zn    0.95053   0.25000   0.28270   0.00000  Uiso   1.00
Zn267  Zn    0.75000   0.04947   0.71730   0.00000  Uiso   1.00
Zn268  Zn    0.75000   0.45052   0.28270   0.00000  Uiso   1.00
O269   O     0.75000  -0.00000   0.25000   0.00000  Uiso   1.00
O270   O     0.75000  -0.00000   0.75000   0.00000  Uiso   1.00
O271   O     0.50000   0.25000   0.25000   0.00000  Uiso   1.00
O272   O     0.50000   0.25000   0.75000   0.00000  Uiso   1.00
O273   O     0.75000   0.46538   0.33749   0.00000  Uiso   1.00
O274   O     0.75000   0.03461   0.66251   0.00000  Uiso   1.00
O275   O     0.53462   0.25000   0.33749   0.00000  Uiso   1.00
O276   O     0.96539   0.25000   0.66251   0.00000  Uiso   1.00
O277   O     0.75000   0.03461   0.33749   0.00000  Uiso   1.00
O278   O     0.75000   0.46538   0.66251   0.00000  Uiso   1.00
O279   O     0.96539   0.25000   0.33749   0.00000  Uiso   1.00
O280   O     0.53462   0.25000   0.66251   0.00000  Uiso   1.00
O281   O     0.50000   0.21539   0.83749   0.00000  Uiso   1.00
O282   O     0.50000   0.28462   0.16251   0.00000  Uiso   1.00
O283   O     0.78462  -0.00000   0.83749   0.00000  Uiso   1.00
O284   O     0.71539  -0.00000   0.16251   0.00000  Uiso   1.00
O285   O     0.50000   0.28462   0.83749   0.00000  Uiso   1.00
O286   O     0.50000   0.21539   0.16251   0.00000  Uiso   1.00
O287   O     0.71539  -0.00000   0.83749   0.00000  Uiso   1.00
O288   O     0.78462  -0.00000   0.16251   0.00000  Uiso   1.00
O289   O     0.70127   0.08332   0.27298   0.00000  Uiso   1.00
O290   O     0.79874   0.41668   0.72702   0.00000  Uiso   1.00
O291   O     0.91668   0.20126   0.27298   0.00000  Uiso   1.00
O292   O     0.58332   0.29873   0.72702   0.00000  Uiso   1.00
O293   O     0.79874   0.41668   0.27298   0.00000  Uiso   1.00
O294   O     0.70127   0.08332   0.72702   0.00000  Uiso   1.00
O295   O     0.58332   0.29873   0.27298   0.00000  Uiso   1.00
O296   O     0.91668   0.20126   0.72702   0.00000  Uiso   1.00
O297   O     0.70127   0.41668   0.72702   0.00000  Uiso   1.00
O298   O     0.79874   0.08332   0.27298   0.00000  Uiso   1.00
O299   O     0.91668   0.29873   0.72702   0.00000  Uiso   1.00
O300   O     0.58332   0.20126   0.27298   0.00000  Uiso   1.00
O301   O     0.79874   0.08332   0.72702   0.00000  Uiso   1.00
O302   O     0.70127   0.41668   0.27298   0.00000  Uiso   1.00
O303   O     0.58332   0.20126   0.72702   0.00000  Uiso   1.00
O304   O     0.91668   0.29873   0.27298   0.00000  Uiso   1.00
O305   O     0.95127   0.33332   0.77298   0.00000  Uiso   1.00
O306   O     0.54874   0.16668   0.22702   0.00000  Uiso   1.00
O307   O     0.66668   0.45126   0.77298   0.00000  Uiso   1.00
O308   O     0.83332   0.04873   0.22702   0.00000  Uiso   1.00
O309   O     0.54874   0.16668   0.77298   0.00000  Uiso   1.00
O310   O     0.95127   0.33332   0.22702   0.00000  Uiso   1.00
O311   O     0.83332   0.04873   0.77298   0.00000  Uiso   1.00
O312   O     0.66668   0.45126   0.22702   0.00000  Uiso   1.00
O313   O     0.95127   0.16668   0.22702   0.00000  Uiso   1.00
O314   O     0.54874   0.33332   0.77298   0.00000  Uiso   1.00
O315   O     0.66668   0.04873   0.22702   0.00000  Uiso   1.00
O316   O     0.83332   0.45126   0.77298   0.00000  Uiso   1.00
O317   O     0.54874   0.33332   0.22702   0.00000  Uiso   1.00
O318   O     0.95127   0.16668   0.77298   0.00000  Uiso   1.00
O319   O     0.83332   0.45126   0.22702   0.00000  Uiso   1.00
O320   O     0.66668   0.04873   0.77298   0.00000  Uiso   1.00
C321   C     0.74995   0.00000   0.35591   0.00000  Uiso   1.00
C322   C     0.74995   0.00000   0.64409   0.00000  Uiso   1.00
C323   C     0.50002   0.25052   0.35606   0.00000  Uiso   1.00
C324   C     0.50002   0.25052   0.64394   0.00000  Uiso   1.00
C325   C     0.99998   0.25000   0.85591   0.00000  Uiso   1.00
C326   C     0.99998   0.25000   0.14410   0.00000  Uiso   1.00
C327   C     0.75000   0.00058   0.85603   0.00000  Uiso   1.00
C328   C     0.75000   0.00058   0.14397   0.00000  Uiso   1.00
C329   C     0.66997   0.08002   0.25000   0.00000  Uiso   1.00
C330   C     0.83003   0.41998   0.75001   0.00000  Uiso   1.00
C331   C     0.91998   0.16998   0.25000   0.00000  Uiso   1.00
C332   C     0.58002   0.33002   0.75000   0.00000  Uiso   1.00
C333   C     0.83003   0.41998   0.25000   0.00000  Uiso   1.00
C334   C     0.66997   0.08002   0.75000   0.00000  Uiso   1.00
C335   C     0.58002   0.33002   0.25000   0.00000  Uiso   1.00
C336   C     0.91998   0.16998   0.75000   0.00000  Uiso   1.00
C337   C     0.66998   0.41998   0.75000   0.00000  Uiso   1.00
C338   C     0.83002   0.08002   0.25000   0.00000  Uiso   1.00
C339   C     0.91997   0.33002   0.75000   0.00000  Uiso   1.00
C340   C     0.58003   0.16998   0.25000   0.00000  Uiso   1.00
C341   C     0.83002   0.08002   0.75000   0.00000  Uiso   1.00
C342   C     0.66998   0.41998   0.25000   0.00000  Uiso   1.00
C343   C     0.58003   0.16998   0.75000   0.00000  Uiso   1.00
C344   C     0.91997   0.33002   0.25000   0.00000  Uiso   1.00
C345   C     0.63833   0.38834   0.25000   0.00000  Uiso   1.00
C346   C     0.86167   0.11166   0.75001   0.00000  Uiso   1.00
C347   C     0.61167   0.13833   0.25001   0.00000  Uiso   1.00
C348   C     0.88833   0.36167   0.75000   0.00000  Uiso   1.00
C349   C     0.86167   0.11166   0.25000   0.00000  Uiso   1.00
C350   C     0.63833   0.38834   0.75001   0.00000  Uiso   1.00
C351   C     0.88833   0.36167   0.25000   0.00000  Uiso   1.00
C352   C     0.61167   0.13833   0.75000   0.00000  Uiso   1.00
C353   C     0.63833   0.11167   0.75001   0.00000  Uiso   1.00
C354   C     0.86167   0.38833   0.24999   0.00000  Uiso   1.00
C355   C     0.61167   0.36166   0.75000   0.00000  Uiso   1.00
C356   C     0.88833   0.13834   0.25001   0.00000  Uiso   1.00
C357   C     0.86167   0.38833   0.75001   0.00000  Uiso   1.00
C358   C     0.63833   0.11167   0.25000   0.00000  Uiso   1.00
C359   C     0.88833   0.13834   0.75000   0.00000  Uiso   1.00
C360   C     0.61167   0.36166   0.25001   0.00000  Uiso   1.00
C361   C     0.52028   0.28326   0.41938   0.00000  Uiso   1.00
C362   C     0.97446   0.22092   0.58144   0.00000  Uiso   1.00
C363   C     0.72240   0.47262   0.41852   0.00000  Uiso   1.00
C364   C     0.77625   0.02776   0.58124   0.00000  Uiso   1.00
C365   C     0.97446   0.22092   0.41856   0.00000  Uiso   1.00
C366   C     0.52028   0.28326   0.58062   0.00000  Uiso   1.00
C367   C     0.77625   0.02776   0.41876   0.00000  Uiso   1.00
C368   C     0.72240   0.47262   0.58148   0.00000  Uiso   1.00
C369   C     0.76666   0.03512   0.91925   0.00000  Uiso   1.00
C370   C     0.72784   0.46824   0.08155   0.00000  Uiso   1.00
C371   C     0.97228   0.22289   0.91854   0.00000  Uiso   1.00
C372   C     0.52674   0.27744   0.08128   0.00000  Uiso   1.00
C373   C     0.72784   0.46824   0.91845   0.00000  Uiso   1.00
C374   C     0.76666   0.03512   0.08075   0.00000  Uiso   1.00
C375   C     0.52674   0.27744   0.91872   0.00000  Uiso   1.00
C376   C     0.97228   0.22289   0.08146   0.00000  Uiso   1.00
C377   C     0.99928   0.25102   0.39882   0.00000  Uiso   1.00
C378   C     0.99928   0.25102   0.60118   0.00000  Uiso   1.00
C379   C     0.74960   0.00005   0.39838   0.00000  Uiso   1.00
C380   C     0.74960   0.00005   0.60162   0.00000  Uiso   1.00
C381   C     0.74926   0.00082   0.89875   0.00000  Uiso   1.00
C382   C     0.74926   0.00082   0.10125   0.00000  Uiso   1.00
C383   C     0.99972   0.25005   0.89838   0.00000  Uiso   1.00
C384   C     0.99972   0.25005   0.10162   0.00000  Uiso   1.00
C385   C     0.96716   0.22550   0.45897   0.00000  Uiso   1.00
C386   C     0.51162   0.28885   0.54070   0.00000  Uiso   1.00
C387   C     0.77067   0.03233   0.45917   0.00000  Uiso   1.00
C388   C     0.72724   0.46823   0.54093   0.00000  Uiso   1.00
C389   C     0.51162   0.28884   0.45930   0.00000  Uiso   1.00
C390   C     0.96716   0.22550   0.54103   0.00000  Uiso   1.00
C391   C     0.72724   0.46823   0.45907   0.00000  Uiso   1.00
C392   C     0.77067   0.03233   0.54083   0.00000  Uiso   1.00
C393   C     0.72028   0.47188   0.95893   0.00000  Uiso   1.00
C394   C     0.75776   0.03961   0.04074   0.00000  Uiso   1.00
C395   C     0.52132   0.28204   0.95915   0.00000  Uiso   1.00
C396   C     0.97715   0.21843   0.04092   0.00000  Uiso   1.00
C397   C     0.75776   0.03961   0.95926   0.00000  Uiso   1.00
C398   C     0.72028   0.47188   0.04107   0.00000  Uiso   1.00
C399   C     0.97715   0.21843   0.95908   0.00000  Uiso   1.00
C400   C     0.52132   0.28204   0.04085   0.00000  Uiso   1.00
C401   C     0.98907   0.25728   0.47949   0.00000  Uiso   1.00
C402   C     0.98907   0.25728   0.52051   0.00000  Uiso   1.00
C403   C     0.74894   0.00026   0.47956   0.00000  Uiso   1.00
C404   C     0.74894   0.00026   0.52044   0.00000  Uiso   1.00
C405   C     0.73878   0.00577   0.97948   0.00000  Uiso   1.00
C406   C     0.73878   0.00577   0.02053   0.00000  Uiso   1.00
C407   C     0.99923   0.25022   0.97956   0.00000  Uiso   1.00
C408   C     0.99923   0.25022   0.02044   0.00000  Uiso   1.00
C409   C     0.93700   0.20129   0.47960   0.00000  Uiso   1.00
C410   C     0.52196   0.32616   0.52035   0.00000  Uiso   1.00
C411   C     0.78481   0.06824   0.47967   0.00000  Uiso   1.00
C412   C     0.71236   0.43262   0.52035   0.00000  Uiso   1.00
C413   C     0.52196   0.32616   0.47965   0.00000  Uiso   1.00
C414   C     0.93700   0.20129   0.52040   0.00000  Uiso   1.00
C415   C     0.71236   0.43262   0.47965   0.00000  Uiso   1.00
C416   C     0.78481   0.06824   0.52033   0.00000  Uiso   1.00
C417   C     0.69291   0.44457   0.97960   0.00000  Uiso   1.00
C418   C     0.76415   0.07778   0.02036   0.00000  Uiso   1.00
C419   C     0.53596   0.31775   0.97967   0.00000  Uiso   1.00
C420   C     0.96194   0.18297   0.02035   0.00000  Uiso   1.00
C421   C     0.76415   0.07778   0.97965   0.00000  Uiso   1.00
C422   C     0.69291   0.44457   0.02040   0.00000  Uiso   1.00
C423   C     0.96194   0.18297   0.97966   0.00000  Uiso   1.00
C424   C     0.53596   0.31775   0.02033   0.00000  Uiso   1.00
C425   C     0.55570   0.30718   0.39967   0.00000  Uiso   1.00
H426   H     0.57739   0.28495   0.38507   0.00000  Uiso   1.00
H427   H     0.54280   0.32976   0.37817   0.00000  Uiso   1.00
H428   H     0.57646   0.32369   0.42050   0.00000  Uiso   1.00
C429   C     0.96304   0.18061   0.60266   0.00000  Uiso   1.00
H430   H     0.98679   0.17269   0.62513   0.00000  Uiso   1.00
H431   H     0.93194   0.18393   0.61701   0.00000  Uiso   1.00
H432   H     0.96321   0.15322   0.58271   0.00000  Uiso   1.00
C433   C     0.68535   0.45317   0.39727   0.00000  Uiso   1.00
H434   H     0.67215   0.47574   0.37592   0.00000  Uiso   1.00
H435   H     0.69532   0.42426   0.38174   0.00000  Uiso   1.00
H436   H     0.65905   0.44594   0.41739   0.00000  Uiso   1.00
C437   C     0.81348   0.04750   0.60199   0.00000  Uiso   1.00
H438   H     0.82748   0.02483   0.62283   0.00000  Uiso   1.00
H439   H     0.83920   0.05546   0.58147   0.00000  Uiso   1.00
H440   H     0.80344   0.07606   0.61802   0.00000  Uiso   1.00
C441   C     0.96304   0.18061   0.39734   0.00000  Uiso   1.00
H442   H     0.98679   0.17269   0.37487   0.00000  Uiso   1.00
H443   H     0.96321   0.15322   0.41729   0.00000  Uiso   1.00
H444   H     0.93194   0.18393   0.38299   0.00000  Uiso   1.00
C445   C     0.55570   0.30718   0.60033   0.00000  Uiso   1.00
H446   H     0.57739   0.28495   0.61493   0.00000  Uiso   1.00
H447   H     0.57646   0.32369   0.57950   0.00000  Uiso   1.00
H448   H     0.54280   0.32976   0.62183   0.00000  Uiso   1.00
C449   C     0.81348   0.04750   0.39801   0.00000  Uiso   1.00
H450   H     0.80344   0.07606   0.38198   0.00000  Uiso   1.00
H451   H     0.83920   0.05546   0.41853   0.00000  Uiso   1.00
H452   H     0.82747   0.02483   0.37717   0.00000  Uiso   1.00
C453   C     0.68535   0.45317   0.60273   0.00000  Uiso   1.00
H454   H     0.65905   0.44594   0.58261   0.00000  Uiso   1.00
H455   H     0.69532   0.42426   0.61826   0.00000  Uiso   1.00
H456   H     0.67215   0.47574   0.62409   0.00000  Uiso   1.00
C457   C     0.79882   0.06297   0.89917   0.00000  Uiso   1.00
H458   H     0.82219   0.04348   0.88348   0.00000  Uiso   1.00
H459   H     0.78296   0.08452   0.87846   0.00000  Uiso   1.00
H460   H     0.81835   0.08105   0.91990   0.00000  Uiso   1.00
C461   C     0.72035   0.42719   0.10304   0.00000  Uiso   1.00
H462   H     0.74455   0.42190   0.12576   0.00000  Uiso   1.00
H463   H     0.68894   0.42752   0.11715   0.00000  Uiso   1.00
H464   H     0.72350   0.39978   0.08333   0.00000  Uiso   1.00
C465   C     0.93503   0.20381   0.89733   0.00000  Uiso   1.00
H466   H     0.92199   0.22654   0.87602   0.00000  Uiso   1.00
H467   H     0.94470   0.17484   0.88174   0.00000  Uiso   1.00
H468   H     0.90869   0.19679   0.91747   0.00000  Uiso   1.00
C469   C     0.56411   0.29677   0.10213   0.00000  Uiso   1.00
H470   H     0.57777   0.27397   0.12304   0.00000  Uiso   1.00
H471   H     0.59001   0.30438   0.08169   0.00000  Uiso   1.00
H472   H     0.55435   0.32546   0.11811   0.00000  Uiso   1.00
C473   C     0.72035   0.42719   0.89696   0.00000  Uiso   1.00
H474   H     0.74455   0.42190   0.87424   0.00000  Uiso   1.00
H475   H     0.72350   0.39978   0.91667   0.00000  Uiso   1.00
H476   H     0.68894   0.42752   0.88285   0.00000  Uiso   1.00
C477   C     0.79882   0.06297   0.10084   0.00000  Uiso   1.00
H478   H     0.82219   0.04348   0.11652   0.00000  Uiso   1.00
H479   H     0.81835   0.08105   0.08010   0.00000  Uiso   1.00
H480   H     0.78296   0.08452   0.12154   0.00000  Uiso   1.00
C481   C     0.56411   0.29677   0.89787   0.00000  Uiso   1.00
H482   H     0.59001   0.30438   0.91831   0.00000  Uiso   1.00
H483   H     0.57777   0.27397   0.87696   0.00000  Uiso   1.00
H484   H     0.55435   0.32546   0.88190   0.00000  Uiso   1.00
C485   C     0.93502   0.20381   0.10267   0.00000  Uiso   1.00
H486   H     0.94470   0.17484   0.11826   0.00000  Uiso   1.00
H487   H     0.92199   0.22654   0.12398   0.00000  Uiso   1.00
H488   H     0.90869   0.19680   0.08253   0.00000  Uiso   1.00
Cl489  Cl    0.89384   0.17707   0.45566   0.00000  Uiso   1.00
Cl490  Cl    0.52563   0.37522   0.54476   0.00000  Uiso   1.00
Cl491  Cl    0.79517   0.11640   0.45544   0.00000  Uiso   1.00
Cl492  Cl    0.70074   0.38465   0.54448   0.00000  Uiso   1.00
Cl493  Cl    0.52563   0.37522   0.45524   0.00000  Uiso   1.00
Cl494  Cl    0.89384   0.17707   0.54434   0.00000  Uiso   1.00
Cl495  Cl    0.70074   0.38465   0.45552   0.00000  Uiso   1.00
Cl496  Cl    0.79517   0.11640   0.54456   0.00000  Uiso   1.00
Cl497  Cl    0.65255   0.41583   0.95571   0.00000  Uiso   1.00
Cl498  Cl    0.76265   0.12700   0.04470   0.00000  Uiso   1.00
Cl499  Cl    0.54702   0.36578   0.95545   0.00000  Uiso   1.00
Cl500  Cl    0.94989   0.13510   0.04448   0.00000  Uiso   1.00
Cl501  Cl    0.76265   0.12700   0.95530   0.00000  Uiso   1.00
Cl502  Cl    0.65255   0.41583   0.04429   0.00000  Uiso   1.00
Cl503  Cl    0.94989   0.13510   0.95552   0.00000  Uiso   1.00
Cl504  Cl    0.54702   0.36578   0.04455   0.00000  Uiso   1.00
Zn505  Zn    0.20053   0.50000   0.21730   0.00000  Uiso   1.00
Zn506  Zn    0.29948   0.50000   0.78270   0.00000  Uiso   1.00
Zn507  Zn    0.00000   0.70053   0.21730   0.00000  Uiso   1.00
Zn508  Zn    0.00000   0.79948   0.78270   0.00000  Uiso   1.00
Zn509  Zn    0.29948   0.50000   0.21730   0.00000  Uiso   1.00
Zn510  Zn    0.20053   0.50000   0.78270   0.00000  Uiso   1.00
Zn511  Zn    0.00000   0.79948   0.21730   0.00000  Uiso   1.00
Zn512  Zn    0.00000   0.70053   0.78270   0.00000  Uiso   1.00
Zn513  Zn    0.45053   0.75000   0.71730   0.00000  Uiso   1.00
Zn514  Zn    0.04948   0.75000   0.28270   0.00000  Uiso   1.00
Zn515  Zn    0.25000   0.95052   0.71730   0.00000  Uiso   1.00
Zn516  Zn    0.25000   0.54947   0.28270   0.00000  Uiso   1.00
Zn517  Zn    0.04948   0.75000   0.71730   0.00000  Uiso   1.00
Zn518  Zn    0.45053   0.75000   0.28270   0.00000  Uiso   1.00
Zn519  Zn    0.25000   0.54947   0.71730   0.00000  Uiso   1.00
Zn520  Zn    0.25000   0.95052   0.28270   0.00000  Uiso   1.00
O521   O     0.25000   0.50000   0.25000   0.00000  Uiso   1.00
O522   O     0.25000   0.50000   0.75000   0.00000  Uiso   1.00
O523   O     0.00000   0.75000   0.25000   0.00000  Uiso   1.00
O524   O     0.00000   0.75000   0.75000   0.00000  Uiso   1.00
O525   O     0.25000   0.96538   0.33749   0.00000  Uiso   1.00
O526   O     0.25000   0.53461   0.66251   0.00000  Uiso   1.00
O527   O     0.03462   0.75000   0.33749   0.00000  Uiso   1.00
O528   O     0.46539   0.75000   0.66251   0.00000  Uiso   1.00
O529   O     0.25000   0.53461   0.33749   0.00000  Uiso   1.00
O530   O     0.25000   0.96538   0.66251   0.00000  Uiso   1.00
O531   O     0.46539   0.75000   0.33749   0.00000  Uiso   1.00
O532   O     0.03462   0.75000   0.66251   0.00000  Uiso   1.00
O533   O     0.00000   0.71539   0.83749   0.00000  Uiso   1.00
O534   O     0.00000   0.78462   0.16251   0.00000  Uiso   1.00
O535   O     0.28462   0.50000   0.83749   0.00000  Uiso   1.00
O536   O     0.21539   0.50000   0.16251   0.00000  Uiso   1.00
O537   O     0.00000   0.78462   0.83749   0.00000  Uiso   1.00
O538   O     0.00000   0.71539   0.16251   0.00000  Uiso   1.00
O539   O     0.21539   0.50000   0.83749   0.00000  Uiso   1.00
O540   O     0.28462   0.50000   0.16251   0.00000  Uiso   1.00
O541   O     0.20127   0.58332   0.27298   0.00000  Uiso   1.00
O542   O     0.29874   0.91668   0.72702   0.00000  Uiso   1.00
O543   O     0.41668   0.70126   0.27298   0.00000  Uiso   1.00
O544   O     0.08332   0.79873   0.72702   0.00000  Uiso   1.00
O545   O     0.29874   0.91668   0.27298   0.00000  Uiso   1.00
O546   O     0.20127   0.58332   0.72702   0.00000  Uiso   1.00
O547   O     0.08332   0.79873   0.27298   0.00000  Uiso   1.00
O548   O     0.41668   0.70126   0.72702   0.00000  Uiso   1.00
O549   O     0.20127   0.91668   0.72702   0.00000  Uiso   1.00
O550   O     0.29874   0.58332   0.27298   0.00000  Uiso   1.00
O551   O     0.41668   0.79873   0.72702   0.00000  Uiso   1.00
O552   O     0.08332   0.70126   0.27298   0.00000  Uiso   1.00
O553   O     0.29874   0.58332   0.72702   0.00000  Uiso   1.00
O554   O     0.20127   0.91668   0.27298   0.00000  Uiso   1.00
O555   O     0.08332   0.70126   0.72702   0.00000  Uiso   1.00
O556   O     0.41668   0.79873   0.27298   0.00000  Uiso   1.00
O557   O     0.45127   0.83332   0.77298   0.00000  Uiso   1.00
O558   O     0.04874   0.66668   0.22702   0.00000  Uiso   1.00
O559   O     0.16668   0.95126   0.77298   0.00000  Uiso   1.00
O560   O     0.33332   0.54873   0.22702   0.00000  Uiso   1.00
O561   O     0.04874   0.66668   0.77298   0.00000  Uiso   1.00
O562   O     0.45127   0.83332   0.22702   0.00000  Uiso   1.00
O563   O     0.33332   0.54873   0.77298   0.00000  Uiso   1.00
O564   O     0.16668   0.95126   0.22702   0.00000  Uiso   1.00
O565   O     0.45127   0.66668   0.22702   0.00000  Uiso   1.00
O566   O     0.04874   0.83332   0.77298   0.00000  Uiso   1.00
O567   O     0.16668   0.54873   0.22702   0.00000  Uiso   1.00
O568   O     0.33332   0.95126   0.77298   0.00000  Uiso   1.00
O569   O     0.04874   0.83332   0.22702   0.00000  Uiso   1.00
O570   O     0.45127   0.66668   0.77298   0.00000  Uiso   1.00
O571   O     0.33332   0.95126   0.22702   0.00000  Uiso   1.00
O572   O     0.16668   0.54873   0.77298   0.00000  Uiso   1.00
C573   C     0.24995   0.50000   0.35591   0.00000  Uiso   1.00
C574   C     0.24995   0.50000   0.64409   0.00000  Uiso   1.00
C575   C     0.00002   0.75052   0.35606   0.00000  Uiso   1.00
C576   C     0.00002   0.75052   0.64394   0.00000  Uiso   1.00
C577   C     0.49998   0.75000   0.85591   0.00000  Uiso   1.00
C578   C     0.49998   0.75000   0.14410   0.00000  Uiso   1.00
C579   C     0.25000   0.50058   0.85603   0.00000  Uiso   1.00
C580   C     0.25000   0.50058   0.14397   0.00000  Uiso   1.00
C581   C     0.16997   0.58002   0.25000   0.00000  Uiso   1.00
C582   C     0.33003   0.91998   0.75001   0.00000  Uiso   1.00
C583   C     0.41998   0.66998   0.25000   0.00000  Uiso   1.00
C584   C     0.08002   0.83002   0.75000   0.00000  Uiso   1.00
C585   C     0.33003   0.91998   0.25000   0.00000  Uiso   1.00
C586   C     0.16997   0.58002   0.75000   0.00000  Uiso   1.00
C587   C     0.08002   0.83002   0.25000   0.00000  Uiso   1.00
C588   C     0.41998   0.66998   0.75000   0.00000  Uiso   1.00
C589   C     0.16998   0.91998   0.75000   0.00000  Uiso   1.00
C590   C     0.33002   0.58002   0.25000   0.00000  Uiso   1.00
C591   C     0.41997   0.83002   0.75000   0.00000  Uiso   1.00
C592   C     0.08003   0.66998   0.25000   0.00000  Uiso   1.00
C593   C     0.33002   0.58002   0.75000   0.00000  Uiso   1.00
C594   C     0.16998   0.91998   0.25000   0.00000  Uiso   1.00
C595   C     0.08003   0.66998   0.75000   0.00000  Uiso   1.00
C596   C     0.41997   0.83002   0.25000   0.00000  Uiso   1.00
C597   C     0.13833   0.88834   0.25000   0.00000  Uiso   1.00
C598   C     0.36167   0.61166   0.75001   0.00000  Uiso   1.00
C599   C     0.11167   0.63833   0.25001   0.00000  Uiso   1.00
C600   C     0.38833   0.86167   0.75000   0.00000  Uiso   1.00
C601   C     0.36167   0.61166   0.25000   0.00000  Uiso   1.00
C602   C     0.13833   0.88834   0.75001   0.00000  Uiso   1.00
C603   C     0.38833   0.86167   0.25000   0.00000  Uiso   1.00
C604   C     0.11167   0.63833   0.75000   0.00000  Uiso   1.00
C605   C     0.13833   0.61167   0.75001   0.00000  Uiso   1.00
C606   C     0.36167   0.88833   0.24999   0.00000  Uiso   1.00
C607   C     0.11167   0.86166   0.75000   0.00000  Uiso   1.00
C608   C     0.38833   0.63834   0.25001   0.00000  Uiso   1.00
C609   C     0.36167   0.88833   0.75001   0.00000  Uiso   1.00
C610   C     0.13833   0.61167   0.25000   0.00000  Uiso   1.00
C611   C     0.38833   0.63834   0.75000   0.00000  Uiso   1.00
C612   C     0.11167   0.86166   0.25001   0.00000  Uiso   1.00
C613   C     0.02028   0.78326   0.41938   0.00000  Uiso   1.00
C614   C     0.47446   0.72092   0.58144   0.00000  Uiso   1.00
C615   C     0.22240   0.97262   0.41852   0.00000  Uiso   1.00
C616   C     0.27625   0.52776   0.58124   0.00000  Uiso   1.00
C617   C     0.47446   0.72092   0.41856   0.00000  Uiso   1.00
C618   C     0.02028   0.78326   0.58062   0.00000  Uiso   1.00
C619   C     0.27625   0.52776   0.41876   0.00000  Uiso   1.00
C620   C     0.22240   0.97262   0.58148   0.00000  Uiso   1.00
C621   C     0.26666   0.53512   0.91925   0.00000  Uiso   1.00
C622   C     0.22784   0.96824   0.08155   0.00000  Uiso   1.00
C623   C     0.47228   0.72289   0.91854   0.00000  Uiso   1.00
C624   C     0.02674   0.77744   0.08128   0.00000  Uiso   1.00
C625   C     0.22784   0.96824   0.91845   0.00000  Uiso   1.00
C626   C     0.26666   0.53512   0.08075   0.00000  Uiso   1.00
C627   C     0.02674   0.77744   0.91872   0.00000  Uiso   1.00
C628   C     0.47228   0.72289   0.08146   0.00000  Uiso   1.00
C629   C     0.49928   0.75102   0.39882   0.00000  Uiso   1.00
C630   C     0.49928   0.75102   0.60118   0.00000  Uiso   1.00
C631   C     0.24960   0.50005   0.39838   0.00000  Uiso   1.00
C632   C     0.24960   0.50005   0.60162   0.00000  Uiso   1.00
C633   C     0.24926   0.50082   0.89875   0.00000  Uiso   1.00
C634   C     0.24926   0.50082   0.10125   0.00000  Uiso   1.00
C635   C     0.49972   0.75005   0.89838   0.00000  Uiso   1.00
C636   C     0.49972   0.75005   0.10162   0.00000  Uiso   1.00
C637   C     0.46716   0.72550   0.45897   0.00000  Uiso   1.00
C638   C     0.01162   0.78885   0.54070   0.00000  Uiso   1.00
C639   C     0.27067   0.53233   0.45917   0.00000  Uiso   1.00
C640   C     0.22724   0.96823   0.54093   0.00000  Uiso   1.00
C641   C     0.01162   0.78884   0.45930   0.00000  Uiso   1.00
C642   C     0.46716   0.72550   0.54103   0.00000  Uiso   1.00
C643   C     0.22724   0.96823   0.45907   0.00000  Uiso   1.00
C644   C     0.27067   0.53233   0.54083   0.00000  Uiso   1.00
C645   C     0.22028   0.97188   0.95893   0.00000  Uiso   1.00
C646   C     0.25776   0.53961   0.04074   0.00000  Uiso   1.00
C647   C     0.02132   0.78204   0.95915   0.00000  Uiso   1.00
C648   C     0.47715   0.71843   0.04092   0.00000  Uiso   1.00
C649   C     0.25776   0.53961   0.95926   0.00000  Uiso   1.00
C650   C     0.22028   0.97188   0.04107   0.00000  Uiso   1.00
C651   C     0.47715   0.71843   0.95908   0.00000  Uiso   1.00
C652   C     0.02132   0.78204   0.04085   0.00000  Uiso   1.00
C653   C     0.48907   0.75728   0.47949   0.00000  Uiso   1.00
C654   C     0.48907   0.75728   0.52051   0.00000  Uiso   1.00
C655   C     0.24894   0.50026   0.47956   0.00000  Uiso   1.00
C656   C     0.24894   0.50026   0.52044   0.00000  Uiso   1.00
C657   C     0.23878   0.50577   0.97948   0.00000  Uiso   1.00
C658   C     0.23878   0.50577   0.02053   0.00000  Uiso   1.00
C659   C     0.49923   0.75022   0.97956   0.00000  Uiso   1.00
C660   C     0.49923   0.75022   0.02044   0.00000  Uiso   1.00
C661   C     0.43700   0.70129   0.47960   0.00000  Uiso   1.00
C662   C     0.02196   0.82616   0.52035   0.00000  Uiso   1.00
C663   C     0.28481   0.56824   0.47967   0.00000  Uiso   1.00
C664   C     0.21236   0.93262   0.52035   0.00000  Uiso   1.00
C665   C     0.02196   0.82616   0.47965   0.00000  Uiso   1.00
C666   C     0.43700   0.70129   0.52040   0.00000  Uiso   1.00
C667   C     0.21236   0.93262   0.47965   0.00000  Uiso   1.00
C668   C     0.28481   0.56824   0.52033   0.00000  Uiso   1.00
C669   C     0.19291   0.94457   0.97960   0.00000  Uiso   1.00
C670   C     0.26415   0.57778   0.02036   0.00000  Uiso   1.00
C671   C     0.03596   0.81775   0.97967   0.00000  Uiso   1.00
C672   C     0.46194   0.68297   0.02035   0.00000  Uiso   1.00
C673   C     0.26415   0.57778   0.97965   0.00000  Uiso   1.00
C674   C     0.19291   0.94457   0.02040   0.00000  Uiso   1.00
C675   C     0.46194   0.68297   0.97966   0.00000  Uiso   1.00
C676   C     0.03596   0.81775   0.02033   0.00000  Uiso   1.00
C677   C     0.05570   0.80718   0.39967   0.00000  Uiso   1.00
H678   H     0.07739   0.78495   0.38507   0.00000  Uiso   1.00
H679   H     0.04280   0.82976   0.37817   0.00000  Uiso   1.00
H680   H     0.07646   0.82369   0.42050   0.00000  Uiso   1.00
C681   C     0.46304   0.68061   0.60266   0.00000  Uiso   1.00
H682   H     0.48679   0.67269   0.62513   0.00000  Uiso   1.00
H683   H     0.43194   0.68393   0.61701   0.00000  Uiso   1.00
H684   H     0.46321   0.65322   0.58271   0.00000  Uiso   1.00
C685   C     0.18535   0.95317   0.39727   0.00000  Uiso   1.00
H686   H     0.17215   0.97574   0.37592   0.00000  Uiso   1.00
H687   H     0.19532   0.92426   0.38174   0.00000  Uiso   1.00
H688   H     0.15905   0.94594   0.41739   0.00000  Uiso   1.00
C689   C     0.31348   0.54750   0.60199   0.00000  Uiso   1.00
H690   H     0.32748   0.52483   0.62283   0.00000  Uiso   1.00
H691   H     0.33920   0.55546   0.58147   0.00000  Uiso   1.00
H692   H     0.30344   0.57606   0.61802   0.00000  Uiso   1.00
C693   C     0.46304   0.68061   0.39734   0.00000  Uiso   1.00
H694   H     0.48679   0.67269   0.37487   0.00000  Uiso   1.00
H695   H     0.46321   0.65322   0.41729   0.00000  Uiso   1.00
H696   H     0.43194   0.68393   0.38299   0.00000  Uiso   1.00
C697   C     0.05570   0.80718   0.60033   0.00000  Uiso   1.00
H698   H     0.07739   0.78495   0.61493   0.00000  Uiso   1.00
H699   H     0.07646   0.82369   0.57950   0.00000  Uiso   1.00
H700   H     0.04280   0.82976   0.62183   0.00000  Uiso   1.00
C701   C     0.31348   0.54750   0.39801   0.00000  Uiso   1.00
H702   H     0.30344   0.57606   0.38198   0.00000  Uiso   1.00
H703   H     0.33920   0.55546   0.41853   0.00000  Uiso   1.00
H704   H     0.32747   0.52483   0.37717   0.00000  Uiso   1.00
C705   C     0.18535   0.95317   0.60273   0.00000  Uiso   1.00
H706   H     0.15905   0.94594   0.58261   0.00000  Uiso   1.00
H707   H     0.19532   0.92426   0.61826   0.00000  Uiso   1.00
H708   H     0.17215   0.97574   0.62409   0.00000  Uiso   1.00
C709   C     0.29882   0.56297   0.89917   0.00000  Uiso   1.00
H710   H     0.32219   0.54348   0.88348   0.00000  Uiso   1.00
H711   H     0.28296   0.58452   0.87846   0.00000  Uiso   1.00
H712   H     0.31835   0.58105   0.91990   0.00000  Uiso   1.00
C713   C     0.22035   0.92719   0.10304   0.00000  Uiso   1.00
H714   H     0.24455   0.92190   0.12576   0.00000  Uiso   1.00
H715   H     0.18894   0.92752   0.11715   0.00000  Uiso   1.00
H716   H     0.22350   0.89978   0.08333   0.00000  Uiso   1.00
C717   C     0.43503   0.70381   0.89733   0.00000  Uiso   1.00
H718   H     0.42199   0.72654   0.87602   0.00000  Uiso   1.00
H719   H     0.44470   0.67484   0.88174   0.00000  Uiso   1.00
H720   H     0.40869   0.69679   0.91747   0.00000  Uiso   1.00
C721   C     0.06411   0.79677   0.10213   0.00000  Uiso   1.00
H722   H     0.07777   0.77397   0.12304   0.00000  Uiso   1.00
H723   H     0.09001   0.80438   0.08169   0.00000  Uiso   1.00
H724   H     0.05435   0.82546   0.11811   0.00000  Uiso   1.00
C725   C     0.22035   0.92719   0.89696   0.00000  Uiso   1.00
H726   H     0.24455   0.92190   0.87424   0.00000  Uiso   1.00
H727   H     0.22350   0.89978   0.91667   0.00000  Uiso   1.00
H728   H     0.18894   0.92752   0.88285   0.00000  Uiso   1.00
C729   C     0.29882   0.56297   0.10084   0.00000  Uiso   1.00
H730   H     0.32219   0.54348   0.11652   0.00000  Uiso   1.00
H731   H     0.31835   0.58105   0.08010   0.00000  Uiso   1.00
H732   H     0.28296   0.58452   0.12154   0.00000  Uiso   1.00
C733   C     0.06411   0.79677   0.89787   0.00000  Uiso   1.00
H734   H     0.09001   0.80438   0.91831   0.00000  Uiso   1.00
H735   H     0.07777   0.77397   0.87696   0.00000  Uiso   1.00
H736   H     0.05435   0.82546   0.88190   0.00000  Uiso   1.00
C737   C     0.43502   0.70381   0.10267   0.00000  Uiso   1.00
H738   H     0.44470   0.67484   0.11826   0.00000  Uiso   1.00
H739   H     0.42199   0.72654   0.12398   0.00000  Uiso   1.00
H740   H     0.40869   0.69680   0.08253   0.00000  Uiso   1.00
Cl741  Cl    0.39384   0.67707   0.45566   0.00000  Uiso   1.00
Cl742  Cl    0.02563   0.87522   0.54476   0.00000  Uiso   1.00
Cl743  Cl    0.29517   0.61640   0.45544   0.00000  Uiso   1.00
Cl744  Cl    0.20074   0.88465   0.54448   0.00000  Uiso   1.00
Cl745  Cl    0.02563   0.87522   0.45524   0.00000  Uiso   1.00
Cl746  Cl    0.39384   0.67707   0.54434   0.00000  Uiso   1.00
Cl747  Cl    0.20074   0.88465   0.45552   0.00000  Uiso   1.00
Cl748  Cl    0.29517   0.61640   0.54456   0.00000  Uiso   1.00
Cl749  Cl    0.15255   0.91583   0.95571   0.00000  Uiso   1.00
Cl750  Cl    0.26265   0.62700   0.04470   0.00000  Uiso   1.00
Cl751  Cl    0.04702   0.86578   0.95545   0.00000  Uiso   1.00
Cl752  Cl    0.44989   0.63510   0.04448   0.00000  Uiso   1.00
Cl753  Cl    0.26265   0.62700   0.95530   0.00000  Uiso   1.00
Cl754  Cl    0.15255   0.91583   0.04429   0.00000  Uiso   1.00
Cl755  Cl    0.44989   0.63510   0.95552   0.00000  Uiso   1.00
Cl756  Cl    0.04702   0.86578   0.04455   0.00000  Uiso   1.00
Zn757  Zn    0.70053   0.50000   0.21730   0.00000  Uiso   1.00
Zn758  Zn    0.79948   0.50000   0.78270   0.00000  Uiso   1.00
Zn759  Zn    0.50000   0.70053   0.21730   0.00000  Uiso   1.00
Zn760  Zn    0.50000   0.79948   0.78270   0.00000  Uiso   1.00
Zn761  Zn    0.79948   0.50000   0.21730   0.00000  Uiso   1.00
Zn762  Zn    0.70053   0.50000   0.78270   0.00000  Uiso   1.00
Zn763  Zn    0.50000   0.79948   0.21730   0.00000  Uiso   1.00
Zn764  Zn    0.50000   0.70053   0.78270   0.00000  Uiso   1.00
Zn765  Zn    0.95053   0.75000   0.71730   0.00000  Uiso   1.00
Zn766  Zn    0.54948   0.75000   0.28270   0.00000  Uiso   1.00
Zn767  Zn    0.75000   0.95052   0.71730   0.00000  Uiso   1.00
Zn768  Zn    0.75000   0.54947   0.28270   0.00000  Uiso   1.00
Zn769  Zn    0.54948   0.75000   0.71730   0.00000  Uiso   1.00
Zn770  Zn    0.95053   0.75000   0.28270   0.00000  Uiso   1.00
Zn771  Zn    0.75000   0.54947   0.71730   0.00000  Uiso   1.00
Zn772  Zn    0.75000   0.95052   0.28270   0.00000  Uiso   1.00
O773   O     0.75000   0.50000   0.25000   0.00000  Uiso   1.00
O774   O     0.75000   0.50000   0.75000   0.00000  Uiso   1.00
O775   O     0.50000   0.75000   0.25000   0.00000  Uiso   1.00
O776   O     0.50000   0.75000   0.75000   0.00000  Uiso   1.00
O777   O     0.75000   0.96538   0.33749   0.00000  Uiso   1.00
O778   O     0.75000   0.53461   0.66251   0.00000  Uiso   1.00
O779   O     0.53462   0.75000   0.33749   0.00000  Uiso   1.00
O780   O     0.96539   0.75000   0.66251   0.00000  Uiso   1.00
O781   O     0.75000   0.53461   0.33749   0.00000  Uiso   1.00
O782   O     0.75000   0.96538   0.66251   0.00000  Uiso   1.00
O783   O     0.96539   0.75000   0.33749   0.00000  Uiso   1.00
O784   O     0.53462   0.75000   0.66251   0.00000  Uiso   1.00
O785   O     0.50000   0.71539   0.83749   0.00000  Uiso   1.00
O786   O     0.50000   0.78462   0.16251   0.00000  Uiso   1.00
O787   O     0.78462   0.50000   0.83749   0.00000  Uiso   1.00
O788   O     0.71539   0.50000   0.16251   0.00000  Uiso   1.00
O789   O     0.50000   0.78462   0.83749   0.00000  Uiso   1.00
O790   O     0.50000   0.71539   0.16251   0.00000  Uiso   1.00
O791   O     0.71539   0.50000   0.83749   0.00000  Uiso   1.00
O792   O     0.78462   0.50000   0.16251   0.00000  Uiso   1.00
O793   O     0.70127   0.58332   0.27298   0.00000  Uiso   1.00
O794   O     0.79874   0.91668   0.72702   0.00000  Uiso   1.00
O795   O     0.91668   0.70126   0.27298   0.00000  Uiso   1.00
O796   O     0.58332   0.79873   0.72702   0.00000  Uiso   1.00
O797   O     0.79874   0.91668   0.27298   0.00000  Uiso   1.00
O798   O     0.70127   0.58332   0.72702   0.00000  Uiso   1.00
O799   O     0.58332   0.79873   0.27298   0.00000  Uiso   1.00
O800   O     0.91668   0.70126   0.72702   0.00000  Uiso   1.00
O801   O     0.70127   0.91668   0.72702   0.00000  Uiso   1.00
O802   O     0.79874   0.58332   0.27298   0.00000  Uiso   1.00
O803   O     0.91668   0.79873   0.72702   0.00000  Uiso   1.00
O804   O     0.58332   0.70126   0.27298   0.00000  Uiso   1.00
O805   O     0.79874   0.58332   0.72702   0.00000  Uiso   1.00
O806   O     0.70127   0.91668   0.27298   0.00000  Uiso   1.00
O807   O     0.58332   0.70126   0.72702   0.00000  Uiso   1.00
O808   O     0.91668   0.79873   0.27298   0.00000  Uiso   1.00
O809   O     0.95127   0.83332   0.77298   0.00000  Uiso   1.00
O810   O     0.54874   0.66668   0.22702   0.00000  Uiso   1.00
O811   O     0.66668   0.95126   0.77298   0.00000  Uiso   1.00
O812   O     0.83332   0.54873   0.22702   0.00000  Uiso   1.00
O813   O     0.54874   0.66668   0.77298   0.00000  Uiso   1.00
O814   O     0.95127   0.83332   0.22702   0.00000  Uiso   1.00
O815   O     0.83332   0.54873   0.77298   0.00000  Uiso   1.00
O816   O     0.66668   0.95126   0.22702   0.00000  Uiso   1.00
O817   O     0.95127   0.66668   0.22702   0.00000  Uiso   1.00
O818   O     0.54874   0.83332   0.77298   0.00000  Uiso   1.00
O819   O     0.66668   0.54873   0.22702   0.00000  Uiso   1.00
O820   O     0.83332   0.95126   0.77298   0.00000  Uiso   1.00
O821   O     0.54874   0.83332   0.22702   0.00000  Uiso   1.00
O822   O     0.95127   0.66668   0.77298   0.00000  Uiso   1.00
O823   O     0.83332   0.95126   0.22702   0.00000  Uiso   1.00
O824   O     0.66668   0.54873   0.77298   0.00000  Uiso   1.00
C825   C     0.74995   0.50000   0.35591   0.00000  Uiso   1.00
C826   C     0.74995   0.50000   0.64409   0.00000  Uiso   1.00
C827   C     0.50002   0.75052   0.35606   0.00000  Uiso   1.00
C828   C     0.50002   0.75052   0.64394   0.00000  Uiso   1.00
C829   C     0.99998   0.75000   0.85591   0.00000  Uiso   1.00
C830   C     0.99998   0.75000   0.14410   0.00000  Uiso   1.00
C831   C     0.75000   0.50058   0.85603   0.00000  Uiso   1.00
C832   C     0.75000   0.50058   0.14397   0.00000  Uiso   1.00
C833   C     0.66997   0.58002   0.25000   0.00000  Uiso   1.00
C834   C     0.83003   0.91998   0.75001   0.00000  Uiso   1.00
C835   C     0.91998   0.66998   0.25000   0.00000  Uiso   1.00
C836   C     0.58002   0.83002   0.75000   0.00000  Uiso   1.00
C837   C     0.83003   0.91998   0.25000   0.00000  Uiso   1.00
C838   C     0.66997   0.58002   0.75000   0.00000  Uiso   1.00
C839   C     0.58002   0.83002   0.25000   0.00000  Uiso   1.00
C840   C     0.91998   0.66998   0.75000   0.00000  Uiso   1.00
C841   C     0.66998   0.91998   0.75000   0.00000  Uiso   1.00
C842   C     0.83002   0.58002   0.25000   0.00000  Uiso   1.00
C843   C     0.91997   0.83002   0.75000   0.00000  Uiso   1.00
C844   C     0.58003   0.66998   0.25000   0.00000  Uiso   1.00
C845   C     0.83002   0.58002   0.75000   0.00000  Uiso   1.00
C846   C     0.66998   0.91998   0.25000   0.00000  Uiso   1.00
C847   C     0.58003   0.66998   0.75000   0.00000  Uiso   1.00
C848   C     0.91997   0.83002   0.25000   0.00000  Uiso   1.00
C849   C     0.63833   0.88834   0.25000   0.00000  Uiso   1.00
C850   C     0.86167   0.61166   0.75001   0.00000  Uiso   1.00
C851   C     0.61167   0.63833   0.25001   0.00000  Uiso   1.00
C852   C     0.88833   0.86167   0.75000   0.00000  Uiso   1.00
C853   C     0.86167   0.61166   0.25000   0.00000  Uiso   1.00
C854   C     0.63833   0.88834   0.75001   0.00000  Uiso   1.00
C855   C     0.88833   0.86167   0.25000   0.00000  Uiso   1.00
C856   C     0.61167   0.63833   0.75000   0.00000  Uiso   1.00
C857   C     0.63833   0.61167   0.75001   0.00000  Uiso   1.00
C858   C     0.86167   0.88833   0.24999   0.00000  Uiso   1.00
C859   C     0.61167   0.86166   0.75000   0.00000  Uiso   1.00
C860   C     0.88833   0.63834   0.25001   0.00000  Uiso   1.00
C861   C     0.86167   0.88833   0.75001   0.00000  Uiso   1.00
C862   C     0.63833   0.61167   0.25000   0.00000  Uiso   1.00
C863   C     0.88833   0.63834   0.75000   0.00000  Uiso   1.00
C864   C     0.61167   0.86166   0.25001   0.00000  Uiso   1.00
C865   C     0.52028   0.78326   0.41938   0.00000  Uiso   1.00
C866   C     0.97446   0.72092   0.58144   0.00000  Uiso   1.00
C867   C     0.72240   0.97262   0.41852   0.00000  Uiso   1.00
C868   C     0.77625   0.52776   0.58124   0.00000  Uiso   1.00
C869   C     0.97446   0.72092   0.41856   0.00000  Uiso   1.00
C870   C     0.52028   0.78326   0.58062   0.00000  Uiso   1.00
C871   C     0.77625   0.52776   0.41876   0.00000  Uiso   1.00
C872   C     0.72240   0.97262   0.58148   0.00000  Uiso   1.00
C873   C     0.76666   0.53512   0.91925   0.00000  Uiso   1.00
C874   C     0.72784   0.96824   0.08155   0.00000  Uiso   1.00
C875   C     0.97228   0.72289   0.91854   0.00000  Uiso   1.00
C876   C     0.52674   0.77744   0.08128   0.00000  Uiso   1.00
C877   C     0.72784   0.96824   0.91845   0.00000  Uiso   1.00
C878   C     0.76666   0.53512   0.08075   0.00000  Uiso   1.00
C879   C     0.52674   0.77744   0.91872   0.00000  Uiso   1.00
C880   C     0.97228   0.72289   0.08146   0.00000  Uiso   1.00
C881   C     0.99928   0.75102   0.39882   0.00000  Uiso   1.00
C882   C     0.99928   0.75102   0.60118   0.00000  Uiso   1.00
C883   C     0.74960   0.50005   0.39838   0.00000  Uiso   1.00
C884   C     0.74960   0.50005   0.60162   0.00000  Uiso   1.00
C885   C     0.74926   0.50082   0.89875   0.00000  Uiso   1.00
C886   C     0.74926   0.50082   0.10125   0.00000  Uiso   1.00
C887   C     0.99972   0.75005   0.89838   0.00000  Uiso   1.00
C888   C     0.99972   0.75005   0.10162   0.00000  Uiso   1.00
C889   C     0.96716   0.72550   0.45897   0.00000  Uiso   1.00
C890   C     0.51162   0.78885   0.54070   0.00000  Uiso   1.00
C891   C     0.77067   0.53233   0.45917   0.00000  Uiso   1.00
C892   C     0.72724   0.96823   0.54093   0.00000  Uiso   1.00
C893   C     0.51162   0.78884   0.45930   0.00000  Uiso   1.00
C894   C     0.96716   0.72550   0.54103   0.00000  Uiso   1.00
C895   C     0.72724   0.96823   0.45907   0.00000  Uiso   1.00
C896   C     0.77067   0.53233   0.54083   0.00000  Uiso   1.00
C897   C     0.72028   0.97188   0.95893   0.00000  Uiso   1.00
C898   C     0.75776   0.53961   0.04074   0.00000  Uiso   1.00
C899   C     0.52132   0.78204   0.95915   0.00000  Uiso   1.00
C900   C     0.97715   0.71843   0.04092   0.00000  Uiso   1.00
C901   C     0.75776   0.53961   0.95926   0.00000  Uiso   1.00
C902   C     0.72028   0.97188   0.04107   0.00000  Uiso   1.00
C903   C     0.97715   0.71843   0.95908   0.00000  Uiso   1.00
C904   C     0.52132   0.78204   0.04085   0.00000  Uiso   1.00
C905   C     0.98907   0.75728   0.47949   0.00000  Uiso   1.00
C906   C     0.98907   0.75728   0.52051   0.00000  Uiso   1.00
C907   C     0.74894   0.50026   0.47956   0.00000  Uiso   1.00
C908   C     0.74894   0.50026   0.52044   0.00000  Uiso   1.00
C909   C     0.73878   0.50577   0.97948   0.00000  Uiso   1.00
C910   C     0.73878   0.50577   0.02053   0.00000  Uiso   1.00
C911   C     0.99923   0.75022   0.97956   0.00000  Uiso   1.00
C912   C     0.99923   0.75022   0.02044   0.00000  Uiso   1.00
C913   C     0.93700   0.70129   0.47960   0.00000  Uiso   1.00
C914   C     0.52196   0.82616   0.52035   0.00000  Uiso   1.00
C915   C     0.78481   0.56824   0.47967   0.00000  Uiso   1.00
C916   C     0.71236   0.93262   0.52035   0.00000  Uiso   1.00
C917   C     0.52196   0.82616   0.47965   0.00000  Uiso   1.00
C918   C     0.93700   0.70129   0.52040   0.00000  Uiso   1.00
C919   C     0.71236   0.93262   0.47965   0.00000  Uiso   1.00
C920   C     0.78481   0.56824   0.52033   0.00000  Uiso   1.00
C921   C     0.69291   0.94457   0.97960   0.00000  Uiso   1.00
C922   C     0.76415   0.57778   0.02036   0.00000  Uiso   1.00
C923   C     0.53596   0.81775   0.97967   0.00000  Uiso   1.00
C924   C     0.96194   0.68297   0.02035   0.00000  Uiso   1.00
C925   C     0.76415   0.57778   0.97965   0.00000  Uiso   1.00
C926   C     0.69291   0.94457   0.02040   0.00000  Uiso   1.00
C927   C     0.96194   0.68297   0.97966   0.00000  Uiso   1.00
C928   C     0.53596   0.81775   0.02033   0.00000  Uiso   1.00
C929   C     0.55570   0.80718   0.39967   0.00000  Uiso   1.00
H930   H     0.57739   0.78495   0.38507   0.00000  Uiso   1.00
H931   H     0.54280   0.82976   0.37817   0.00000  Uiso   1.00
H932   H     0.57646   0.82369   0.42050   0.00000  Uiso   1.00
C933   C     0.96304   0.68061   0.60266   0.00000  Uiso   1.00
H934   H     0.98679   0.67269   0.62513   0.00000  Uiso   1.00
H935   H     0.93194   0.68393   0.61701   0.00000  Uiso   1.00
H936   H     0.96321   0.65322   0.58271   0.00000  Uiso   1.00
C937   C     0.68535   0.95317   0.39727   0.00000  Uiso   1.00
H938   H     0.67215   0.97574   0.37592   0.00000  Uiso   1.00
H939   H     0.69532   0.92426   0.38174   0.00000  Uiso   1.00
H940   H     0.65905   0.94594   0.41739   0.00000  Uiso   1.00
C941   C     0.81348   0.54750   0.60199   0.00000  Uiso   1.00
H942   H     0.82748   0.52483   0.62283   0.00000  Uiso   1.00
H943   H     0.83920   0.55546   0.58147   0.00000  Uiso   1.00
H944   H     0.80344   0.57606   0.61802   0.00000  Uiso   1.00
C945   C     0.96304   0.68061   0.39734   0.00000  Uiso   1.00
H946   H     0.98679   0.67269   0.37487   0.00000  Uiso   1.00
H947   H     0.96321   0.65322   0.41729   0.00000  Uiso   1.00
H948   H     0.93194   0.68393   0.38299   0.00000  Uiso   1.00
C949   C     0.55570   0.80718   0.60033   0.00000  Uiso   1.00
H950   H     0.57739   0.78495   0.61493   0.00000  Uiso   1.00
H951   H     0.57646   0.82369   0.57950   0.00000  Uiso   1.00
H952   H     0.54280   0.82976   0.62183   0.00000  Uiso   1.00
C953   C     0.81348   0.54750   0.39801   0.00000  Uiso   1.00
H954   H     0.80344   0.57606   0.38198   0.00000  Uiso   1.00
H955   H     0.83920   0.55546   0.41853   0.00000  Uiso   1.00
H956   H     0.82747   0.52483   0.37717   0.00000  Uiso   1.00
C957   C     0.68535   0.95317   0.60273   0.00000  Uiso   1.00
H958   H     0.65905   0.94594   0.58261   0.00000  Uiso   1.00
H959   H     0.69532   0.92426   0.61826   0.00000  Uiso   1.00
H960   H     0.67215   0.97574   0.62409   0.00000  Uiso   1.00
C961   C     0.79882   0.56297   0.89917   0.00000  Uiso   1.00
H962   H     0.82219   0.54348   0.88348   0.00000  Uiso   1.00
H963   H     0.78296   0.58452   0.87846   0.00000  Uiso   1.00
H964   H     0.81835   0.58105   0.91990   0.00000  Uiso   1.00
C965   C     0.72035   0.92719   0.10304   0.00000  Uiso   1.00
H966   H     0.74455   0.92190   0.12576   0.00000  Uiso   1.00
H967   H     0.68894   0.92752   0.11715   0.00000  Uiso   1.00
H968   H     0.72350   0.89978   0.08333   0.00000  Uiso   1.00
C969   C     0.93503   0.70381   0.89733   0.00000  Uiso   1.00
H970   H     0.92199   0.72654   0.87602   0.00000  Uiso   1.00
H971   H     0.94470   0.67484   0.88174   0.00000  Uiso   1.00
H972   H     0.90869   0.69679   0.91747   0.00000  Uiso   1.00
C973   C     0.56411   0.79677   0.10213   0.00000  Uiso   1.00
H974   H     0.57777   0.77397   0.12304   0.00000  Uiso   1.00
H975   H     0.59001   0.80438   0.08169   0.00000  Uiso   1.00
H976   H     0.55435   0.82546   0.11811   0.00000  Uiso   1.00
C977   C     0.72035   0.92719   0.89696   0.00000  Uiso   1.00
H978   H     0.74455   0.92190   0.87424   0.00000  Uiso   1.00
H979   H     0.72350   0.89978   0.91667   0.00000  Uiso   1.00
H980   H     0.68894   0.92752   0.88285   0.00000  Uiso   1.00
C981   C     0.79882   0.56297   0.10084   0.00000  Uiso   1.00
H982   H     0.82219   0.54348   0.11652   0.00000  Uiso   1.00
H983   H     0.81835   0.58105   0.08010   0.00000  Uiso   1.00
H984   H     0.78296   0.58452   0.12154   0.00000  Uiso   1.00
C985   C     0.56411   0.79677   0.89787   0.00000  Uiso   1.00
H986   H     0.59001   0.80438   0.91831   0.00000  Uiso   1.00
H987   H     0.57777   0.77397   0.87696   0.00000  Uiso   1.00
H988   H     0.55435   0.82546   0.88190   0.00000  Uiso   1.00
C989   C     0.93502   0.70381   0.10267   0.00000  Uiso   1.00
H990   H     0.94470   0.67484   0.11826   0.00000  Uiso   1.00
H991   H     0.92199   0.72654   0.12398   0.00000  Uiso   1.00
H992   H     0.90869   0.69680   0.08253   0.00000  Uiso   1.00
Cl993  Cl    0.89384   0.67707   0.45566   0.00000  Uiso   1.00
Cl994  Cl    0.52563   0.87522   0.54476   0.00000  Uiso   1.00
Cl995  Cl    0.79517   0.61640   0.45544   0.00000  Uiso   1.00
Cl996  Cl    0.70074   0.88465   0.54448   0.00000  Uiso   1.00
Cl997  Cl    0.52563   0.87522   0.45524   0.00000  Uiso   1.00
Cl998  Cl    0.89384   0.67707   0.54434   0.00000  Uiso   1.00
Cl999  Cl    0.70074   0.88465   0.45552   0.00000  Uiso   1.00
Cl1000 Cl    0.79517   0.61640   0.54456   0.00000  Uiso   1.00
Cl1001 Cl    0.65255   0.91583   0.95571   0.00000  Uiso   1.00
Cl1002 Cl    0.76265   0.62700   0.04470   0.00000  Uiso   1.00
Cl1003 Cl    0.54702   0.86578   0.95545   0.00000  Uiso   1.00
Cl1004 Cl    0.94989   0.63510   0.04448   0.00000  Uiso   1.00
Cl1005 Cl    0.76265   0.62700   0.95530   0.00000  Uiso   1.00
Cl1006 Cl    0.65255   0.91583   0.04429   0.00000  Uiso   1.00
Cl1007 Cl    0.94989   0.63510   0.95552   0.00000  Uiso   1.00
Cl1008 Cl    0.54702   0.86578   0.04455   0.00000  Uiso   1.00
loop_
_geom_bond_atom_site_label_1
_geom_bond_atom_site_label_2
_geom_bond_distance
_geom_bond_site_symmetry_2
_ccdc_geom_bond_type
Zn1    O63     1.916   .     S
Zn1    O17     1.934   .     S
Zn1    O32     1.947   .     S
Zn1    O564    1.915   1_545 S
Zn2    O59     1.915   .     S
Zn2    O31     1.947   .     S
Zn2    O18     1.934   .     S
Zn2    O568    1.916   1_545 S
Zn3    O54     1.916   .     S
Zn3    O19     1.935   .     S
Zn3    O34     1.947   .     S
Zn3    O313    1.914   1_455 S
Zn4    O62     1.914   .     S
Zn4    O33     1.947   .     S
Zn4    O20     1.935   .     S
Zn4    O305    1.916   1_455 S
Zn5    O56     1.915   .     S
Zn5    O17     1.934   .     S
Zn5    O36     1.947   .     S
Zn5    O571    1.916   1_545 S
Zn6    O35     1.947   .     S
Zn6    O18     1.934   .     S
Zn6    O68     1.916   .     S
Zn6    O559    1.915   1_545 S
Zn7    O30     1.947   .     S
Zn7    O19     1.935   .     S
Zn7    O65     1.914   .     S
Zn7    O310    1.916   1_455 S
Zn8    O29     1.947   .     S
Zn8    O57     1.916   .     S
Zn8    O20     1.935   .     S
Zn8    O318    1.914   1_455 S
Zn9    O272    1.934   .     S
Zn9    O47     1.916   .     S
Zn9    O44     1.915   .     S
Zn9    O24     1.947   .     S
Zn10   O19     1.934   .     S
Zn10   O48     1.916   .     S
Zn10   O43     1.915   .     S
Zn10   O23     1.947   .     S
Zn11   O26     1.947   .     S
Zn11   O45     1.914   .     S
Zn11   O38     1.916   .     S
Zn11   O522    1.935   .     S
Zn12   O17     1.935   .     S
Zn12   O46     1.914   .     S
Zn12   O25     1.947   .     S
Zn12   O37     1.916   .     S
Zn13   O40     1.915   .     S
Zn13   O51     1.916   .     S
Zn13   O28     1.947   .     S
Zn13   O20     1.934   .     S
Zn14   O39     1.915   .     S
Zn14   O52     1.916   .     S
Zn14   O27     1.947   .     S
Zn14   O271    1.934   .     S
Zn15   O18     1.935   .     S
Zn15   O22     1.947   .     S
Zn15   O42     1.916   .     S
Zn15   O49     1.914   .     S
Zn16   O21     1.947   .     S
Zn16   O50     1.914   .     S
Zn16   O41     1.916   .     S
Zn16   O521    1.935   .     S
O17    Zn520   1.935   1_545 S
O18    Zn515   1.935   1_545 S
O19    Zn266   1.934   1_455 S
O20    Zn261   1.934   1_455 S
O21    C573    1.271   .     S
O22    C70     1.270   .     A
O23    C71     1.272   .     A
O24    C324    1.273   .     S
O25    C69     1.270   .     A
O26    C574    1.271   .     S
O27    C323    1.273   .     S
O28    C72     1.272   .     A
O29    C325    1.271   1_455 S
O30    C326    1.270   1_455 S
O31    C75     1.272   .     A
O32    C76     1.272   .     S
O33    C325    1.270   1_455 S
O34    C326    1.271   1_455 S
O35    C75     1.272   .     A
O36    C76     1.272   .     S
O37    C77     1.276   .     A
O38    C78     1.276   .     A
O39    C79     1.276   .     A
O40    C80     1.276   .     A
O41    C81     1.276   .     A
O42    C82     1.276   .     A
O43    C83     1.276   .     A
O44    C84     1.276   .     A
O45    C85     1.276   .     A
O46    C86     1.276   .     A
O47    C87     1.276   .     A
O48    C88     1.276   .     A
O49    C89     1.276   .     A
O50    C90     1.276   .     A
O51    C91     1.276   .     A
O52    C92     1.276   .     A
O53    C87     1.276   .     A
O53    Zn256   1.916   .     S
O54    C88     1.276   .     A
O55    C85     1.276   .     A
O55    Zn510   1.915   .     S
O56    C86     1.276   .     A
O57    C91     1.276   .     A
O58    C92     1.276   .     A
O58    Zn259   1.916   .     S
O59    C89     1.276   .     A
O60    C90     1.276   .     A
O60    Zn505   1.915   .     S
O61    C79     1.276   .     A
O61    Zn255   1.914   .     S
O62    C80     1.276   .     A
O63    C77     1.276   .     A
O64    C78     1.276   .     A
O64    Zn506   1.916   .     S
O65    C83     1.276   .     A
O66    C84     1.276   .     A
O66    Zn260   1.914   .     S
O67    C81     1.276   .     A
O67    Zn509   1.916   .     S
O68    C82     1.276   .     A
C69    C127    1.464   .     S
C69    O525    1.271   1_545 S
C70    C128    1.464   .     S
C70    O530    1.271   1_545 S
C71    O279    1.273   1_455 S
C71    C377    1.475   1_455 S
C72    O276    1.273   1_455 S
C72    C378    1.475   1_455 S
C73    C131    1.464   .     S
C73    O281    1.271   .     S
C73    O285    1.270   .     S
C74    C132    1.464   .     S
C74    O282    1.270   .     S
C74    O286    1.271   .     S
C75    C129    1.473   .     S
C76    C130    1.473   .     S
C77    C106    1.423   .     S
C78    C105    1.423   .     S
C79    C104    1.422   .     S
C80    C103    1.422   .     S
C81    C102    1.423   .     S
C82    C101    1.423   .     S
C83    C108    1.422   .     S
C84    C107    1.422   .     S
C85    C98     1.422   .     S
C86    C97     1.422   .     S
C87    C96     1.423   .     S
C88    C95     1.423   .     S
C89    C94     1.422   .     S
C90    C93     1.422   .     S
C91    C100    1.423   .     S
C92    C99     1.423   .     S
C93    C108    1.198   .     T
C94    C107    1.198   .     T
C95    C106    1.199   .     T
C96    C105    1.199   .     T
C97    C104    1.198   .     T
C98    C103    1.198   .     T
C99    C102    1.199   .     T
C100   C101    1.199   .     T
C109   C173    1.518   .     S
C109   C137    1.415   .     A
C109   C377    1.413   1_455 S
C110   C138    1.420   .     A
C110   C177    1.519   .     S
C110   C126    1.414   .     A
C111   C139    1.414   .     A
C111   C181    1.517   .     S
C111   C631    1.410   .     S
C112   C140    1.412   .     A
C112   C185    1.518   .     S
C112   C128    1.409   .     A
C113   C189    1.519   .     S
C113   C125    1.414   .     A
C113   C133    1.420   .     A
C114   C193    1.518   .     S
C114   C134    1.415   .     A
C114   C378    1.413   1_455 S
C115   C197    1.518   .     S
C115   C127    1.409   .     A
C115   C135    1.412   .     A
C116   C201    1.517   .     S
C116   C136    1.414   .     A
C116   C632    1.410   .     S
C117   C145    1.416   .     A
C117   C205    1.518   .     S
C117   C129    1.411   .     A
C118   C146    1.421   .     A
C118   C209    1.519   .     S
C118   C634    1.413   .     S
C119   C147    1.413   .     A
C119   C131    1.410   .     A
C119   C213    1.517   .     S
C120   C217    1.518   .     S
C120   C148    1.412   .     A
C120   C384    1.409   1_455 S
C121   C141    1.421   .     A
C121   C221    1.519   .     S
C121   C633    1.413   .     S
C122   C225    1.518   .     S
C122   C142    1.416   .     A
C122   C130    1.411   .     A
C123   C229    1.518   .     S
C123   C143    1.412   .     A
C123   C383    1.409   1_455 S
C124   C132    1.410   .     A
C124   C233    1.517   .     S
C124   C144    1.413   .     A
C125   C323    1.475   .     S
C125   C361    1.413   .     S
C126   C324    1.475   .     S
C126   C366    1.413   .     S
C127   C615    1.410   1_545 S
C128   C620    1.410   1_545 S
C129   C625    1.413   1_545 S
C130   C622    1.413   1_545 S
C131   C375    1.409   .     S
C132   C372    1.409   .     S
C133   C149    1.416   .     A
C133   C157    1.420   .     A
C134   C158    1.417   .     A
C134   C402    1.415   1_455 S
C135   C151    1.418   .     A
C135   C159    1.416   .     A
C136   C160    1.417   .     A
C136   C656    1.418   .     S
C137   C161    1.417   .     A
C137   C401    1.415   1_455 S
C138   C150    1.416   .     A
C138   C162    1.420   .     A
C139   C163    1.417   .     A
C139   C655    1.418   .     S
C140   C152    1.418   .     A
C140   C164    1.416   .     A
C141   C165    1.420   .     A
C141   C657    1.417   .     S
C142   C154    1.416   .     A
C142   C166    1.417   .     A
C143   C167    1.416   .     A
C143   C407    1.418   1_455 S
C144   C168    1.417   .     A
C144   C156    1.418   .     A
C145   C153    1.416   .     A
C145   C169    1.417   .     A
C146   C170    1.420   .     A
C146   C658    1.417   .     S
C147   C155    1.418   .     A
C147   C171    1.417   .     A
C148   C172    1.416   .     A
C148   C408    1.418   1_455 S
C149   C150    1.414   .     A
C149   C389    1.415   .     S
C150   C386    1.415   .     S
C151   C152    1.409   .     A
C151   C643    1.418   1_545 S
C152   C640    1.418   1_545 S
C153   C645    1.417   1_545 S
C153   C154    1.415   1_556 S
C154   C650    1.417   1_545 S
C154   C153    1.415   1_554 S
C155   C395    1.418   .     S
C155   C156    1.410   1_556 S
C156   C400    1.418   .     S
C156   C155    1.410   1_554 S
C157   Cl237   1.776   .     S
C157   C162    1.407   .     A
C158   C161    1.403   .     A
C158   Cl238   1.776   .     S
C159   Cl239   1.775   .     S
C159   C164    1.402   .     A
C160   C163    1.403   .     A
C160   Cl240   1.776   .     S
C161   Cl241   1.776   .     S
C162   Cl242   1.776   .     S
C163   Cl243   1.776   .     S
C164   Cl244   1.775   .     S
C165   Cl245   1.776   .     S
C165   C170    1.407   1_556 S
C166   Cl246   1.776   .     S
C166   C169    1.404   1_554 S
C167   Cl247   1.775   .     S
C167   C172    1.402   1_556 S
C168   Cl248   1.776   .     S
C168   C171    1.403   1_554 S
C169   Cl249   1.776   .     S
C169   C166    1.404   1_556 S
C170   Cl250   1.776   .     S
C170   C165    1.407   1_554 S
C171   Cl251   1.776   .     S
C171   C168    1.403   1_556 S
C172   Cl252   1.775   .     S
C172   C167    1.402   1_554 S
C173   H174    1.108   .     S
C173   H175    1.110   .     S
C173   H176    1.107   .     S
C177   H179    1.110   .     S
C177   H180    1.110   .     S
C177   H178    1.110   .     S
C181   H182    1.111   .     S
C181   H184    1.110   .     S
C181   H183    1.110   .     S
C185   H187    1.110   .     S
C185   H188    1.110   .     S
C185   H186    1.111   .     S
C189   H192    1.110   .     S
C189   H191    1.110   .     S
C189   H190    1.110   .     S
C193   H196    1.110   .     S
C193   H195    1.107   .     S
C193   H194    1.108   .     S
C197   H200    1.111   .     S
C197   H198    1.110   .     S
C197   H199    1.110   .     S
C201   H202    1.110   .     S
C201   H203    1.110   .     S
C201   H204    1.111   .     S
C205   H206    1.108   .     S
C205   H207    1.110   .     S
C205   H208    1.107   .     S
C209   H212    1.110   .     S
C209   H210    1.110   .     S
C209   H211    1.110   .     S
C213   H214    1.111   .     S
C213   H216    1.110   .     S
C213   H215    1.110   .     S
C217   H220    1.110   .     S
C217   H218    1.111   .     S
C217   H219    1.110   .     S
C221   H222    1.110   .     S
C221   H224    1.110   .     S
C221   H223    1.110   .     S
C225   H226    1.108   .     S
C225   H228    1.110   .     S
C225   H227    1.107   .     S
C229   H230    1.110   .     S
C229   H232    1.110   .     S
C229   H231    1.111   .     S
C233   H234    1.110   .     S
C233   H235    1.111   .     S
C233   H236    1.110   .     S
Zn253  O315    1.916   .     S
Zn253  O269    1.934   .     S
Zn253  O284    1.947   .     S
Zn253  O816    1.915   1_545 S
Zn254  O311    1.915   .     S
Zn254  O283    1.947   .     S
Zn254  O270    1.934   .     S
Zn254  O820    1.916   1_545 S
Zn255  O306    1.916   .     S
Zn255  O271    1.935   .     S
Zn255  O286    1.947   .     S
Zn256  O314    1.914   .     S
Zn256  O285    1.947   .     S
Zn256  O272    1.935   .     S
Zn257  O308    1.915   .     S
Zn257  O269    1.934   .     S
Zn257  O288    1.947   .     S
Zn257  O823    1.916   1_545 S
Zn258  O287    1.947   .     S
Zn258  O270    1.934   .     S
Zn258  O320    1.916   .     S
Zn258  O811    1.915   1_545 S
Zn259  O282    1.947   .     S
Zn259  O271    1.935   .     S
Zn259  O317    1.914   .     S
Zn260  O281    1.947   .     S
Zn260  O309    1.916   .     S
Zn260  O272    1.935   .     S
Zn261  O20     1.934   1_655 S
Zn261  O299    1.916   .     S
Zn261  O296    1.915   .     S
Zn261  O276    1.947   .     S
Zn262  O271    1.934   .     S
Zn262  O300    1.916   .     S
Zn262  O295    1.915   .     S
Zn262  O275    1.947   .     S
Zn263  O278    1.947   .     S
Zn263  O297    1.914   .     S
Zn263  O290    1.916   .     S
Zn263  O774    1.935   .     S
Zn264  O269    1.935   .     S
Zn264  O298    1.914   .     S
Zn264  O277    1.947   .     S
Zn264  O289    1.916   .     S
Zn265  O292    1.915   .     S
Zn265  O303    1.916   .     S
Zn265  O280    1.947   .     S
Zn265  O272    1.934   .     S
Zn266  O291    1.915   .     S
Zn266  O304    1.916   .     S
Zn266  O279    1.947   .     S
Zn266  O19     1.934   1_655 S
Zn267  O270    1.935   .     S
Zn267  O274    1.947   .     S
Zn267  O294    1.916   .     S
Zn267  O301    1.914   .     S
Zn268  O273    1.947   .     S
Zn268  O302    1.914   .     S
Zn268  O293    1.916   .     S
Zn268  O773    1.935   .     S
O269   Zn772   1.935   1_545 S
O270   Zn767   1.935   1_545 S
O273   C825    1.271   .     S
O274   C322    1.270   .     A
O275   C323    1.272   .     A
O276   C72     1.273   1_655 S
O277   C321    1.270   .     A
O278   C826    1.271   .     S
O279   C71     1.273   1_655 S
O280   C324    1.272   .     A
O283   C327    1.272   .     A
O284   C328    1.272   .     S
O287   C327    1.272   .     A
O288   C328    1.272   .     S
O289   C329    1.276   .     A
O290   C330    1.276   .     A
O291   C331    1.276   .     A
O292   C332    1.276   .     A
O293   C333    1.276   .     A
O294   C334    1.276   .     A
O295   C335    1.276   .     A
O296   C336    1.276   .     A
O297   C337    1.276   .     A
O298   C338    1.276   .     A
O299   C339    1.276   .     A
O300   C340    1.276   .     A
O301   C341    1.276   .     A
O302   C342    1.276   .     A
O303   C343    1.276   .     A
O304   C344    1.276   .     A
O305   C339    1.276   .     A
O305   Zn4     1.916   1_655 S
O306   C340    1.276   .     A
O307   C337    1.276   .     A
O307   Zn762   1.915   .     S
O308   C338    1.276   .     A
O309   C343    1.276   .     A
O310   C344    1.276   .     A
O310   Zn7     1.916   1_655 S
O311   C341    1.276   .     A
O312   C342    1.276   .     A
O312   Zn757   1.915   .     S
O313   C331    1.276   .     A
O313   Zn3     1.914   1_655 S
O314   C332    1.276   .     A
O315   C329    1.276   .     A
O316   C330    1.276   .     A
O316   Zn758   1.916   .     S
O317   C335    1.276   .     A
O318   C336    1.276   .     A
O318   Zn8     1.914   1_655 S
O319   C333    1.276   .     A
O319   Zn761   1.916   .     S
O320   C334    1.276   .     A
C321   C379    1.464   .     S
C321   O777    1.271   1_545 S
C322   C380    1.464   .     S
C322   O782    1.271   1_545 S
C325   C383    1.464   .     S
C325   O29     1.271   1_655 S
C325   O33     1.270   1_655 S
C326   C384    1.464   .     S
C326   O30     1.270   1_655 S
C326   O34     1.271   1_655 S
C327   C381    1.473   .     S
C328   C382    1.473   .     S
C329   C358    1.423   .     S
C330   C357    1.423   .     S
C331   C356    1.422   .     S
C332   C355    1.422   .     S
C333   C354    1.423   .     S
C334   C353    1.423   .     S
C335   C360    1.422   .     S
C336   C359    1.422   .     S
C337   C350    1.422   .     S
C338   C349    1.422   .     S
C339   C348    1.423   .     S
C340   C347    1.423   .     S
C341   C346    1.422   .     S
C342   C345    1.422   .     S
C343   C352    1.423   .     S
C344   C351    1.423   .     S
C345   C360    1.198   .     T
C346   C359    1.198   .     T
C347   C358    1.199   .     T
C348   C357    1.199   .     T
C349   C356    1.198   .     T
C350   C355    1.198   .     T
C351   C354    1.199   .     T
C352   C353    1.199   .     T
C361   C425    1.518   .     S
C361   C389    1.415   .     A
C362   C390    1.420   .     A
C362   C429    1.519   .     S
C362   C378    1.414   .     A
C363   C391    1.414   .     A
C363   C433    1.517   .     S
C363   C883    1.410   .     S
C364   C392    1.412   .     A
C364   C437    1.518   .     S
C364   C380    1.409   .     A
C365   C441    1.519   .     S
C365   C377    1.414   .     A
C365   C385    1.420   .     A
C366   C445    1.518   .     S
C366   C386    1.415   .     A
C367   C449    1.518   .     S
C367   C379    1.409   .     A
C367   C387    1.412   .     A
C368   C453    1.517   .     S
C368   C388    1.414   .     A
C368   C884    1.410   .     S
C369   C397    1.416   .     A
C369   C457    1.518   .     S
C369   C381    1.411   .     A
C370   C398    1.421   .     A
C370   C461    1.519   .     S
C370   C886    1.413   .     S
C371   C399    1.413   .     A
C371   C383    1.410   .     A
C371   C465    1.517   .     S
C372   C469    1.518   .     S
C372   C400    1.412   .     A
C373   C393    1.421   .     A
C373   C473    1.519   .     S
C373   C885    1.413   .     S
C374   C477    1.518   .     S
C374   C394    1.416   .     A
C374   C382    1.411   .     A
C375   C481    1.518   .     S
C375   C395    1.412   .     A
C376   C384    1.410   .     A
C376   C485    1.517   .     S
C376   C396    1.413   .     A
C377   C71     1.475   1_655 S
C377   C109    1.413   1_655 S
C378   C72     1.475   1_655 S
C378   C114    1.413   1_655 S
C379   C867    1.410   1_545 S
C380   C872    1.410   1_545 S
C381   C877    1.413   1_545 S
C382   C874    1.413   1_545 S
C383   C123    1.409   1_655 S
C384   C120    1.409   1_655 S
C385   C401    1.416   .     A
C385   C409    1.420   .     A
C386   C410    1.417   .     A
C387   C403    1.418   .     A
C387   C411    1.416   .     A
C388   C412    1.417   .     A
C388   C908    1.418   .     S
C389   C413    1.417   .     A
C390   C402    1.416   .     A
C390   C414    1.420   .     A
C391   C415    1.417   .     A
C391   C907    1.418   .     S
C392   C404    1.418   .     A
C392   C416    1.416   .     A
C393   C417    1.420   .     A
C393   C909    1.417   .     S
C394   C406    1.416   .     A
C394   C418    1.417   .     A
C395   C419    1.416   .     A
C396   C420    1.417   .     A
C396   C408    1.418   .     A
C397   C405    1.416   .     A
C397   C421    1.417   .     A
C398   C422    1.420   .     A
C398   C910    1.417   .     S
C399   C407    1.418   .     A
C399   C423    1.417   .     A
C400   C424    1.416   .     A
C401   C402    1.414   .     A
C401   C137    1.415   1_655 S
C402   C134    1.415   1_655 S
C403   C404    1.409   .     A
C403   C895    1.418   1_545 S
C404   C892    1.418   1_545 S
C405   C897    1.417   1_545 S
C405   C406    1.415   1_556 S
C406   C902    1.417   1_545 S
C406   C405    1.415   1_554 S
C407   C143    1.418   1_655 S
C407   C408    1.410   1_556 S
C408   C148    1.418   1_655 S
C408   C407    1.410   1_554 S
C409   Cl489   1.776   .     S
C409   C414    1.407   .     A
C410   C413    1.403   .     A
C410   Cl490   1.776   .     S
C411   Cl491   1.775   .     S
C411   C416    1.402   .     A
C412   C415    1.403   .     A
C412   Cl492   1.776   .     S
C413   Cl493   1.776   .     S
C414   Cl494   1.776   .     S
C415   Cl495   1.776   .     S
C416   Cl496   1.775   .     S
C417   Cl497   1.776   .     S
C417   C422    1.407   1_556 S
C418   Cl498   1.776   .     S
C418   C421    1.404   1_554 S
C419   Cl499   1.775   .     S
C419   C424    1.402   1_556 S
C420   Cl500   1.776   .     S
C420   C423    1.403   1_554 S
C421   Cl501   1.776   .     S
C421   C418    1.404   1_556 S
C422   Cl502   1.776   .     S
C422   C417    1.407   1_554 S
C423   Cl503   1.776   .     S
C423   C420    1.403   1_556 S
C424   Cl504   1.775   .     S
C424   C419    1.402   1_554 S
C425   H426    1.108   .     S
C425   H427    1.110   .     S
C425   H428    1.107   .     S
C429   H431    1.110   .     S
C429   H432    1.110   .     S
C429   H430    1.110   .     S
C433   H434    1.111   .     S
C433   H436    1.110   .     S
C433   H435    1.110   .     S
C437   H439    1.110   .     S
C437   H440    1.110   .     S
C437   H438    1.111   .     S
C441   H444    1.110   .     S
C441   H443    1.110   .     S
C441   H442    1.110   .     S
C445   H448    1.110   .     S
C445   H447    1.107   .     S
C445   H446    1.108   .     S
C449   H452    1.111   .     S
C449   H450    1.110   .     S
C449   H451    1.110   .     S
C453   H454    1.110   .     S
C453   H455    1.110   .     S
C453   H456    1.111   .     S
C457   H458    1.108   .     S
C457   H459    1.110   .     S
C457   H460    1.107   .     S
C461   H464    1.110   .     S
C461   H462    1.110   .     S
C461   H463    1.110   .     S
C465   H466    1.111   .     S
C465   H468    1.110   .     S
C465   H467    1.110   .     S
C469   H472    1.110   .     S
C469   H470    1.111   .     S
C469   H471    1.110   .     S
C473   H474    1.110   .     S
C473   H476    1.110   .     S
C473   H475    1.110   .     S
C477   H478    1.108   .     S
C477   H480    1.110   .     S
C477   H479    1.107   .     S
C481   H482    1.110   .     S
C481   H484    1.110   .     S
C481   H483    1.111   .     S
C485   H486    1.110   .     S
C485   H487    1.111   .     S
C485   H488    1.110   .     S
Zn505  O567    1.916   .     S
Zn505  O521    1.934   .     S
Zn505  O536    1.947   .     S
Zn506  O563    1.915   .     S
Zn506  O535    1.947   .     S
Zn506  O522    1.934   .     S
Zn507  O558    1.916   .     S
Zn507  O523    1.935   .     S
Zn507  O538    1.947   .     S
Zn507  O817    1.914   1_455 S
Zn508  O566    1.914   .     S
Zn508  O537    1.947   .     S
Zn508  O524    1.935   .     S
Zn508  O809    1.916   1_455 S
Zn509  O560    1.915   .     S
Zn509  O521    1.934   .     S
Zn509  O540    1.947   .     S
Zn510  O539    1.947   .     S
Zn510  O522    1.934   .     S
Zn510  O572    1.916   .     S
Zn511  O534    1.947   .     S
Zn511  O523    1.935   .     S
Zn511  O569    1.914   .     S
Zn511  O814    1.916   1_455 S
Zn512  O533    1.947   .     S
Zn512  O561    1.916   .     S
Zn512  O524    1.935   .     S
Zn512  O822    1.914   1_455 S
Zn513  O776    1.934   .     S
Zn513  O551    1.916   .     S
Zn513  O548    1.915   .     S
Zn513  O528    1.947   .     S
Zn514  O523    1.934   .     S
Zn514  O552    1.916   .     S
Zn514  O547    1.915   .     S
Zn514  O527    1.947   .     S
Zn515  O530    1.947   .     S
Zn515  O549    1.914   .     S
Zn515  O542    1.916   .     S
Zn515  O18     1.935   1_565 S
Zn516  O521    1.935   .     S
Zn516  O550    1.914   .     S
Zn516  O529    1.947   .     S
Zn516  O541    1.916   .     S
Zn517  O544    1.915   .     S
Zn517  O555    1.916   .     S
Zn517  O532    1.947   .     S
Zn517  O524    1.934   .     S
Zn518  O543    1.915   .     S
Zn518  O556    1.916   .     S
Zn518  O531    1.947   .     S
Zn518  O775    1.934   .     S
Zn519  O522    1.935   .     S
Zn519  O526    1.947   .     S
Zn519  O546    1.916   .     S
Zn519  O553    1.914   .     S
Zn520  O525    1.947   .     S
Zn520  O554    1.914   .     S
Zn520  O545    1.916   .     S
Zn520  O17     1.935   1_565 S
O523   Zn770   1.934   1_455 S
O524   Zn765   1.934   1_455 S
O525   C69     1.271   1_565 S
O526   C574    1.270   .     A
O527   C575    1.272   .     A
O528   C828    1.273   .     S
O529   C573    1.270   .     A
O530   C70     1.271   1_565 S
O531   C827    1.273   .     S
O532   C576    1.272   .     A
O533   C829    1.271   1_455 S
O534   C830    1.270   1_455 S
O535   C579    1.272   .     A
O536   C580    1.272   .     S
O537   C829    1.270   1_455 S
O538   C830    1.271   1_455 S
O539   C579    1.272   .     A
O540   C580    1.272   .     S
O541   C581    1.276   .     A
O542   C582    1.276   .     A
O543   C583    1.276   .     A
O544   C584    1.276   .     A
O545   C585    1.276   .     A
O546   C586    1.276   .     A
O547   C587    1.276   .     A
O548   C588    1.276   .     A
O549   C589    1.276   .     A
O550   C590    1.276   .     A
O551   C591    1.276   .     A
O552   C592    1.276   .     A
O553   C593    1.276   .     A
O554   C594    1.276   .     A
O555   C595    1.276   .     A
O556   C596    1.276   .     A
O557   C591    1.276   .     A
O557   Zn760   1.916   .     S
O558   C592    1.276   .     A
O559   C589    1.276   .     A
O559   Zn6     1.915   1_565 S
O560   C590    1.276   .     A
O561   C595    1.276   .     A
O562   C596    1.276   .     A
O562   Zn763   1.916   .     S
O563   C593    1.276   .     A
O564   C594    1.276   .     A
O564   Zn1     1.915   1_565 S
O565   C583    1.276   .     A
O565   Zn759   1.914   .     S
O566   C584    1.276   .     A
O567   C581    1.276   .     A
O568   C582    1.276   .     A
O568   Zn2     1.916   1_565 S
O569   C587    1.276   .     A
O570   C588    1.276   .     A
O570   Zn764   1.914   .     S
O571   C585    1.276   .     A
O571   Zn5     1.916   1_565 S
O572   C586    1.276   .     A
C573   C631    1.464   .     S
C574   C632    1.464   .     S
C575   O783    1.273   1_455 S
C575   C881    1.475   1_455 S
C576   O780    1.273   1_455 S
C576   C882    1.475   1_455 S
C577   C635    1.464   .     S
C577   O785    1.271   .     S
C577   O789    1.270   .     S
C578   C636    1.464   .     S
C578   O786    1.270   .     S
C578   O790    1.271   .     S
C579   C633    1.473   .     S
C580   C634    1.473   .     S
C581   C610    1.423   .     S
C582   C609    1.423   .     S
C583   C608    1.422   .     S
C584   C607    1.422   .     S
C585   C606    1.423   .     S
C586   C605    1.423   .     S
C587   C612    1.422   .     S
C588   C611    1.422   .     S
C589   C602    1.422   .     S
C590   C601    1.422   .     S
C591   C600    1.423   .     S
C592   C599    1.423   .     S
C593   C598    1.422   .     S
C594   C597    1.422   .     S
C595   C604    1.423   .     S
C596   C603    1.423   .     S
C597   C612    1.198   .     T
C598   C611    1.198   .     T
C599   C610    1.199   .     T
C600   C609    1.199   .     T
C601   C608    1.198   .     T
C602   C607    1.198   .     T
C603   C606    1.199   .     T
C604   C605    1.199   .     T
C613   C677    1.518   .     S
C613   C641    1.415   .     A
C613   C881    1.413   1_455 S
C614   C642    1.420   .     A
C614   C681    1.519   .     S
C614   C630    1.414   .     A
C615   C643    1.414   .     A
C615   C685    1.517   .     S
C615   C127    1.410   1_565 S
C616   C644    1.412   .     A
C616   C689    1.518   .     S
C616   C632    1.409   .     A
C617   C693    1.519   .     S
C617   C629    1.414   .     A
C617   C637    1.420   .     A
C618   C697    1.518   .     S
C618   C638    1.415   .     A
C618   C882    1.413   1_455 S
C619   C701    1.518   .     S
C619   C631    1.409   .     A
C619   C639    1.412   .     A
C620   C705    1.517   .     S
C620   C640    1.414   .     A
C620   C128    1.410   1_565 S
C621   C649    1.416   .     A
C621   C709    1.518   .     S
C621   C633    1.411   .     A
C622   C650    1.421   .     A
C622   C713    1.519   .     S
C622   C130    1.413   1_565 S
C623   C651    1.413   .     A
C623   C635    1.410   .     A
C623   C717    1.517   .     S
C624   C721    1.518   .     S
C624   C652    1.412   .     A
C624   C888    1.409   1_455 S
C625   C645    1.421   .     A
C625   C725    1.519   .     S
C625   C129    1.413   1_565 S
C626   C729    1.518   .     S
C626   C646    1.416   .     A
C626   C634    1.411   .     A
C627   C733    1.518   .     S
C627   C647    1.412   .     A
C627   C887    1.409   1_455 S
C628   C636    1.410   .     A
C628   C737    1.517   .     S
C628   C648    1.413   .     A
C629   C827    1.475   .     S
C629   C865    1.413   .     S
C630   C828    1.475   .     S
C630   C870    1.413   .     S
C635   C879    1.409   .     S
C636   C876    1.409   .     S
C637   C653    1.416   .     A
C637   C661    1.420   .     A
C638   C662    1.417   .     A
C638   C906    1.415   1_455 S
C639   C655    1.418   .     A
C639   C663    1.416   .     A
C640   C664    1.417   .     A
C640   C152    1.418   1_565 S
C641   C665    1.417   .     A
C641   C905    1.415   1_455 S
C642   C654    1.416   .     A
C642   C666    1.420   .     A
C643   C667    1.417   .     A
C643   C151    1.418   1_565 S
C644   C656    1.418   .     A
C644   C668    1.416   .     A
C645   C669    1.420   .     A
C645   C153    1.417   1_565 S
C646   C658    1.416   .     A
C646   C670    1.417   .     A
C647   C671    1.416   .     A
C647   C911    1.418   1_455 S
C648   C672    1.417   .     A
C648   C660    1.418   .     A
C649   C657    1.416   .     A
C649   C673    1.417   .     A
C650   C674    1.420   .     A
C650   C154    1.417   1_565 S
C651   C659    1.418   .     A
C651   C675    1.417   .     A
C652   C676    1.416   .     A
C652   C912    1.418   1_455 S
C653   C654    1.414   .     A
C653   C893    1.415   .     S
C654   C890    1.415   .     S
C655   C656    1.409   .     A
C657   C658    1.415   1_556 S
C658   C657    1.415   1_554 S
C659   C899    1.418   .     S
C659   C660    1.410   1_556 S
C660   C904    1.418   .     S
C660   C659    1.410   1_554 S
C661   Cl741   1.776   .     S
C661   C666    1.407   .     A
C662   C665    1.403   .     A
C662   Cl742   1.776   .     S
C663   Cl743   1.775   .     S
C663   C668    1.402   .     A
C664   C667    1.403   .     A
C664   Cl744   1.776   .     S
C665   Cl745   1.776   .     S
C666   Cl746   1.776   .     S
C667   Cl747   1.776   .     S
C668   Cl748   1.775   .     S
C669   Cl749   1.776   .     S
C669   C674    1.407   1_556 S
C670   Cl750   1.776   .     S
C670   C673    1.404   1_554 S
C671   Cl751   1.775   .     S
C671   C676    1.402   1_556 S
C672   Cl752   1.776   .     S
C672   C675    1.403   1_554 S
C673   Cl753   1.776   .     S
C673   C670    1.404   1_556 S
C674   Cl754   1.776   .     S
C674   C669    1.407   1_554 S
C675   Cl755   1.776   .     S
C675   C672    1.403   1_556 S
C676   Cl756   1.775   .     S
C676   C671    1.402   1_554 S
C677   H678    1.108   .     S
C677   H679    1.110   .     S
C677   H680    1.107   .     S
C681   H683    1.110   .     S
C681   H684    1.110   .     S
C681   H682    1.110   .     S
C685   H686    1.111   .     S
C685   H688    1.110   .     S
C685   H687    1.110   .     S
C689   H691    1.110   .     S
C689   H692    1.110   .     S
C689   H690    1.111   .     S
C693   H696    1.110   .     S
C693   H695    1.110   .     S
C693   H694    1.110   .     S
C697   H700    1.110   .     S
C697   H699    1.107   .     S
C697   H698    1.108   .     S
C701   H704    1.111   .     S
C701   H702    1.110   .     S
C701   H703    1.110   .     S
C705   H706    1.110   .     S
C705   H707    1.110   .     S
C705   H708    1.111   .     S
C709   H710    1.108   .     S
C709   H711    1.110   .     S
C709   H712    1.107   .     S
C713   H716    1.110   .     S
C713   H714    1.110   .     S
C713   H715    1.110   .     S
C717   H718    1.111   .     S
C717   H720    1.110   .     S
C717   H719    1.110   .     S
C721   H724    1.110   .     S
C721   H722    1.111   .     S
C721   H723    1.110   .     S
C725   H726    1.110   .     S
C725   H728    1.110   .     S
C725   H727    1.110   .     S
C729   H730    1.108   .     S
C729   H732    1.110   .     S
C729   H731    1.107   .     S
C733   H734    1.110   .     S
C733   H736    1.110   .     S
C733   H735    1.111   .     S
C737   H738    1.110   .     S
C737   H739    1.111   .     S
C737   H740    1.110   .     S
Zn757  O819    1.916   .     S
Zn757  O773    1.934   .     S
Zn757  O788    1.947   .     S
Zn758  O815    1.915   .     S
Zn758  O787    1.947   .     S
Zn758  O774    1.934   .     S
Zn759  O810    1.916   .     S
Zn759  O775    1.935   .     S
Zn759  O790    1.947   .     S
Zn760  O818    1.914   .     S
Zn760  O789    1.947   .     S
Zn760  O776    1.935   .     S
Zn761  O812    1.915   .     S
Zn761  O773    1.934   .     S
Zn761  O792    1.947   .     S
Zn762  O791    1.947   .     S
Zn762  O774    1.934   .     S
Zn762  O824    1.916   .     S
Zn763  O786    1.947   .     S
Zn763  O775    1.935   .     S
Zn763  O821    1.914   .     S
Zn764  O785    1.947   .     S
Zn764  O813    1.916   .     S
Zn764  O776    1.935   .     S
Zn765  O524    1.934   1_655 S
Zn765  O803    1.916   .     S
Zn765  O800    1.915   .     S
Zn765  O780    1.947   .     S
Zn766  O775    1.934   .     S
Zn766  O804    1.916   .     S
Zn766  O799    1.915   .     S
Zn766  O779    1.947   .     S
Zn767  O782    1.947   .     S
Zn767  O801    1.914   .     S
Zn767  O794    1.916   .     S
Zn767  O270    1.935   1_565 S
Zn768  O773    1.935   .     S
Zn768  O802    1.914   .     S
Zn768  O781    1.947   .     S
Zn768  O793    1.916   .     S
Zn769  O796    1.915   .     S
Zn769  O807    1.916   .     S
Zn769  O784    1.947   .     S
Zn769  O776    1.934   .     S
Zn770  O795    1.915   .     S
Zn770  O808    1.916   .     S
Zn770  O783    1.947   .     S
Zn770  O523    1.934   1_655 S
Zn771  O774    1.935   .     S
Zn771  O778    1.947   .     S
Zn771  O798    1.916   .     S
Zn771  O805    1.914   .     S
Zn772  O777    1.947   .     S
Zn772  O806    1.914   .     S
Zn772  O797    1.916   .     S
Zn772  O269    1.935   1_565 S
O777   C321    1.271   1_565 S
O778   C826    1.270   .     A
O779   C827    1.272   .     A
O780   C576    1.273   1_655 S
O781   C825    1.270   .     A
O782   C322    1.271   1_565 S
O783   C575    1.273   1_655 S
O784   C828    1.272   .     A
O787   C831    1.272   .     A
O788   C832    1.272   .     S
O791   C831    1.272   .     A
O792   C832    1.272   .     S
O793   C833    1.276   .     A
O794   C834    1.276   .     A
O795   C835    1.276   .     A
O796   C836    1.276   .     A
O797   C837    1.276   .     A
O798   C838    1.276   .     A
O799   C839    1.276   .     A
O800   C840    1.276   .     A
O801   C841    1.276   .     A
O802   C842    1.276   .     A
O803   C843    1.276   .     A
O804   C844    1.276   .     A
O805   C845    1.276   .     A
O806   C846    1.276   .     A
O807   C847    1.276   .     A
O808   C848    1.276   .     A
O809   C843    1.276   .     A
O809   Zn508   1.916   1_655 S
O810   C844    1.276   .     A
O811   C841    1.276   .     A
O811   Zn258   1.915   1_565 S
O812   C842    1.276   .     A
O813   C847    1.276   .     A
O814   C848    1.276   .     A
O814   Zn511   1.916   1_655 S
O815   C845    1.276   .     A
O816   C846    1.276   .     A
O816   Zn253   1.915   1_565 S
O817   C835    1.276   .     A
O817   Zn507   1.914   1_655 S
O818   C836    1.276   .     A
O819   C833    1.276   .     A
O820   C834    1.276   .     A
O820   Zn254   1.916   1_565 S
O821   C839    1.276   .     A
O822   C840    1.276   .     A
O822   Zn512   1.914   1_655 S
O823   C837    1.276   .     A
O823   Zn257   1.916   1_565 S
O824   C838    1.276   .     A
C825   C883    1.464   .     S
C826   C884    1.464   .     S
C829   C887    1.464   .     S
C829   O533    1.271   1_655 S
C829   O537    1.270   1_655 S
C830   C888    1.464   .     S
C830   O534    1.270   1_655 S
C830   O538    1.271   1_655 S
C831   C885    1.473   .     S
C832   C886    1.473   .     S
C833   C862    1.423   .     S
C834   C861    1.423   .     S
C835   C860    1.422   .     S
C836   C859    1.422   .     S
C837   C858    1.423   .     S
C838   C857    1.423   .     S
C839   C864    1.422   .     S
C840   C863    1.422   .     S
C841   C854    1.422   .     S
C842   C853    1.422   .     S
C843   C852    1.423   .     S
C844   C851    1.423   .     S
C845   C850    1.422   .     S
C846   C849    1.422   .     S
C847   C856    1.423   .     S
C848   C855    1.423   .     S
C849   C864    1.198   .     T
C850   C863    1.198   .     T
C851   C862    1.199   .     T
C852   C861    1.199   .     T
C853   C860    1.198   .     T
C854   C859    1.198   .     T
C855   C858    1.199   .     T
C856   C857    1.199   .     T
C865   C929    1.518   .     S
C865   C893    1.415   .     A
C866   C894    1.420   .     A
C866   C933    1.519   .     S
C866   C882    1.414   .     A
C867   C895    1.414   .     A
C867   C937    1.517   .     S
C867   C379    1.410   1_565 S
C868   C896    1.412   .     A
C868   C941    1.518   .     S
C868   C884    1.409   .     A
C869   C945    1.519   .     S
C869   C881    1.414   .     A
C869   C889    1.420   .     A
C870   C949    1.518   .     S
C870   C890    1.415   .     A
C871   C953    1.518   .     S
C871   C883    1.409   .     A
C871   C891    1.412   .     A
C872   C957    1.517   .     S
C872   C892    1.414   .     A
C872   C380    1.410   1_565 S
C873   C901    1.416   .     A
C873   C961    1.518   .     S
C873   C885    1.411   .     A
C874   C902    1.421   .     A
C874   C965    1.519   .     S
C874   C382    1.413   1_565 S
C875   C903    1.413   .     A
C875   C887    1.410   .     A
C875   C969    1.517   .     S
C876   C973    1.518   .     S
C876   C904    1.412   .     A
C877   C897    1.421   .     A
C877   C977    1.519   .     S
C877   C381    1.413   1_565 S
C878   C981    1.518   .     S
C878   C898    1.416   .     A
C878   C886    1.411   .     A
C879   C985    1.518   .     S
C879   C899    1.412   .     A
C880   C888    1.410   .     A
C880   C989    1.517   .     S
C880   C900    1.413   .     A
C881   C575    1.475   1_655 S
C881   C613    1.413   1_655 S
C882   C576    1.475   1_655 S
C882   C618    1.413   1_655 S
C887   C627    1.409   1_655 S
C888   C624    1.409   1_655 S
C889   C905    1.416   .     A
C889   C913    1.420   .     A
C890   C914    1.417   .     A
C891   C907    1.418   .     A
C891   C915    1.416   .     A
C892   C916    1.417   .     A
C892   C404    1.418   1_565 S
C893   C917    1.417   .     A
C894   C906    1.416   .     A
C894   C918    1.420   .     A
C895   C919    1.417   .     A
C895   C403    1.418   1_565 S
C896   C908    1.418   .     A
C896   C920    1.416   .     A
C897   C921    1.420   .     A
C897   C405    1.417   1_565 S
C898   C910    1.416   .     A
C898   C922    1.417   .     A
C899   C923    1.416   .     A
C900   C924    1.417   .     A
C900   C912    1.418   .     A
C901   C909    1.416   .     A
C901   C925    1.417   .     A
C902   C926    1.420   .     A
C902   C406    1.417   1_565 S
C903   C911    1.418   .     A
C903   C927    1.417   .     A
C904   C928    1.416   .     A
C905   C906    1.414   .     A
C905   C641    1.415   1_655 S
C906   C638    1.415   1_655 S
C907   C908    1.409   .     A
C909   C910    1.415   1_556 S
C910   C909    1.415   1_554 S
C911   C647    1.418   1_655 S
C911   C912    1.410   1_556 S
C912   C652    1.418   1_655 S
C912   C911    1.410   1_554 S
C913   Cl993   1.776   .     S
C913   C918    1.407   .     A
C914   C917    1.403   .     A
C914   Cl994   1.776   .     S
C915   Cl995   1.775   .     S
C915   C920    1.402   .     A
C916   C919    1.403   .     A
C916   Cl996   1.776   .     S
C917   Cl997   1.776   .     S
C918   Cl998   1.776   .     S
C919   Cl999   1.776   .     S
C920   Cl1000  1.775   .     S
C921   Cl1001  1.776   .     S
C921   C926    1.407   1_556 S
C922   Cl1002  1.776   .     S
C922   C925    1.404   1_554 S
C923   Cl1003  1.775   .     S
C923   C928    1.402   1_556 S
C924   Cl1004  1.776   .     S
C924   C927    1.403   1_554 S
C925   Cl1005  1.776   .     S
C925   C922    1.404   1_556 S
C926   Cl1006  1.776   .     S
C926   C921    1.407   1_554 S
C927   Cl1007  1.776   .     S
C927   C924    1.403   1_556 S
C928   Cl1008  1.775   .     S
C928   C923    1.402   1_554 S
C929   H930    1.108   .     S
C929   H931    1.110   .     S
C929   H932    1.107   .     S
C933   H935    1.110   .     S
C933   H936    1.110   .     S
C933   H934    1.110   .     S
C937   H938    1.111   .     S
C937   H940    1.110   .     S
C937   H939    1.110   .     S
C941   H943    1.110   .     S
C941   H944    1.110   .     S
C941   H942    1.111   .     S
C945   H948    1.110   .     S
C945   H947    1.110   .     S
C945   H946    1.110   .     S
C949   H952    1.110   .     S
C949   H951    1.107   .     S
C949   H950    1.108   .     S
C953   H956    1.111   .     S
C953   H954    1.110   .     S
C953   H955    1.110   .     S
C957   H958    1.110   .     S
C957   H959    1.110   .     S
C957   H960    1.111   .     S
C961   H962    1.108   .     S
C961   H963    1.110   .     S
C961   H964    1.107   .     S
C965   H968    1.110   .     S
C965   H966    1.110   .     S
C965   H967    1.110   .     S
C969   H970    1.111   .     S
C969   H972    1.110   .     S
C969   H971    1.110   .     S
C973   H976    1.110   .     S
C973   H974    1.111   .     S
C973   H975    1.110   .     S
C977   H978    1.110   .     S
C977   H980    1.110   .     S
C977   H979    1.110   .     S
C981   H982    1.108   .     S
C981   H984    1.110   .     S
C981   H983    1.107   .     S
C985   H986    1.110   .     S
C985   H988    1.110   .     S
C985   H987    1.111   .     S
C989   H990    1.110   .     S
C989   H991    1.111   .     S
C989   H992    1.110   .     S
