data_str_m1_o10_o18_pcu_sym.115
_audit_creation_date              2020-01-03
_audit_creation_method            'Materials Studio'
_symmetry_space_group_name_H-M    'P1'
_symmetry_Int_Tables_number       1
_symmetry_cell_setting            triclinic
loop_
_symmetry_equiv_pos_as_xyz
  x,y,z
_cell_length_a                    32.4877
_cell_length_b                    32.5338
_cell_length_c                    35.5406
_cell_angle_alpha                 98.3277
_cell_angle_beta                  73.3907
_cell_angle_gamma                 98.9186
loop_
_atom_site_label
_atom_site_type_symbol
_atom_site_fract_x
_atom_site_fract_y
_atom_site_fract_z
_atom_site_U_iso_or_equiv
_atom_site_adp_type
_atom_site_occupancy
C1     C     0.05250   0.15951   0.25856   0.00000  Uiso   1.00
C2     C     0.22336   0.16126   0.46045   0.00000  Uiso   1.00
C3     C     0.23998   0.13356   0.47881   0.00000  Uiso   1.00
C4     C     0.28100   0.17444   0.24178   0.00000  Uiso   1.00
C5     C     0.21842   0.12621   0.01863   0.00000  Uiso   1.00
C6     C     0.19014   0.15509   0.04088   0.00000  Uiso   1.00
C7     C     0.22726   0.09461   0.03845   0.00000  Uiso   1.00
C8     C     0.21278   0.09749   0.08068   0.00000  Uiso   1.00
C9     C     0.18832   0.16432   0.08073   0.00000  Uiso   1.00
C10    C     0.32669   0.18110   0.24099   0.00000  Uiso   1.00
C11    C     0.00751   0.15616   0.26003   0.00000  Uiso   1.00
C12    C     0.11008   0.22852   0.42093   0.00000  Uiso   1.00
C13    C     0.18094   0.32213   0.23795   0.00000  Uiso   1.00
C14    C     0.15148   0.01191   0.26180   0.00000  Uiso   1.00
C15    C     0.15594   0.05599   0.25878   0.00000  Uiso   1.00
C16    C     0.17686   0.27765   0.24127   0.00000  Uiso   1.00
C17    C     0.18845   0.14480   0.14392   0.00000  Uiso   1.00
C18    C     0.14581   0.18817   0.35638   0.00000  Uiso   1.00
C19    C     0.13858   0.19919   0.39963   0.00000  Uiso   1.00
C20    C     0.19776   0.13534   0.10110   0.00000  Uiso   1.00
C21    C     0.10328   0.23653   0.46209   0.00000  Uiso   1.00
C22    C     0.27995   0.04895   0.02237   0.00000  Uiso   1.00
C23    C     0.16075   0.18027   0.41983   0.00000  Uiso   1.00
C24    C     0.01573   0.25061   0.23820   0.00000  Uiso   1.00
C25    C     0.21279   0.06118   0.10357   0.00000  Uiso   1.00
C26    C     0.17944   0.02418   0.09619   0.00000  Uiso   1.00
C27    C     0.17837   0.32184   0.12017   0.00000  Uiso   1.00
C28    C     0.28474   0.11967   0.45974   0.00000  Uiso   1.00
C29    C     0.31827   0.14331   0.48067   0.00000  Uiso   1.00
C30    C     0.03011   0.13077   0.46070   0.00000  Uiso   1.00
C31    C     0.04613   0.24912   0.41786   0.00000  Uiso   1.00
C32    C     0.09927   0.18425   0.08358   0.00000  Uiso   1.00
C33    C     0.08316   0.13736   0.08478   0.00000  Uiso   1.00
C34    C     0.15705   0.19130   0.46027   0.00000  Uiso   1.00
C35    C     0.05480   0.12832   0.12579   0.00000  Uiso   1.00
C36    C     0.25378   0.18551   0.42714   0.00000  Uiso   1.00
C37    C     0.26457   0.16030   0.38590   0.00000  Uiso   1.00
C38    C     0.31241   0.16895   0.36380   0.00000  Uiso   1.00
C39    C     0.12480   0.21645   0.48176   0.00000  Uiso   1.00
C40    C     0.18224   0.17522   0.48035   0.00000  Uiso   1.00
C41    C     0.16712   0.17550   0.02217   0.00000  Uiso   1.00
C42    C     0.12825   0.19401   0.04284   0.00000  Uiso   1.00
C43    C     0.11157   0.21849   0.02272   0.00000  Uiso   1.00
H44    H     0.08433   0.23536   0.03853   0.00000  Uiso   1.00
H45    H     0.30359   0.04271   0.49339   0.00000  Uiso   1.00
H46    H     0.01982   0.25347   0.26858   0.00000  Uiso   1.00
H47    H     0.31683   0.25899   0.23921   0.00000  Uiso   1.00
H48    H     0.04061   0.27362   0.22158   0.00000  Uiso   1.00
H49    H     0.21060   0.31043   0.11201   0.00000  Uiso   1.00
H50    H     0.16905   0.33252   0.15228   0.00000  Uiso   1.00
H51    H     0.15424   0.29548   0.11397   0.00000  Uiso   1.00
H52    H     0.14678   0.03479   0.10468   0.00000  Uiso   1.00
H53    H     0.18720   0.01203   0.06445   0.00000  Uiso   1.00
H54    H     0.24540   0.05136   0.09671   0.00000  Uiso   1.00
H55    H     0.31978   0.12991   0.27359   0.00000  Uiso   1.00
H56    H     0.20510   0.07042   0.13579   0.00000  Uiso   1.00
H57    H     0.03008   0.09662   0.46059   0.00000  Uiso   1.00
H58    H     0.04123   0.13899   0.42983   0.00000  Uiso   1.00
H59    H     0.05317   0.14767   0.47710   0.00000  Uiso   1.00
H60    H     0.31931   0.17753   0.48029   0.00000  Uiso   1.00
H61    H     0.30916   0.13720   0.01204   0.00000  Uiso   1.00
H62    H     0.28365   0.08552   0.45830   0.00000  Uiso   1.00
H63    H     0.29667   0.12473   0.42851   0.00000  Uiso   1.00
H64    H     0.03111   0.21815   0.42808   0.00000  Uiso   1.00
H65    H     0.03089   0.25475   0.39514   0.00000  Uiso   1.00
H66    H     0.20814   0.00286   0.21598   0.00000  Uiso   1.00
H67    H     0.03892   0.27445   0.44247   0.00000  Uiso   1.00
H68    H     0.07354   0.13757   0.14802   0.00000  Uiso   1.00
H69    H     0.02611   0.14573   0.13421   0.00000  Uiso   1.00
H70    H     0.04346   0.09432   0.12575   0.00000  Uiso   1.00
H71    H     0.06401   0.12712   0.06296   0.00000  Uiso   1.00
H72    H     0.11064   0.11849   0.07696   0.00000  Uiso   1.00
H73    H     0.11416   0.19675   0.10777   0.00000  Uiso   1.00
H74    H     0.06989   0.20068   0.09124   0.00000  Uiso   1.00
H75    H     0.31922   0.20040   0.35315   0.00000  Uiso   1.00
H76    H     0.00067   0.16728   0.38253   0.00000  Uiso   1.00
H77    H     0.12383   0.33190   0.28374   0.00000  Uiso   1.00
H78    H     0.32026   0.14490   0.33834   0.00000  Uiso   1.00
H79    H     0.25568   0.12617   0.38807   0.00000  Uiso   1.00
H80    H     0.24577   0.16931   0.36741   0.00000  Uiso   1.00
H81    H     0.24058   0.21428   0.42481   0.00000  Uiso   1.00
H82    H     0.28374   0.19794   0.43616   0.00000  Uiso   1.00
H83    H     0.17955   0.19410   0.09614   0.00000  Uiso   1.00
H84    H     0.08072   0.25802   0.47899   0.00000  Uiso   1.00
H85    H     0.17938   0.15534   0.40441   0.00000  Uiso   1.00
H86    H     0.27336   0.01946   0.03645   0.00000  Uiso   1.00
H87    H     0.29582   0.07429   0.04001   0.00000  Uiso   1.00
O88    O     0.16667   0.16667   0.25000   0.00000  Uiso   1.00
O89    O     0.15693   0.12393   0.16625   0.00000  Uiso   1.00
O90    O     0.12687   0.20646   0.33749   0.00000  Uiso   1.00
O91    O     0.21088   0.17493   0.15877   0.00000  Uiso   1.00
O92    O     0.17198   0.16135   0.33749   0.00000  Uiso   1.00
O93    O     0.24123   0.05804   0.01623   0.00000  Uiso   1.00
O94    O     0.02202   0.21028   0.21854   0.00000  Uiso   1.00
O95    O     0.09120   0.25046   0.40078   0.00000  Uiso   1.00
O96    O     0.17849   0.08101   0.27821   0.00000  Uiso   1.00
O97    O     0.14581   0.26136   0.26767   0.00000  Uiso   1.00
O98    O     0.07452   0.13251   0.23607   0.00000  Uiso   1.00
O99    O     0.26785   0.19179   0.21806   0.00000  Uiso   1.00
O100   O     0.06990   0.18960   0.27820   0.00000  Uiso   1.00
O101   O     0.25440   0.15277   0.26768   0.00000  Uiso   1.00
O102   O     0.13800   0.06903   0.23607   0.00000  Uiso   1.00
O103   O     0.20437   0.25527   0.21806   0.00000  Uiso   1.00
Zn104  Zn    0.19244   0.14090   0.28278   0.00000  Uiso   1.00
Zn105  Zn    0.13459   0.12378   0.22258   0.00000  Uiso   1.00
Zn106  Zn    0.21166   0.19664   0.21188   0.00000  Uiso   1.00
Zn107  Zn    0.12798   0.20535   0.28277   0.00000  Uiso   1.00
C108   C     0.38584   0.15951   0.25856   0.00000  Uiso   1.00
C109   C     0.55669   0.16126   0.46045   0.00000  Uiso   1.00
C110   C     0.57332   0.13356   0.47881   0.00000  Uiso   1.00
C111   C     0.61433   0.17444   0.24178   0.00000  Uiso   1.00
C112   C     0.55175   0.12621   0.01863   0.00000  Uiso   1.00
C113   C     0.52347   0.15509   0.04088   0.00000  Uiso   1.00
C114   C     0.56060   0.09461   0.03845   0.00000  Uiso   1.00
C115   C     0.54611   0.09749   0.08068   0.00000  Uiso   1.00
C116   C     0.52165   0.16432   0.08073   0.00000  Uiso   1.00
C117   C     0.66003   0.18110   0.24099   0.00000  Uiso   1.00
C118   C     0.34084   0.15616   0.26003   0.00000  Uiso   1.00
C119   C     0.44341   0.22852   0.42093   0.00000  Uiso   1.00
C120   C     0.51427   0.32213   0.23795   0.00000  Uiso   1.00
C121   C     0.48482   0.01191   0.26180   0.00000  Uiso   1.00
C122   C     0.48927   0.05599   0.25878   0.00000  Uiso   1.00
C123   C     0.51020   0.27765   0.24127   0.00000  Uiso   1.00
C124   C     0.52178   0.14480   0.14392   0.00000  Uiso   1.00
C125   C     0.47914   0.18817   0.35638   0.00000  Uiso   1.00
C126   C     0.47191   0.19919   0.39963   0.00000  Uiso   1.00
C127   C     0.53109   0.13534   0.10110   0.00000  Uiso   1.00
C128   C     0.43661   0.23653   0.46209   0.00000  Uiso   1.00
C129   C     0.61328   0.04895   0.02237   0.00000  Uiso   1.00
C130   C     0.49408   0.18027   0.41983   0.00000  Uiso   1.00
C131   C     0.34907   0.25061   0.23820   0.00000  Uiso   1.00
C132   C     0.54612   0.06118   0.10357   0.00000  Uiso   1.00
C133   C     0.51278   0.02418   0.09619   0.00000  Uiso   1.00
C134   C     0.51170   0.32184   0.12017   0.00000  Uiso   1.00
C135   C     0.61808   0.11967   0.45974   0.00000  Uiso   1.00
C136   C     0.65161   0.14331   0.48067   0.00000  Uiso   1.00
C137   C     0.36345   0.13077   0.46070   0.00000  Uiso   1.00
C138   C     0.37947   0.24912   0.41786   0.00000  Uiso   1.00
C139   C     0.43261   0.18425   0.08358   0.00000  Uiso   1.00
C140   C     0.41650   0.13736   0.08478   0.00000  Uiso   1.00
C141   C     0.49038   0.19130   0.46027   0.00000  Uiso   1.00
C142   C     0.38813   0.12832   0.12579   0.00000  Uiso   1.00
C143   C     0.58712   0.18551   0.42714   0.00000  Uiso   1.00
C144   C     0.59790   0.16030   0.38590   0.00000  Uiso   1.00
C145   C     0.64574   0.16895   0.36380   0.00000  Uiso   1.00
C146   C     0.45813   0.21645   0.48176   0.00000  Uiso   1.00
C147   C     0.51557   0.17522   0.48035   0.00000  Uiso   1.00
C148   C     0.50045   0.17550   0.02217   0.00000  Uiso   1.00
C149   C     0.46158   0.19401   0.04284   0.00000  Uiso   1.00
C150   C     0.44490   0.21849   0.02272   0.00000  Uiso   1.00
H151   H     0.41766   0.23536   0.03853   0.00000  Uiso   1.00
H152   H     0.63692   0.04271   0.49339   0.00000  Uiso   1.00
H153   H     0.35315   0.25347   0.26858   0.00000  Uiso   1.00
H154   H     0.65017   0.25899   0.23921   0.00000  Uiso   1.00
H155   H     0.37395   0.27362   0.22158   0.00000  Uiso   1.00
H156   H     0.54393   0.31043   0.11201   0.00000  Uiso   1.00
H157   H     0.50239   0.33252   0.15228   0.00000  Uiso   1.00
H158   H     0.48757   0.29548   0.11397   0.00000  Uiso   1.00
H159   H     0.48011   0.03479   0.10468   0.00000  Uiso   1.00
H160   H     0.52053   0.01203   0.06445   0.00000  Uiso   1.00
H161   H     0.57873   0.05136   0.09671   0.00000  Uiso   1.00
H162   H     0.65311   0.12991   0.27359   0.00000  Uiso   1.00
H163   H     0.53843   0.07042   0.13579   0.00000  Uiso   1.00
H164   H     0.36342   0.09662   0.46059   0.00000  Uiso   1.00
H165   H     0.37457   0.13899   0.42983   0.00000  Uiso   1.00
H166   H     0.38650   0.14767   0.47710   0.00000  Uiso   1.00
H167   H     0.65265   0.17753   0.48029   0.00000  Uiso   1.00
H168   H     0.64249   0.13720   0.01204   0.00000  Uiso   1.00
H169   H     0.61699   0.08552   0.45830   0.00000  Uiso   1.00
H170   H     0.63001   0.12473   0.42851   0.00000  Uiso   1.00
H171   H     0.36444   0.21815   0.42808   0.00000  Uiso   1.00
H172   H     0.36423   0.25475   0.39514   0.00000  Uiso   1.00
H173   H     0.54148   0.00286   0.21598   0.00000  Uiso   1.00
H174   H     0.37226   0.27445   0.44247   0.00000  Uiso   1.00
H175   H     0.40687   0.13757   0.14802   0.00000  Uiso   1.00
H176   H     0.35944   0.14573   0.13421   0.00000  Uiso   1.00
H177   H     0.37679   0.09432   0.12575   0.00000  Uiso   1.00
H178   H     0.39734   0.12712   0.06296   0.00000  Uiso   1.00
H179   H     0.44397   0.11849   0.07696   0.00000  Uiso   1.00
H180   H     0.44749   0.19675   0.10777   0.00000  Uiso   1.00
H181   H     0.40323   0.20068   0.09124   0.00000  Uiso   1.00
H182   H     0.65256   0.20040   0.35315   0.00000  Uiso   1.00
H183   H     0.33401   0.16728   0.38253   0.00000  Uiso   1.00
H184   H     0.45716   0.33190   0.28374   0.00000  Uiso   1.00
H185   H     0.65360   0.14490   0.33834   0.00000  Uiso   1.00
H186   H     0.58901   0.12617   0.38807   0.00000  Uiso   1.00
H187   H     0.57910   0.16931   0.36741   0.00000  Uiso   1.00
H188   H     0.57392   0.21428   0.42481   0.00000  Uiso   1.00
H189   H     0.61707   0.19794   0.43616   0.00000  Uiso   1.00
H190   H     0.51288   0.19410   0.09614   0.00000  Uiso   1.00
H191   H     0.41405   0.25802   0.47899   0.00000  Uiso   1.00
H192   H     0.51271   0.15534   0.40441   0.00000  Uiso   1.00
H193   H     0.60669   0.01946   0.03645   0.00000  Uiso   1.00
H194   H     0.62916   0.07429   0.04001   0.00000  Uiso   1.00
O195   O     0.50000   0.16667   0.25000   0.00000  Uiso   1.00
O196   O     0.49027   0.12393   0.16625   0.00000  Uiso   1.00
O197   O     0.46020   0.20646   0.33749   0.00000  Uiso   1.00
O198   O     0.54421   0.17493   0.15877   0.00000  Uiso   1.00
O199   O     0.50532   0.16135   0.33749   0.00000  Uiso   1.00
O200   O     0.57456   0.05804   0.01623   0.00000  Uiso   1.00
O201   O     0.35535   0.21028   0.21854   0.00000  Uiso   1.00
O202   O     0.42453   0.25046   0.40078   0.00000  Uiso   1.00
O203   O     0.51182   0.08101   0.27821   0.00000  Uiso   1.00
O204   O     0.47914   0.26136   0.26767   0.00000  Uiso   1.00
O205   O     0.40785   0.13251   0.23607   0.00000  Uiso   1.00
O206   O     0.60119   0.19179   0.21806   0.00000  Uiso   1.00
O207   O     0.40323   0.18960   0.27820   0.00000  Uiso   1.00
O208   O     0.58773   0.15277   0.26768   0.00000  Uiso   1.00
O209   O     0.47133   0.06903   0.23607   0.00000  Uiso   1.00
O210   O     0.53771   0.25527   0.21806   0.00000  Uiso   1.00
Zn211  Zn    0.52577   0.14090   0.28278   0.00000  Uiso   1.00
Zn212  Zn    0.46792   0.12378   0.22258   0.00000  Uiso   1.00
Zn213  Zn    0.54500   0.19664   0.21188   0.00000  Uiso   1.00
Zn214  Zn    0.46131   0.20535   0.28277   0.00000  Uiso   1.00
C215   C     0.71917   0.15951   0.25856   0.00000  Uiso   1.00
C216   C     0.89003   0.16126   0.46045   0.00000  Uiso   1.00
C217   C     0.90665   0.13356   0.47881   0.00000  Uiso   1.00
C218   C     0.94767   0.17444   0.24178   0.00000  Uiso   1.00
C219   C     0.88508   0.12621   0.01863   0.00000  Uiso   1.00
C220   C     0.85680   0.15509   0.04088   0.00000  Uiso   1.00
C221   C     0.89393   0.09461   0.03845   0.00000  Uiso   1.00
C222   C     0.87945   0.09749   0.08068   0.00000  Uiso   1.00
C223   C     0.85498   0.16432   0.08073   0.00000  Uiso   1.00
C224   C     0.99336   0.18110   0.24099   0.00000  Uiso   1.00
C225   C     0.67418   0.15616   0.26003   0.00000  Uiso   1.00
C226   C     0.77675   0.22852   0.42093   0.00000  Uiso   1.00
C227   C     0.84760   0.32213   0.23795   0.00000  Uiso   1.00
C228   C     0.81815   0.01191   0.26180   0.00000  Uiso   1.00
C229   C     0.82261   0.05599   0.25878   0.00000  Uiso   1.00
C230   C     0.84353   0.27765   0.24127   0.00000  Uiso   1.00
C231   C     0.85512   0.14480   0.14392   0.00000  Uiso   1.00
C232   C     0.81248   0.18817   0.35638   0.00000  Uiso   1.00
C233   C     0.80524   0.19919   0.39963   0.00000  Uiso   1.00
C234   C     0.86443   0.13534   0.10110   0.00000  Uiso   1.00
C235   C     0.76994   0.23653   0.46209   0.00000  Uiso   1.00
C236   C     0.94661   0.04895   0.02237   0.00000  Uiso   1.00
C237   C     0.82742   0.18027   0.41983   0.00000  Uiso   1.00
C238   C     0.68240   0.25061   0.23820   0.00000  Uiso   1.00
C239   C     0.87945   0.06118   0.10357   0.00000  Uiso   1.00
C240   C     0.84611   0.02418   0.09619   0.00000  Uiso   1.00
C241   C     0.84504   0.32184   0.12017   0.00000  Uiso   1.00
C242   C     0.95141   0.11967   0.45974   0.00000  Uiso   1.00
C243   C     0.98494   0.14331   0.48067   0.00000  Uiso   1.00
C244   C     0.69678   0.13077   0.46070   0.00000  Uiso   1.00
C245   C     0.71280   0.24912   0.41786   0.00000  Uiso   1.00
C246   C     0.76594   0.18425   0.08358   0.00000  Uiso   1.00
C247   C     0.74983   0.13736   0.08478   0.00000  Uiso   1.00
C248   C     0.82371   0.19130   0.46027   0.00000  Uiso   1.00
C249   C     0.72146   0.12832   0.12579   0.00000  Uiso   1.00
C250   C     0.92045   0.18551   0.42714   0.00000  Uiso   1.00
C251   C     0.93124   0.16030   0.38590   0.00000  Uiso   1.00
C252   C     0.97907   0.16895   0.36380   0.00000  Uiso   1.00
C253   C     0.79147   0.21645   0.48176   0.00000  Uiso   1.00
C254   C     0.84890   0.17522   0.48035   0.00000  Uiso   1.00
C255   C     0.83379   0.17550   0.02217   0.00000  Uiso   1.00
C256   C     0.79491   0.19401   0.04284   0.00000  Uiso   1.00
C257   C     0.77824   0.21849   0.02272   0.00000  Uiso   1.00
H258   H     0.75100   0.23536   0.03853   0.00000  Uiso   1.00
H259   H     0.97026   0.04271   0.49339   0.00000  Uiso   1.00
H260   H     0.68649   0.25347   0.26858   0.00000  Uiso   1.00
H261   H     0.98350   0.25899   0.23921   0.00000  Uiso   1.00
H262   H     0.70728   0.27362   0.22158   0.00000  Uiso   1.00
H263   H     0.87727   0.31043   0.11201   0.00000  Uiso   1.00
H264   H     0.83572   0.33252   0.15228   0.00000  Uiso   1.00
H265   H     0.82091   0.29548   0.11397   0.00000  Uiso   1.00
H266   H     0.81345   0.03479   0.10468   0.00000  Uiso   1.00
H267   H     0.85387   0.01203   0.06445   0.00000  Uiso   1.00
H268   H     0.91206   0.05136   0.09671   0.00000  Uiso   1.00
H269   H     0.98645   0.12991   0.27359   0.00000  Uiso   1.00
H270   H     0.87176   0.07042   0.13579   0.00000  Uiso   1.00
H271   H     0.69675   0.09662   0.46059   0.00000  Uiso   1.00
H272   H     0.70790   0.13899   0.42983   0.00000  Uiso   1.00
H273   H     0.71983   0.14767   0.47710   0.00000  Uiso   1.00
H274   H     0.98598   0.17753   0.48029   0.00000  Uiso   1.00
H275   H     0.97582   0.13720   0.01204   0.00000  Uiso   1.00
H276   H     0.95032   0.08552   0.45830   0.00000  Uiso   1.00
H277   H     0.96334   0.12473   0.42851   0.00000  Uiso   1.00
H278   H     0.69778   0.21815   0.42808   0.00000  Uiso   1.00
H279   H     0.69756   0.25475   0.39514   0.00000  Uiso   1.00
H280   H     0.87481   0.00286   0.21598   0.00000  Uiso   1.00
H281   H     0.70559   0.27445   0.44247   0.00000  Uiso   1.00
H282   H     0.74021   0.13757   0.14802   0.00000  Uiso   1.00
H283   H     0.69277   0.14573   0.13421   0.00000  Uiso   1.00
H284   H     0.71012   0.09432   0.12575   0.00000  Uiso   1.00
H285   H     0.73067   0.12712   0.06296   0.00000  Uiso   1.00
H286   H     0.77730   0.11849   0.07696   0.00000  Uiso   1.00
H287   H     0.78083   0.19675   0.10777   0.00000  Uiso   1.00
H288   H     0.73656   0.20068   0.09124   0.00000  Uiso   1.00
H289   H     0.98589   0.20040   0.35315   0.00000  Uiso   1.00
H290   H     0.66734   0.16728   0.38253   0.00000  Uiso   1.00
H291   H     0.79050   0.33190   0.28374   0.00000  Uiso   1.00
H292   H     0.98693   0.14490   0.33834   0.00000  Uiso   1.00
H293   H     0.92234   0.12617   0.38807   0.00000  Uiso   1.00
H294   H     0.91243   0.16931   0.36741   0.00000  Uiso   1.00
H295   H     0.90725   0.21428   0.42481   0.00000  Uiso   1.00
H296   H     0.95041   0.19794   0.43616   0.00000  Uiso   1.00
H297   H     0.84621   0.19410   0.09614   0.00000  Uiso   1.00
H298   H     0.74739   0.25802   0.47899   0.00000  Uiso   1.00
H299   H     0.84604   0.15534   0.40441   0.00000  Uiso   1.00
H300   H     0.94002   0.01946   0.03645   0.00000  Uiso   1.00
H301   H     0.96249   0.07429   0.04001   0.00000  Uiso   1.00
O302   O     0.83333   0.16667   0.25000   0.00000  Uiso   1.00
O303   O     0.82360   0.12393   0.16625   0.00000  Uiso   1.00
O304   O     0.79354   0.20646   0.33749   0.00000  Uiso   1.00
O305   O     0.87755   0.17493   0.15877   0.00000  Uiso   1.00
O306   O     0.83865   0.16135   0.33749   0.00000  Uiso   1.00
O307   O     0.90790   0.05804   0.01623   0.00000  Uiso   1.00
O308   O     0.68868   0.21028   0.21854   0.00000  Uiso   1.00
O309   O     0.75787   0.25046   0.40078   0.00000  Uiso   1.00
O310   O     0.84515   0.08101   0.27821   0.00000  Uiso   1.00
O311   O     0.81247   0.26136   0.26767   0.00000  Uiso   1.00
O312   O     0.74119   0.13251   0.23607   0.00000  Uiso   1.00
O313   O     0.93452   0.19179   0.21806   0.00000  Uiso   1.00
O314   O     0.73656   0.18960   0.27820   0.00000  Uiso   1.00
O315   O     0.92106   0.15277   0.26768   0.00000  Uiso   1.00
O316   O     0.80467   0.06903   0.23607   0.00000  Uiso   1.00
O317   O     0.87104   0.25527   0.21806   0.00000  Uiso   1.00
Zn318  Zn    0.85910   0.14090   0.28278   0.00000  Uiso   1.00
Zn319  Zn    0.80125   0.12378   0.22258   0.00000  Uiso   1.00
Zn320  Zn    0.87833   0.19664   0.21188   0.00000  Uiso   1.00
Zn321  Zn    0.79465   0.20535   0.28277   0.00000  Uiso   1.00
C322   C     0.05250   0.49285   0.25856   0.00000  Uiso   1.00
C323   C     0.22336   0.49459   0.46045   0.00000  Uiso   1.00
C324   C     0.23998   0.46690   0.47881   0.00000  Uiso   1.00
C325   C     0.28100   0.50778   0.24178   0.00000  Uiso   1.00
C326   C     0.21842   0.45954   0.01863   0.00000  Uiso   1.00
C327   C     0.19014   0.48842   0.04088   0.00000  Uiso   1.00
C328   C     0.22726   0.42794   0.03845   0.00000  Uiso   1.00
C329   C     0.21278   0.43082   0.08068   0.00000  Uiso   1.00
C330   C     0.18832   0.49765   0.08073   0.00000  Uiso   1.00
C331   C     0.32669   0.51443   0.24099   0.00000  Uiso   1.00
C332   C     0.00751   0.48950   0.26003   0.00000  Uiso   1.00
C333   C     0.11008   0.56186   0.42093   0.00000  Uiso   1.00
C334   C     0.18094   0.65547   0.23795   0.00000  Uiso   1.00
C335   C     0.15148   0.34524   0.26180   0.00000  Uiso   1.00
C336   C     0.15594   0.38932   0.25878   0.00000  Uiso   1.00
C337   C     0.17686   0.61099   0.24127   0.00000  Uiso   1.00
C338   C     0.18845   0.47813   0.14392   0.00000  Uiso   1.00
C339   C     0.14581   0.52150   0.35638   0.00000  Uiso   1.00
C340   C     0.13858   0.53252   0.39963   0.00000  Uiso   1.00
C341   C     0.19776   0.46867   0.10110   0.00000  Uiso   1.00
C342   C     0.10328   0.56986   0.46209   0.00000  Uiso   1.00
C343   C     0.27995   0.38228   0.02237   0.00000  Uiso   1.00
C344   C     0.16075   0.51361   0.41983   0.00000  Uiso   1.00
C345   C     0.01573   0.58394   0.23820   0.00000  Uiso   1.00
C346   C     0.21279   0.39452   0.10357   0.00000  Uiso   1.00
C347   C     0.17944   0.35751   0.09619   0.00000  Uiso   1.00
C348   C     0.17837   0.65517   0.12017   0.00000  Uiso   1.00
C349   C     0.28474   0.45300   0.45974   0.00000  Uiso   1.00
C350   C     0.31827   0.47665   0.48067   0.00000  Uiso   1.00
C351   C     0.03011   0.46410   0.46070   0.00000  Uiso   1.00
C352   C     0.04613   0.58245   0.41786   0.00000  Uiso   1.00
C353   C     0.09927   0.51758   0.08358   0.00000  Uiso   1.00
C354   C     0.08316   0.47069   0.08478   0.00000  Uiso   1.00
C355   C     0.15705   0.52463   0.46027   0.00000  Uiso   1.00
C356   C     0.05480   0.46165   0.12579   0.00000  Uiso   1.00
C357   C     0.25378   0.51884   0.42714   0.00000  Uiso   1.00
C358   C     0.26457   0.49363   0.38590   0.00000  Uiso   1.00
C359   C     0.31241   0.50228   0.36380   0.00000  Uiso   1.00
C360   C     0.12480   0.54978   0.48176   0.00000  Uiso   1.00
C361   C     0.18224   0.50856   0.48035   0.00000  Uiso   1.00
C362   C     0.16712   0.50883   0.02217   0.00000  Uiso   1.00
C363   C     0.12825   0.52734   0.04284   0.00000  Uiso   1.00
C364   C     0.11157   0.55182   0.02272   0.00000  Uiso   1.00
H365   H     0.08433   0.56869   0.03853   0.00000  Uiso   1.00
H366   H     0.30359   0.37605   0.49339   0.00000  Uiso   1.00
H367   H     0.01982   0.58680   0.26858   0.00000  Uiso   1.00
H368   H     0.31683   0.59233   0.23921   0.00000  Uiso   1.00
H369   H     0.04061   0.60696   0.22158   0.00000  Uiso   1.00
H370   H     0.21060   0.64376   0.11201   0.00000  Uiso   1.00
H371   H     0.16905   0.66585   0.15228   0.00000  Uiso   1.00
H372   H     0.15424   0.62882   0.11397   0.00000  Uiso   1.00
H373   H     0.14678   0.36813   0.10468   0.00000  Uiso   1.00
H374   H     0.18720   0.34536   0.06445   0.00000  Uiso   1.00
H375   H     0.24540   0.38469   0.09671   0.00000  Uiso   1.00
H376   H     0.31978   0.46325   0.27359   0.00000  Uiso   1.00
H377   H     0.20510   0.40375   0.13579   0.00000  Uiso   1.00
H378   H     0.03008   0.42996   0.46059   0.00000  Uiso   1.00
H379   H     0.04123   0.47232   0.42983   0.00000  Uiso   1.00
H380   H     0.05317   0.48100   0.47710   0.00000  Uiso   1.00
H381   H     0.31931   0.51086   0.48029   0.00000  Uiso   1.00
H382   H     0.30916   0.47054   0.01204   0.00000  Uiso   1.00
H383   H     0.28365   0.41885   0.45830   0.00000  Uiso   1.00
H384   H     0.29667   0.45807   0.42851   0.00000  Uiso   1.00
H385   H     0.03111   0.55148   0.42808   0.00000  Uiso   1.00
H386   H     0.03089   0.58808   0.39514   0.00000  Uiso   1.00
H387   H     0.20814   0.33620   0.21598   0.00000  Uiso   1.00
H388   H     0.03892   0.60778   0.44247   0.00000  Uiso   1.00
H389   H     0.07354   0.47090   0.14802   0.00000  Uiso   1.00
H390   H     0.02611   0.47906   0.13421   0.00000  Uiso   1.00
H391   H     0.04346   0.42765   0.12575   0.00000  Uiso   1.00
H392   H     0.06401   0.46046   0.06296   0.00000  Uiso   1.00
H393   H     0.11064   0.45182   0.07696   0.00000  Uiso   1.00
H394   H     0.11416   0.53008   0.10777   0.00000  Uiso   1.00
H395   H     0.06989   0.53401   0.09124   0.00000  Uiso   1.00
H396   H     0.31922   0.53374   0.35315   0.00000  Uiso   1.00
H397   H     0.00067   0.50061   0.38253   0.00000  Uiso   1.00
H398   H     0.12383   0.66523   0.28374   0.00000  Uiso   1.00
H399   H     0.32026   0.47824   0.33834   0.00000  Uiso   1.00
H400   H     0.25568   0.45950   0.38807   0.00000  Uiso   1.00
H401   H     0.24577   0.50264   0.36741   0.00000  Uiso   1.00
H402   H     0.24058   0.54761   0.42481   0.00000  Uiso   1.00
H403   H     0.28374   0.53127   0.43616   0.00000  Uiso   1.00
H404   H     0.17955   0.52744   0.09614   0.00000  Uiso   1.00
H405   H     0.08072   0.59136   0.47899   0.00000  Uiso   1.00
H406   H     0.17938   0.48867   0.40441   0.00000  Uiso   1.00
H407   H     0.27336   0.35280   0.03645   0.00000  Uiso   1.00
H408   H     0.29582   0.40762   0.04001   0.00000  Uiso   1.00
O409   O     0.16667   0.50000   0.25000   0.00000  Uiso   1.00
O410   O     0.15693   0.45726   0.16625   0.00000  Uiso   1.00
O411   O     0.12687   0.53979   0.33749   0.00000  Uiso   1.00
O412   O     0.21088   0.50826   0.15877   0.00000  Uiso   1.00
O413   O     0.17198   0.49468   0.33749   0.00000  Uiso   1.00
O414   O     0.24123   0.39137   0.01623   0.00000  Uiso   1.00
O415   O     0.02202   0.54361   0.21854   0.00000  Uiso   1.00
O416   O     0.09120   0.58380   0.40078   0.00000  Uiso   1.00
O417   O     0.17849   0.41434   0.27821   0.00000  Uiso   1.00
O418   O     0.14581   0.59469   0.26767   0.00000  Uiso   1.00
O419   O     0.07452   0.46584   0.23607   0.00000  Uiso   1.00
O420   O     0.26785   0.52512   0.21806   0.00000  Uiso   1.00
O421   O     0.06990   0.52293   0.27820   0.00000  Uiso   1.00
O422   O     0.25440   0.48610   0.26768   0.00000  Uiso   1.00
O423   O     0.13800   0.40236   0.23607   0.00000  Uiso   1.00
O424   O     0.20437   0.58860   0.21806   0.00000  Uiso   1.00
Zn425  Zn    0.19244   0.47423   0.28278   0.00000  Uiso   1.00
Zn426  Zn    0.13459   0.45711   0.22258   0.00000  Uiso   1.00
Zn427  Zn    0.21166   0.52997   0.21188   0.00000  Uiso   1.00
Zn428  Zn    0.12798   0.53868   0.28277   0.00000  Uiso   1.00
C429   C     0.38584   0.49285   0.25856   0.00000  Uiso   1.00
C430   C     0.55669   0.49459   0.46045   0.00000  Uiso   1.00
C431   C     0.57332   0.46690   0.47881   0.00000  Uiso   1.00
C432   C     0.61433   0.50778   0.24178   0.00000  Uiso   1.00
C433   C     0.55175   0.45954   0.01863   0.00000  Uiso   1.00
C434   C     0.52347   0.48842   0.04088   0.00000  Uiso   1.00
C435   C     0.56060   0.42794   0.03845   0.00000  Uiso   1.00
C436   C     0.54611   0.43082   0.08068   0.00000  Uiso   1.00
C437   C     0.52165   0.49765   0.08073   0.00000  Uiso   1.00
C438   C     0.66003   0.51443   0.24099   0.00000  Uiso   1.00
C439   C     0.34084   0.48950   0.26003   0.00000  Uiso   1.00
C440   C     0.44341   0.56186   0.42093   0.00000  Uiso   1.00
C441   C     0.51427   0.65547   0.23795   0.00000  Uiso   1.00
C442   C     0.48482   0.34524   0.26180   0.00000  Uiso   1.00
C443   C     0.48927   0.38932   0.25878   0.00000  Uiso   1.00
C444   C     0.51020   0.61099   0.24127   0.00000  Uiso   1.00
C445   C     0.52178   0.47813   0.14392   0.00000  Uiso   1.00
C446   C     0.47914   0.52150   0.35638   0.00000  Uiso   1.00
C447   C     0.47191   0.53252   0.39963   0.00000  Uiso   1.00
C448   C     0.53109   0.46867   0.10110   0.00000  Uiso   1.00
C449   C     0.43661   0.56986   0.46209   0.00000  Uiso   1.00
C450   C     0.61328   0.38228   0.02237   0.00000  Uiso   1.00
C451   C     0.49408   0.51361   0.41983   0.00000  Uiso   1.00
C452   C     0.34907   0.58394   0.23820   0.00000  Uiso   1.00
C453   C     0.54612   0.39452   0.10357   0.00000  Uiso   1.00
C454   C     0.51278   0.35751   0.09619   0.00000  Uiso   1.00
C455   C     0.51170   0.65517   0.12017   0.00000  Uiso   1.00
C456   C     0.61808   0.45300   0.45974   0.00000  Uiso   1.00
C457   C     0.65161   0.47665   0.48067   0.00000  Uiso   1.00
C458   C     0.36345   0.46410   0.46070   0.00000  Uiso   1.00
C459   C     0.37947   0.58245   0.41786   0.00000  Uiso   1.00
C460   C     0.43261   0.51758   0.08358   0.00000  Uiso   1.00
C461   C     0.41650   0.47069   0.08478   0.00000  Uiso   1.00
C462   C     0.49038   0.52463   0.46027   0.00000  Uiso   1.00
C463   C     0.38813   0.46165   0.12579   0.00000  Uiso   1.00
C464   C     0.58712   0.51884   0.42714   0.00000  Uiso   1.00
C465   C     0.59790   0.49363   0.38590   0.00000  Uiso   1.00
C466   C     0.64574   0.50228   0.36380   0.00000  Uiso   1.00
C467   C     0.45813   0.54978   0.48176   0.00000  Uiso   1.00
C468   C     0.51557   0.50856   0.48035   0.00000  Uiso   1.00
C469   C     0.50045   0.50883   0.02217   0.00000  Uiso   1.00
C470   C     0.46158   0.52734   0.04284   0.00000  Uiso   1.00
C471   C     0.44490   0.55182   0.02272   0.00000  Uiso   1.00
H472   H     0.41766   0.56869   0.03853   0.00000  Uiso   1.00
H473   H     0.63692   0.37605   0.49339   0.00000  Uiso   1.00
H474   H     0.35315   0.58680   0.26858   0.00000  Uiso   1.00
H475   H     0.65017   0.59233   0.23921   0.00000  Uiso   1.00
H476   H     0.37395   0.60696   0.22158   0.00000  Uiso   1.00
H477   H     0.54393   0.64376   0.11201   0.00000  Uiso   1.00
H478   H     0.50239   0.66585   0.15228   0.00000  Uiso   1.00
H479   H     0.48757   0.62882   0.11397   0.00000  Uiso   1.00
H480   H     0.48011   0.36813   0.10468   0.00000  Uiso   1.00
H481   H     0.52053   0.34536   0.06445   0.00000  Uiso   1.00
H482   H     0.57873   0.38469   0.09671   0.00000  Uiso   1.00
H483   H     0.65311   0.46325   0.27359   0.00000  Uiso   1.00
H484   H     0.53843   0.40375   0.13579   0.00000  Uiso   1.00
H485   H     0.36342   0.42996   0.46059   0.00000  Uiso   1.00
H486   H     0.37457   0.47232   0.42983   0.00000  Uiso   1.00
H487   H     0.38650   0.48100   0.47710   0.00000  Uiso   1.00
H488   H     0.65265   0.51086   0.48029   0.00000  Uiso   1.00
H489   H     0.64249   0.47054   0.01204   0.00000  Uiso   1.00
H490   H     0.61699   0.41885   0.45830   0.00000  Uiso   1.00
H491   H     0.63001   0.45807   0.42851   0.00000  Uiso   1.00
H492   H     0.36444   0.55148   0.42808   0.00000  Uiso   1.00
H493   H     0.36423   0.58808   0.39514   0.00000  Uiso   1.00
H494   H     0.54148   0.33620   0.21598   0.00000  Uiso   1.00
H495   H     0.37226   0.60778   0.44247   0.00000  Uiso   1.00
H496   H     0.40687   0.47090   0.14802   0.00000  Uiso   1.00
H497   H     0.35944   0.47906   0.13421   0.00000  Uiso   1.00
H498   H     0.37679   0.42765   0.12575   0.00000  Uiso   1.00
H499   H     0.39734   0.46046   0.06296   0.00000  Uiso   1.00
H500   H     0.44397   0.45182   0.07696   0.00000  Uiso   1.00
H501   H     0.44749   0.53008   0.10777   0.00000  Uiso   1.00
H502   H     0.40323   0.53401   0.09124   0.00000  Uiso   1.00
H503   H     0.65256   0.53374   0.35315   0.00000  Uiso   1.00
H504   H     0.33401   0.50061   0.38253   0.00000  Uiso   1.00
H505   H     0.45716   0.66523   0.28374   0.00000  Uiso   1.00
H506   H     0.65360   0.47824   0.33834   0.00000  Uiso   1.00
H507   H     0.58901   0.45950   0.38807   0.00000  Uiso   1.00
H508   H     0.57910   0.50264   0.36741   0.00000  Uiso   1.00
H509   H     0.57392   0.54761   0.42481   0.00000  Uiso   1.00
H510   H     0.61707   0.53127   0.43616   0.00000  Uiso   1.00
H511   H     0.51288   0.52744   0.09614   0.00000  Uiso   1.00
H512   H     0.41405   0.59136   0.47899   0.00000  Uiso   1.00
H513   H     0.51271   0.48867   0.40441   0.00000  Uiso   1.00
H514   H     0.60669   0.35280   0.03645   0.00000  Uiso   1.00
H515   H     0.62916   0.40762   0.04001   0.00000  Uiso   1.00
O516   O     0.50000   0.50000   0.25000   0.00000  Uiso   1.00
O517   O     0.49027   0.45726   0.16625   0.00000  Uiso   1.00
O518   O     0.46020   0.53979   0.33749   0.00000  Uiso   1.00
O519   O     0.54421   0.50826   0.15877   0.00000  Uiso   1.00
O520   O     0.50532   0.49468   0.33749   0.00000  Uiso   1.00
O521   O     0.57456   0.39137   0.01623   0.00000  Uiso   1.00
O522   O     0.35535   0.54361   0.21854   0.00000  Uiso   1.00
O523   O     0.42453   0.58380   0.40078   0.00000  Uiso   1.00
O524   O     0.51182   0.41434   0.27821   0.00000  Uiso   1.00
O525   O     0.47914   0.59469   0.26767   0.00000  Uiso   1.00
O526   O     0.40785   0.46584   0.23607   0.00000  Uiso   1.00
O527   O     0.60119   0.52512   0.21806   0.00000  Uiso   1.00
O528   O     0.40323   0.52293   0.27820   0.00000  Uiso   1.00
O529   O     0.58773   0.48610   0.26768   0.00000  Uiso   1.00
O530   O     0.47133   0.40236   0.23607   0.00000  Uiso   1.00
O531   O     0.53771   0.58860   0.21806   0.00000  Uiso   1.00
Zn532  Zn    0.52577   0.47423   0.28278   0.00000  Uiso   1.00
Zn533  Zn    0.46792   0.45711   0.22258   0.00000  Uiso   1.00
Zn534  Zn    0.54500   0.52997   0.21188   0.00000  Uiso   1.00
Zn535  Zn    0.46131   0.53868   0.28277   0.00000  Uiso   1.00
C536   C     0.71917   0.49285   0.25856   0.00000  Uiso   1.00
C537   C     0.89003   0.49459   0.46045   0.00000  Uiso   1.00
C538   C     0.90665   0.46690   0.47881   0.00000  Uiso   1.00
C539   C     0.94767   0.50778   0.24178   0.00000  Uiso   1.00
C540   C     0.88508   0.45954   0.01863   0.00000  Uiso   1.00
C541   C     0.85680   0.48842   0.04088   0.00000  Uiso   1.00
C542   C     0.89393   0.42794   0.03845   0.00000  Uiso   1.00
C543   C     0.87945   0.43082   0.08068   0.00000  Uiso   1.00
C544   C     0.85498   0.49765   0.08073   0.00000  Uiso   1.00
C545   C     0.99336   0.51443   0.24099   0.00000  Uiso   1.00
C546   C     0.67418   0.48950   0.26003   0.00000  Uiso   1.00
C547   C     0.77675   0.56186   0.42093   0.00000  Uiso   1.00
C548   C     0.84760   0.65547   0.23795   0.00000  Uiso   1.00
C549   C     0.81815   0.34524   0.26180   0.00000  Uiso   1.00
C550   C     0.82261   0.38932   0.25878   0.00000  Uiso   1.00
C551   C     0.84353   0.61099   0.24127   0.00000  Uiso   1.00
C552   C     0.85512   0.47813   0.14392   0.00000  Uiso   1.00
C553   C     0.81248   0.52150   0.35638   0.00000  Uiso   1.00
C554   C     0.80524   0.53252   0.39963   0.00000  Uiso   1.00
C555   C     0.86443   0.46867   0.10110   0.00000  Uiso   1.00
C556   C     0.76994   0.56986   0.46209   0.00000  Uiso   1.00
C557   C     0.94661   0.38228   0.02237   0.00000  Uiso   1.00
C558   C     0.82742   0.51361   0.41983   0.00000  Uiso   1.00
C559   C     0.68240   0.58394   0.23820   0.00000  Uiso   1.00
C560   C     0.87945   0.39452   0.10357   0.00000  Uiso   1.00
C561   C     0.84611   0.35751   0.09619   0.00000  Uiso   1.00
C562   C     0.84504   0.65517   0.12017   0.00000  Uiso   1.00
C563   C     0.95141   0.45300   0.45974   0.00000  Uiso   1.00
C564   C     0.98494   0.47665   0.48067   0.00000  Uiso   1.00
C565   C     0.69678   0.46410   0.46070   0.00000  Uiso   1.00
C566   C     0.71280   0.58245   0.41786   0.00000  Uiso   1.00
C567   C     0.76594   0.51758   0.08358   0.00000  Uiso   1.00
C568   C     0.74983   0.47069   0.08478   0.00000  Uiso   1.00
C569   C     0.82371   0.52463   0.46027   0.00000  Uiso   1.00
C570   C     0.72146   0.46165   0.12579   0.00000  Uiso   1.00
C571   C     0.92045   0.51884   0.42714   0.00000  Uiso   1.00
C572   C     0.93124   0.49363   0.38590   0.00000  Uiso   1.00
C573   C     0.97907   0.50228   0.36380   0.00000  Uiso   1.00
C574   C     0.79147   0.54978   0.48176   0.00000  Uiso   1.00
C575   C     0.84890   0.50856   0.48035   0.00000  Uiso   1.00
C576   C     0.83379   0.50883   0.02217   0.00000  Uiso   1.00
C577   C     0.79491   0.52734   0.04284   0.00000  Uiso   1.00
C578   C     0.77824   0.55182   0.02272   0.00000  Uiso   1.00
H579   H     0.75100   0.56869   0.03853   0.00000  Uiso   1.00
H580   H     0.97026   0.37605   0.49339   0.00000  Uiso   1.00
H581   H     0.68649   0.58680   0.26858   0.00000  Uiso   1.00
H582   H     0.98350   0.59233   0.23921   0.00000  Uiso   1.00
H583   H     0.70728   0.60696   0.22158   0.00000  Uiso   1.00
H584   H     0.87727   0.64376   0.11201   0.00000  Uiso   1.00
H585   H     0.83572   0.66585   0.15228   0.00000  Uiso   1.00
H586   H     0.82091   0.62882   0.11397   0.00000  Uiso   1.00
H587   H     0.81345   0.36813   0.10468   0.00000  Uiso   1.00
H588   H     0.85387   0.34536   0.06445   0.00000  Uiso   1.00
H589   H     0.91206   0.38469   0.09671   0.00000  Uiso   1.00
H590   H     0.98645   0.46325   0.27359   0.00000  Uiso   1.00
H591   H     0.87176   0.40375   0.13579   0.00000  Uiso   1.00
H592   H     0.69675   0.42996   0.46059   0.00000  Uiso   1.00
H593   H     0.70790   0.47232   0.42983   0.00000  Uiso   1.00
H594   H     0.71983   0.48100   0.47710   0.00000  Uiso   1.00
H595   H     0.98598   0.51086   0.48029   0.00000  Uiso   1.00
H596   H     0.97582   0.47054   0.01204   0.00000  Uiso   1.00
H597   H     0.95032   0.41885   0.45830   0.00000  Uiso   1.00
H598   H     0.96334   0.45807   0.42851   0.00000  Uiso   1.00
H599   H     0.69778   0.55148   0.42808   0.00000  Uiso   1.00
H600   H     0.69756   0.58808   0.39514   0.00000  Uiso   1.00
H601   H     0.87481   0.33620   0.21598   0.00000  Uiso   1.00
H602   H     0.70559   0.60778   0.44247   0.00000  Uiso   1.00
H603   H     0.74021   0.47090   0.14802   0.00000  Uiso   1.00
H604   H     0.69277   0.47906   0.13421   0.00000  Uiso   1.00
H605   H     0.71012   0.42765   0.12575   0.00000  Uiso   1.00
H606   H     0.73067   0.46046   0.06296   0.00000  Uiso   1.00
H607   H     0.77730   0.45182   0.07696   0.00000  Uiso   1.00
H608   H     0.78083   0.53008   0.10777   0.00000  Uiso   1.00
H609   H     0.73656   0.53401   0.09124   0.00000  Uiso   1.00
H610   H     0.98589   0.53374   0.35315   0.00000  Uiso   1.00
H611   H     0.66734   0.50061   0.38253   0.00000  Uiso   1.00
H612   H     0.79050   0.66523   0.28374   0.00000  Uiso   1.00
H613   H     0.98693   0.47824   0.33834   0.00000  Uiso   1.00
H614   H     0.92234   0.45950   0.38807   0.00000  Uiso   1.00
H615   H     0.91243   0.50264   0.36741   0.00000  Uiso   1.00
H616   H     0.90725   0.54761   0.42481   0.00000  Uiso   1.00
H617   H     0.95041   0.53127   0.43616   0.00000  Uiso   1.00
H618   H     0.84621   0.52744   0.09614   0.00000  Uiso   1.00
H619   H     0.74739   0.59136   0.47899   0.00000  Uiso   1.00
H620   H     0.84604   0.48867   0.40441   0.00000  Uiso   1.00
H621   H     0.94002   0.35280   0.03645   0.00000  Uiso   1.00
H622   H     0.96249   0.40762   0.04001   0.00000  Uiso   1.00
O623   O     0.83333   0.50000   0.25000   0.00000  Uiso   1.00
O624   O     0.82360   0.45726   0.16625   0.00000  Uiso   1.00
O625   O     0.79354   0.53979   0.33749   0.00000  Uiso   1.00
O626   O     0.87755   0.50826   0.15877   0.00000  Uiso   1.00
O627   O     0.83865   0.49468   0.33749   0.00000  Uiso   1.00
O628   O     0.90790   0.39137   0.01623   0.00000  Uiso   1.00
O629   O     0.68868   0.54361   0.21854   0.00000  Uiso   1.00
O630   O     0.75787   0.58380   0.40078   0.00000  Uiso   1.00
O631   O     0.84515   0.41434   0.27821   0.00000  Uiso   1.00
O632   O     0.81247   0.59469   0.26767   0.00000  Uiso   1.00
O633   O     0.74119   0.46584   0.23607   0.00000  Uiso   1.00
O634   O     0.93452   0.52512   0.21806   0.00000  Uiso   1.00
O635   O     0.73656   0.52293   0.27820   0.00000  Uiso   1.00
O636   O     0.92106   0.48610   0.26768   0.00000  Uiso   1.00
O637   O     0.80467   0.40236   0.23607   0.00000  Uiso   1.00
O638   O     0.87104   0.58860   0.21806   0.00000  Uiso   1.00
Zn639  Zn    0.85910   0.47423   0.28278   0.00000  Uiso   1.00
Zn640  Zn    0.80125   0.45711   0.22258   0.00000  Uiso   1.00
Zn641  Zn    0.87833   0.52997   0.21188   0.00000  Uiso   1.00
Zn642  Zn    0.79465   0.53868   0.28277   0.00000  Uiso   1.00
C643   C     0.05250   0.82618   0.25856   0.00000  Uiso   1.00
C644   C     0.22336   0.82792   0.46045   0.00000  Uiso   1.00
C645   C     0.23998   0.80023   0.47881   0.00000  Uiso   1.00
C646   C     0.28100   0.84111   0.24178   0.00000  Uiso   1.00
C647   C     0.21842   0.79287   0.01863   0.00000  Uiso   1.00
C648   C     0.19014   0.82175   0.04088   0.00000  Uiso   1.00
C649   C     0.22726   0.76127   0.03845   0.00000  Uiso   1.00
C650   C     0.21278   0.76416   0.08068   0.00000  Uiso   1.00
C651   C     0.18832   0.83099   0.08073   0.00000  Uiso   1.00
C652   C     0.32669   0.84777   0.24099   0.00000  Uiso   1.00
C653   C     0.00751   0.82283   0.26003   0.00000  Uiso   1.00
C654   C     0.11008   0.89519   0.42093   0.00000  Uiso   1.00
C655   C     0.18094   0.98880   0.23795   0.00000  Uiso   1.00
C656   C     0.15148   0.67857   0.26180   0.00000  Uiso   1.00
C657   C     0.15594   0.72266   0.25878   0.00000  Uiso   1.00
C658   C     0.17686   0.94432   0.24127   0.00000  Uiso   1.00
C659   C     0.18845   0.81146   0.14392   0.00000  Uiso   1.00
C660   C     0.14581   0.85483   0.35638   0.00000  Uiso   1.00
C661   C     0.13858   0.86586   0.39963   0.00000  Uiso   1.00
C662   C     0.19776   0.80200   0.10110   0.00000  Uiso   1.00
C663   C     0.10328   0.90320   0.46209   0.00000  Uiso   1.00
C664   C     0.27995   0.71562   0.02237   0.00000  Uiso   1.00
C665   C     0.16075   0.84694   0.41983   0.00000  Uiso   1.00
C666   C     0.01573   0.91727   0.23820   0.00000  Uiso   1.00
C667   C     0.21279   0.72785   0.10357   0.00000  Uiso   1.00
C668   C     0.17944   0.69085   0.09619   0.00000  Uiso   1.00
C669   C     0.17837   0.98850   0.12017   0.00000  Uiso   1.00
C670   C     0.28474   0.78634   0.45974   0.00000  Uiso   1.00
C671   C     0.31827   0.80998   0.48067   0.00000  Uiso   1.00
C672   C     0.03011   0.79743   0.46070   0.00000  Uiso   1.00
C673   C     0.04613   0.91578   0.41786   0.00000  Uiso   1.00
C674   C     0.09927   0.85092   0.08358   0.00000  Uiso   1.00
C675   C     0.08316   0.80402   0.08478   0.00000  Uiso   1.00
C676   C     0.15705   0.85797   0.46027   0.00000  Uiso   1.00
C677   C     0.05480   0.79498   0.12579   0.00000  Uiso   1.00
C678   C     0.25378   0.85217   0.42714   0.00000  Uiso   1.00
C679   C     0.26457   0.82696   0.38590   0.00000  Uiso   1.00
C680   C     0.31241   0.83561   0.36380   0.00000  Uiso   1.00
C681   C     0.12480   0.88311   0.48176   0.00000  Uiso   1.00
C682   C     0.18224   0.84189   0.48035   0.00000  Uiso   1.00
C683   C     0.16712   0.84216   0.02217   0.00000  Uiso   1.00
C684   C     0.12825   0.86067   0.04284   0.00000  Uiso   1.00
C685   C     0.11157   0.88515   0.02272   0.00000  Uiso   1.00
H686   H     0.08433   0.90202   0.03853   0.00000  Uiso   1.00
H687   H     0.30359   0.70938   0.49339   0.00000  Uiso   1.00
H688   H     0.01982   0.92014   0.26858   0.00000  Uiso   1.00
H689   H     0.31683   0.92566   0.23921   0.00000  Uiso   1.00
H690   H     0.04061   0.94029   0.22158   0.00000  Uiso   1.00
H691   H     0.21060   0.97709   0.11201   0.00000  Uiso   1.00
H692   H     0.16905   0.99919   0.15228   0.00000  Uiso   1.00
H693   H     0.15424   0.96215   0.11397   0.00000  Uiso   1.00
H694   H     0.14678   0.70146   0.10468   0.00000  Uiso   1.00
H695   H     0.18720   0.67870   0.06445   0.00000  Uiso   1.00
H696   H     0.24540   0.71803   0.09671   0.00000  Uiso   1.00
H697   H     0.31978   0.79658   0.27359   0.00000  Uiso   1.00
H698   H     0.20510   0.73709   0.13579   0.00000  Uiso   1.00
H699   H     0.03008   0.76329   0.46059   0.00000  Uiso   1.00
H700   H     0.04123   0.80565   0.42983   0.00000  Uiso   1.00
H701   H     0.05317   0.81433   0.47710   0.00000  Uiso   1.00
H702   H     0.31931   0.84419   0.48029   0.00000  Uiso   1.00
H703   H     0.30916   0.80387   0.01204   0.00000  Uiso   1.00
H704   H     0.28365   0.75219   0.45830   0.00000  Uiso   1.00
H705   H     0.29667   0.79140   0.42851   0.00000  Uiso   1.00
H706   H     0.03111   0.88482   0.42808   0.00000  Uiso   1.00
H707   H     0.03089   0.92142   0.39514   0.00000  Uiso   1.00
H708   H     0.20814   0.66953   0.21598   0.00000  Uiso   1.00
H709   H     0.03892   0.94111   0.44247   0.00000  Uiso   1.00
H710   H     0.07354   0.80423   0.14802   0.00000  Uiso   1.00
H711   H     0.02611   0.81239   0.13421   0.00000  Uiso   1.00
H712   H     0.04346   0.76098   0.12575   0.00000  Uiso   1.00
H713   H     0.06401   0.79379   0.06296   0.00000  Uiso   1.00
H714   H     0.11064   0.78516   0.07696   0.00000  Uiso   1.00
H715   H     0.11416   0.86342   0.10777   0.00000  Uiso   1.00
H716   H     0.06989   0.86735   0.09124   0.00000  Uiso   1.00
H717   H     0.31922   0.86707   0.35315   0.00000  Uiso   1.00
H718   H     0.00067   0.83395   0.38253   0.00000  Uiso   1.00
H719   H     0.12383   0.99856   0.28374   0.00000  Uiso   1.00
H720   H     0.32026   0.81157   0.33834   0.00000  Uiso   1.00
H721   H     0.25568   0.79283   0.38807   0.00000  Uiso   1.00
H722   H     0.24577   0.83597   0.36741   0.00000  Uiso   1.00
H723   H     0.24058   0.88094   0.42481   0.00000  Uiso   1.00
H724   H     0.28374   0.86461   0.43616   0.00000  Uiso   1.00
H725   H     0.17955   0.86077   0.09614   0.00000  Uiso   1.00
H726   H     0.08072   0.92469   0.47899   0.00000  Uiso   1.00
H727   H     0.17938   0.82200   0.40441   0.00000  Uiso   1.00
H728   H     0.27336   0.68613   0.03645   0.00000  Uiso   1.00
H729   H     0.29582   0.74095   0.04001   0.00000  Uiso   1.00
O730   O     0.16667   0.83333   0.25000   0.00000  Uiso   1.00
O731   O     0.15693   0.79060   0.16625   0.00000  Uiso   1.00
O732   O     0.12687   0.87313   0.33749   0.00000  Uiso   1.00
O733   O     0.21088   0.84159   0.15877   0.00000  Uiso   1.00
O734   O     0.17198   0.82802   0.33749   0.00000  Uiso   1.00
O735   O     0.24123   0.72470   0.01623   0.00000  Uiso   1.00
O736   O     0.02202   0.87694   0.21854   0.00000  Uiso   1.00
O737   O     0.09120   0.91713   0.40078   0.00000  Uiso   1.00
O738   O     0.17849   0.74768   0.27821   0.00000  Uiso   1.00
O739   O     0.14581   0.92803   0.26767   0.00000  Uiso   1.00
O740   O     0.07452   0.79917   0.23607   0.00000  Uiso   1.00
O741   O     0.26785   0.85845   0.21806   0.00000  Uiso   1.00
O742   O     0.06990   0.85627   0.27820   0.00000  Uiso   1.00
O743   O     0.25440   0.81944   0.26768   0.00000  Uiso   1.00
O744   O     0.13800   0.73570   0.23607   0.00000  Uiso   1.00
O745   O     0.20437   0.92193   0.21806   0.00000  Uiso   1.00
Zn746  Zn    0.19244   0.80756   0.28278   0.00000  Uiso   1.00
Zn747  Zn    0.13459   0.79044   0.22258   0.00000  Uiso   1.00
Zn748  Zn    0.21166   0.86331   0.21188   0.00000  Uiso   1.00
Zn749  Zn    0.12798   0.87202   0.28277   0.00000  Uiso   1.00
C750   C     0.38584   0.82618   0.25856   0.00000  Uiso   1.00
C751   C     0.55669   0.82792   0.46045   0.00000  Uiso   1.00
C752   C     0.57332   0.80023   0.47881   0.00000  Uiso   1.00
C753   C     0.61433   0.84111   0.24178   0.00000  Uiso   1.00
C754   C     0.55175   0.79287   0.01863   0.00000  Uiso   1.00
C755   C     0.52347   0.82175   0.04088   0.00000  Uiso   1.00
C756   C     0.56060   0.76127   0.03845   0.00000  Uiso   1.00
C757   C     0.54611   0.76416   0.08068   0.00000  Uiso   1.00
C758   C     0.52165   0.83099   0.08073   0.00000  Uiso   1.00
C759   C     0.66003   0.84777   0.24099   0.00000  Uiso   1.00
C760   C     0.34084   0.82283   0.26003   0.00000  Uiso   1.00
C761   C     0.44341   0.89519   0.42093   0.00000  Uiso   1.00
C762   C     0.51427   0.98880   0.23795   0.00000  Uiso   1.00
C763   C     0.48482   0.67857   0.26180   0.00000  Uiso   1.00
C764   C     0.48927   0.72266   0.25878   0.00000  Uiso   1.00
C765   C     0.51020   0.94432   0.24127   0.00000  Uiso   1.00
C766   C     0.52178   0.81146   0.14392   0.00000  Uiso   1.00
C767   C     0.47914   0.85483   0.35638   0.00000  Uiso   1.00
C768   C     0.47191   0.86586   0.39963   0.00000  Uiso   1.00
C769   C     0.53109   0.80200   0.10110   0.00000  Uiso   1.00
C770   C     0.43661   0.90320   0.46209   0.00000  Uiso   1.00
C771   C     0.61328   0.71562   0.02237   0.00000  Uiso   1.00
C772   C     0.49408   0.84694   0.41983   0.00000  Uiso   1.00
C773   C     0.34907   0.91727   0.23820   0.00000  Uiso   1.00
C774   C     0.54612   0.72785   0.10357   0.00000  Uiso   1.00
C775   C     0.51278   0.69085   0.09619   0.00000  Uiso   1.00
C776   C     0.51170   0.98850   0.12017   0.00000  Uiso   1.00
C777   C     0.61808   0.78634   0.45974   0.00000  Uiso   1.00
C778   C     0.65161   0.80998   0.48067   0.00000  Uiso   1.00
C779   C     0.36345   0.79743   0.46070   0.00000  Uiso   1.00
C780   C     0.37947   0.91578   0.41786   0.00000  Uiso   1.00
C781   C     0.43261   0.85092   0.08358   0.00000  Uiso   1.00
C782   C     0.41650   0.80402   0.08478   0.00000  Uiso   1.00
C783   C     0.49038   0.85797   0.46027   0.00000  Uiso   1.00
C784   C     0.38813   0.79498   0.12579   0.00000  Uiso   1.00
C785   C     0.58712   0.85217   0.42714   0.00000  Uiso   1.00
C786   C     0.59790   0.82696   0.38590   0.00000  Uiso   1.00
C787   C     0.64574   0.83561   0.36380   0.00000  Uiso   1.00
C788   C     0.45813   0.88311   0.48176   0.00000  Uiso   1.00
C789   C     0.51557   0.84189   0.48035   0.00000  Uiso   1.00
C790   C     0.50045   0.84216   0.02217   0.00000  Uiso   1.00
C791   C     0.46158   0.86067   0.04284   0.00000  Uiso   1.00
C792   C     0.44490   0.88515   0.02272   0.00000  Uiso   1.00
H793   H     0.41766   0.90202   0.03853   0.00000  Uiso   1.00
H794   H     0.63692   0.70938   0.49339   0.00000  Uiso   1.00
H795   H     0.35315   0.92014   0.26858   0.00000  Uiso   1.00
H796   H     0.65017   0.92566   0.23921   0.00000  Uiso   1.00
H797   H     0.37395   0.94029   0.22158   0.00000  Uiso   1.00
H798   H     0.54393   0.97709   0.11201   0.00000  Uiso   1.00
H799   H     0.50239   0.99919   0.15228   0.00000  Uiso   1.00
H800   H     0.48757   0.96215   0.11397   0.00000  Uiso   1.00
H801   H     0.48011   0.70146   0.10468   0.00000  Uiso   1.00
H802   H     0.52053   0.67870   0.06445   0.00000  Uiso   1.00
H803   H     0.57873   0.71803   0.09671   0.00000  Uiso   1.00
H804   H     0.65311   0.79658   0.27359   0.00000  Uiso   1.00
H805   H     0.53843   0.73709   0.13579   0.00000  Uiso   1.00
H806   H     0.36342   0.76329   0.46059   0.00000  Uiso   1.00
H807   H     0.37457   0.80565   0.42983   0.00000  Uiso   1.00
H808   H     0.38650   0.81433   0.47710   0.00000  Uiso   1.00
H809   H     0.65265   0.84419   0.48029   0.00000  Uiso   1.00
H810   H     0.64249   0.80387   0.01204   0.00000  Uiso   1.00
H811   H     0.61699   0.75219   0.45830   0.00000  Uiso   1.00
H812   H     0.63001   0.79140   0.42851   0.00000  Uiso   1.00
H813   H     0.36444   0.88482   0.42808   0.00000  Uiso   1.00
H814   H     0.36423   0.92142   0.39514   0.00000  Uiso   1.00
H815   H     0.54148   0.66953   0.21598   0.00000  Uiso   1.00
H816   H     0.37226   0.94111   0.44247   0.00000  Uiso   1.00
H817   H     0.40687   0.80423   0.14802   0.00000  Uiso   1.00
H818   H     0.35944   0.81239   0.13421   0.00000  Uiso   1.00
H819   H     0.37679   0.76098   0.12575   0.00000  Uiso   1.00
H820   H     0.39734   0.79379   0.06296   0.00000  Uiso   1.00
H821   H     0.44397   0.78516   0.07696   0.00000  Uiso   1.00
H822   H     0.44749   0.86342   0.10777   0.00000  Uiso   1.00
H823   H     0.40323   0.86735   0.09124   0.00000  Uiso   1.00
H824   H     0.65256   0.86707   0.35315   0.00000  Uiso   1.00
H825   H     0.33401   0.83395   0.38253   0.00000  Uiso   1.00
H826   H     0.45716   0.99856   0.28374   0.00000  Uiso   1.00
H827   H     0.65360   0.81157   0.33834   0.00000  Uiso   1.00
H828   H     0.58901   0.79283   0.38807   0.00000  Uiso   1.00
H829   H     0.57910   0.83597   0.36741   0.00000  Uiso   1.00
H830   H     0.57392   0.88094   0.42481   0.00000  Uiso   1.00
H831   H     0.61707   0.86461   0.43616   0.00000  Uiso   1.00
H832   H     0.51288   0.86077   0.09614   0.00000  Uiso   1.00
H833   H     0.41405   0.92469   0.47899   0.00000  Uiso   1.00
H834   H     0.51271   0.82200   0.40441   0.00000  Uiso   1.00
H835   H     0.60669   0.68613   0.03645   0.00000  Uiso   1.00
H836   H     0.62916   0.74095   0.04001   0.00000  Uiso   1.00
O837   O     0.50000   0.83333   0.25000   0.00000  Uiso   1.00
O838   O     0.49027   0.79060   0.16625   0.00000  Uiso   1.00
O839   O     0.46020   0.87313   0.33749   0.00000  Uiso   1.00
O840   O     0.54421   0.84159   0.15877   0.00000  Uiso   1.00
O841   O     0.50532   0.82802   0.33749   0.00000  Uiso   1.00
O842   O     0.57456   0.72470   0.01623   0.00000  Uiso   1.00
O843   O     0.35535   0.87694   0.21854   0.00000  Uiso   1.00
O844   O     0.42453   0.91713   0.40078   0.00000  Uiso   1.00
O845   O     0.51182   0.74768   0.27821   0.00000  Uiso   1.00
O846   O     0.47914   0.92803   0.26767   0.00000  Uiso   1.00
O847   O     0.40785   0.79917   0.23607   0.00000  Uiso   1.00
O848   O     0.60119   0.85845   0.21806   0.00000  Uiso   1.00
O849   O     0.40323   0.85627   0.27820   0.00000  Uiso   1.00
O850   O     0.58773   0.81944   0.26768   0.00000  Uiso   1.00
O851   O     0.47133   0.73570   0.23607   0.00000  Uiso   1.00
O852   O     0.53771   0.92193   0.21806   0.00000  Uiso   1.00
Zn853  Zn    0.52577   0.80756   0.28278   0.00000  Uiso   1.00
Zn854  Zn    0.46792   0.79044   0.22258   0.00000  Uiso   1.00
Zn855  Zn    0.54500   0.86331   0.21188   0.00000  Uiso   1.00
Zn856  Zn    0.46131   0.87202   0.28277   0.00000  Uiso   1.00
C857   C     0.71917   0.82618   0.25856   0.00000  Uiso   1.00
C858   C     0.89003   0.82792   0.46045   0.00000  Uiso   1.00
C859   C     0.90665   0.80023   0.47881   0.00000  Uiso   1.00
C860   C     0.94767   0.84111   0.24178   0.00000  Uiso   1.00
C861   C     0.88508   0.79287   0.01863   0.00000  Uiso   1.00
C862   C     0.85680   0.82175   0.04088   0.00000  Uiso   1.00
C863   C     0.89393   0.76127   0.03845   0.00000  Uiso   1.00
C864   C     0.87945   0.76416   0.08068   0.00000  Uiso   1.00
C865   C     0.85498   0.83099   0.08073   0.00000  Uiso   1.00
C866   C     0.99336   0.84777   0.24099   0.00000  Uiso   1.00
C867   C     0.67418   0.82283   0.26003   0.00000  Uiso   1.00
C868   C     0.77675   0.89519   0.42093   0.00000  Uiso   1.00
C869   C     0.84760   0.98880   0.23795   0.00000  Uiso   1.00
C870   C     0.81815   0.67857   0.26180   0.00000  Uiso   1.00
C871   C     0.82261   0.72266   0.25878   0.00000  Uiso   1.00
C872   C     0.84353   0.94432   0.24127   0.00000  Uiso   1.00
C873   C     0.85512   0.81146   0.14392   0.00000  Uiso   1.00
C874   C     0.81248   0.85483   0.35638   0.00000  Uiso   1.00
C875   C     0.80524   0.86586   0.39963   0.00000  Uiso   1.00
C876   C     0.86443   0.80200   0.10110   0.00000  Uiso   1.00
C877   C     0.76994   0.90320   0.46209   0.00000  Uiso   1.00
C878   C     0.94661   0.71562   0.02237   0.00000  Uiso   1.00
C879   C     0.82742   0.84694   0.41983   0.00000  Uiso   1.00
C880   C     0.68240   0.91727   0.23820   0.00000  Uiso   1.00
C881   C     0.87945   0.72785   0.10357   0.00000  Uiso   1.00
C882   C     0.84611   0.69085   0.09619   0.00000  Uiso   1.00
C883   C     0.84504   0.98850   0.12017   0.00000  Uiso   1.00
C884   C     0.95141   0.78634   0.45974   0.00000  Uiso   1.00
C885   C     0.98494   0.80998   0.48067   0.00000  Uiso   1.00
C886   C     0.69678   0.79743   0.46070   0.00000  Uiso   1.00
C887   C     0.71280   0.91578   0.41786   0.00000  Uiso   1.00
C888   C     0.76594   0.85092   0.08358   0.00000  Uiso   1.00
C889   C     0.74983   0.80402   0.08478   0.00000  Uiso   1.00
C890   C     0.82371   0.85797   0.46027   0.00000  Uiso   1.00
C891   C     0.72146   0.79498   0.12579   0.00000  Uiso   1.00
C892   C     0.92045   0.85217   0.42714   0.00000  Uiso   1.00
C893   C     0.93124   0.82696   0.38590   0.00000  Uiso   1.00
C894   C     0.97907   0.83561   0.36380   0.00000  Uiso   1.00
C895   C     0.79147   0.88311   0.48176   0.00000  Uiso   1.00
C896   C     0.84890   0.84189   0.48035   0.00000  Uiso   1.00
C897   C     0.83379   0.84216   0.02217   0.00000  Uiso   1.00
C898   C     0.79491   0.86067   0.04284   0.00000  Uiso   1.00
C899   C     0.77824   0.88515   0.02272   0.00000  Uiso   1.00
H900   H     0.75100   0.90202   0.03853   0.00000  Uiso   1.00
H901   H     0.97026   0.70938   0.49339   0.00000  Uiso   1.00
H902   H     0.68649   0.92014   0.26858   0.00000  Uiso   1.00
H903   H     0.98350   0.92566   0.23921   0.00000  Uiso   1.00
H904   H     0.70728   0.94029   0.22158   0.00000  Uiso   1.00
H905   H     0.87727   0.97709   0.11201   0.00000  Uiso   1.00
H906   H     0.83572   0.99919   0.15228   0.00000  Uiso   1.00
H907   H     0.82091   0.96215   0.11397   0.00000  Uiso   1.00
H908   H     0.81345   0.70146   0.10468   0.00000  Uiso   1.00
H909   H     0.85387   0.67870   0.06445   0.00000  Uiso   1.00
H910   H     0.91206   0.71803   0.09671   0.00000  Uiso   1.00
H911   H     0.98645   0.79658   0.27359   0.00000  Uiso   1.00
H912   H     0.87176   0.73709   0.13579   0.00000  Uiso   1.00
H913   H     0.69675   0.76329   0.46059   0.00000  Uiso   1.00
H914   H     0.70790   0.80565   0.42983   0.00000  Uiso   1.00
H915   H     0.71983   0.81433   0.47710   0.00000  Uiso   1.00
H916   H     0.98598   0.84419   0.48029   0.00000  Uiso   1.00
H917   H     0.97582   0.80387   0.01204   0.00000  Uiso   1.00
H918   H     0.95032   0.75219   0.45830   0.00000  Uiso   1.00
H919   H     0.96334   0.79140   0.42851   0.00000  Uiso   1.00
H920   H     0.69778   0.88482   0.42808   0.00000  Uiso   1.00
H921   H     0.69756   0.92142   0.39514   0.00000  Uiso   1.00
H922   H     0.87481   0.66953   0.21598   0.00000  Uiso   1.00
H923   H     0.70559   0.94111   0.44247   0.00000  Uiso   1.00
H924   H     0.74021   0.80423   0.14802   0.00000  Uiso   1.00
H925   H     0.69277   0.81239   0.13421   0.00000  Uiso   1.00
H926   H     0.71012   0.76098   0.12575   0.00000  Uiso   1.00
H927   H     0.73067   0.79379   0.06296   0.00000  Uiso   1.00
H928   H     0.77730   0.78516   0.07696   0.00000  Uiso   1.00
H929   H     0.78083   0.86342   0.10777   0.00000  Uiso   1.00
H930   H     0.73656   0.86735   0.09124   0.00000  Uiso   1.00
H931   H     0.98589   0.86707   0.35315   0.00000  Uiso   1.00
H932   H     0.66734   0.83395   0.38253   0.00000  Uiso   1.00
H933   H     0.79050   0.99856   0.28374   0.00000  Uiso   1.00
H934   H     0.98693   0.81157   0.33834   0.00000  Uiso   1.00
H935   H     0.92234   0.79283   0.38807   0.00000  Uiso   1.00
H936   H     0.91243   0.83597   0.36741   0.00000  Uiso   1.00
H937   H     0.90725   0.88094   0.42481   0.00000  Uiso   1.00
H938   H     0.95041   0.86461   0.43616   0.00000  Uiso   1.00
H939   H     0.84621   0.86077   0.09614   0.00000  Uiso   1.00
H940   H     0.74739   0.92469   0.47899   0.00000  Uiso   1.00
H941   H     0.84604   0.82200   0.40441   0.00000  Uiso   1.00
H942   H     0.94002   0.68613   0.03645   0.00000  Uiso   1.00
H943   H     0.96249   0.74095   0.04001   0.00000  Uiso   1.00
O944   O     0.83333   0.83333   0.25000   0.00000  Uiso   1.00
O945   O     0.82360   0.79060   0.16625   0.00000  Uiso   1.00
O946   O     0.79354   0.87313   0.33749   0.00000  Uiso   1.00
O947   O     0.87755   0.84159   0.15877   0.00000  Uiso   1.00
O948   O     0.83865   0.82802   0.33749   0.00000  Uiso   1.00
O949   O     0.90790   0.72470   0.01623   0.00000  Uiso   1.00
O950   O     0.68868   0.87694   0.21854   0.00000  Uiso   1.00
O951   O     0.75787   0.91713   0.40078   0.00000  Uiso   1.00
O952   O     0.84515   0.74768   0.27821   0.00000  Uiso   1.00
O953   O     0.81247   0.92803   0.26767   0.00000  Uiso   1.00
O954   O     0.74119   0.79917   0.23607   0.00000  Uiso   1.00
O955   O     0.93452   0.85845   0.21806   0.00000  Uiso   1.00
O956   O     0.73656   0.85627   0.27820   0.00000  Uiso   1.00
O957   O     0.92106   0.81944   0.26768   0.00000  Uiso   1.00
O958   O     0.80467   0.73570   0.23607   0.00000  Uiso   1.00
O959   O     0.87104   0.92193   0.21806   0.00000  Uiso   1.00
Zn960  Zn    0.85910   0.80756   0.28278   0.00000  Uiso   1.00
Zn961  Zn    0.80125   0.79044   0.22258   0.00000  Uiso   1.00
Zn962  Zn    0.87833   0.86331   0.21188   0.00000  Uiso   1.00
Zn963  Zn    0.79465   0.87202   0.28277   0.00000  Uiso   1.00
C964   C     0.05250   0.15951   0.75856   0.00000  Uiso   1.00
C965   C     0.22336   0.16126   0.96045   0.00000  Uiso   1.00
C966   C     0.23998   0.13356   0.97881   0.00000  Uiso   1.00
C967   C     0.28100   0.17444   0.74178   0.00000  Uiso   1.00
C968   C     0.21842   0.12621   0.51863   0.00000  Uiso   1.00
C969   C     0.19014   0.15509   0.54088   0.00000  Uiso   1.00
C970   C     0.22726   0.09461   0.53845   0.00000  Uiso   1.00
C971   C     0.21278   0.09749   0.58068   0.00000  Uiso   1.00
C972   C     0.18832   0.16432   0.58073   0.00000  Uiso   1.00
C973   C     0.32669   0.18110   0.74099   0.00000  Uiso   1.00
C974   C     0.00751   0.15616   0.76003   0.00000  Uiso   1.00
C975   C     0.11008   0.22852   0.92093   0.00000  Uiso   1.00
C976   C     0.18094   0.32213   0.73795   0.00000  Uiso   1.00
C977   C     0.15148   0.01191   0.76180   0.00000  Uiso   1.00
C978   C     0.15594   0.05599   0.75878   0.00000  Uiso   1.00
C979   C     0.17686   0.27765   0.74127   0.00000  Uiso   1.00
C980   C     0.18845   0.14480   0.64392   0.00000  Uiso   1.00
C981   C     0.14581   0.18817   0.85638   0.00000  Uiso   1.00
C982   C     0.13858   0.19919   0.89963   0.00000  Uiso   1.00
C983   C     0.19776   0.13534   0.60110   0.00000  Uiso   1.00
C984   C     0.10328   0.23653   0.96209   0.00000  Uiso   1.00
C985   C     0.27995   0.04895   0.52237   0.00000  Uiso   1.00
C986   C     0.16075   0.18027   0.91983   0.00000  Uiso   1.00
C987   C     0.01573   0.25061   0.73820   0.00000  Uiso   1.00
C988   C     0.21279   0.06118   0.60357   0.00000  Uiso   1.00
C989   C     0.17944   0.02418   0.59619   0.00000  Uiso   1.00
C990   C     0.17837   0.32184   0.62017   0.00000  Uiso   1.00
C991   C     0.28474   0.11967   0.95974   0.00000  Uiso   1.00
C992   C     0.31827   0.14331   0.98067   0.00000  Uiso   1.00
C993   C     0.03011   0.13077   0.96070   0.00000  Uiso   1.00
C994   C     0.04613   0.24912   0.91786   0.00000  Uiso   1.00
C995   C     0.09927   0.18425   0.58358   0.00000  Uiso   1.00
C996   C     0.08316   0.13736   0.58478   0.00000  Uiso   1.00
C997   C     0.15705   0.19130   0.96027   0.00000  Uiso   1.00
C998   C     0.05480   0.12832   0.62579   0.00000  Uiso   1.00
C999   C     0.25378   0.18551   0.92714   0.00000  Uiso   1.00
C1000  C     0.26457   0.16030   0.88590   0.00000  Uiso   1.00
C1001  C     0.31241   0.16895   0.86380   0.00000  Uiso   1.00
C1002  C     0.12480   0.21645   0.98176   0.00000  Uiso   1.00
C1003  C     0.18224   0.17522   0.98035   0.00000  Uiso   1.00
C1004  C     0.16712   0.17550   0.52217   0.00000  Uiso   1.00
C1005  C     0.12825   0.19401   0.54284   0.00000  Uiso   1.00
C1006  C     0.11157   0.21849   0.52272   0.00000  Uiso   1.00
H1007  H     0.08433   0.23536   0.53853   0.00000  Uiso   1.00
H1008  H     0.30359   0.04271   0.99339   0.00000  Uiso   1.00
H1009  H     0.01982   0.25347   0.76858   0.00000  Uiso   1.00
H1010  H     0.31683   0.25899   0.73921   0.00000  Uiso   1.00
H1011  H     0.04061   0.27362   0.72158   0.00000  Uiso   1.00
H1012  H     0.21060   0.31043   0.61201   0.00000  Uiso   1.00
H1013  H     0.16905   0.33252   0.65228   0.00000  Uiso   1.00
H1014  H     0.15424   0.29548   0.61397   0.00000  Uiso   1.00
H1015  H     0.14678   0.03479   0.60468   0.00000  Uiso   1.00
H1016  H     0.18720   0.01203   0.56445   0.00000  Uiso   1.00
H1017  H     0.24540   0.05136   0.59671   0.00000  Uiso   1.00
H1018  H     0.31978   0.12991   0.77359   0.00000  Uiso   1.00
H1019  H     0.20510   0.07042   0.63579   0.00000  Uiso   1.00
H1020  H     0.03008   0.09662   0.96059   0.00000  Uiso   1.00
H1021  H     0.04123   0.13899   0.92983   0.00000  Uiso   1.00
H1022  H     0.05317   0.14767   0.97710   0.00000  Uiso   1.00
H1023  H     0.31931   0.17753   0.98029   0.00000  Uiso   1.00
H1024  H     0.30916   0.13720   0.51204   0.00000  Uiso   1.00
H1025  H     0.28365   0.08552   0.95830   0.00000  Uiso   1.00
H1026  H     0.29667   0.12473   0.92851   0.00000  Uiso   1.00
H1027  H     0.03111   0.21815   0.92808   0.00000  Uiso   1.00
H1028  H     0.03089   0.25475   0.89514   0.00000  Uiso   1.00
H1029  H     0.20814   0.00286   0.71598   0.00000  Uiso   1.00
H1030  H     0.03892   0.27445   0.94247   0.00000  Uiso   1.00
H1031  H     0.07354   0.13757   0.64802   0.00000  Uiso   1.00
H1032  H     0.02611   0.14573   0.63421   0.00000  Uiso   1.00
H1033  H     0.04346   0.09432   0.62575   0.00000  Uiso   1.00
H1034  H     0.06401   0.12712   0.56296   0.00000  Uiso   1.00
H1035  H     0.11064   0.11849   0.57696   0.00000  Uiso   1.00
H1036  H     0.11416   0.19675   0.60777   0.00000  Uiso   1.00
H1037  H     0.06989   0.20068   0.59124   0.00000  Uiso   1.00
H1038  H     0.31922   0.20040   0.85315   0.00000  Uiso   1.00
H1039  H     0.00067   0.16728   0.88253   0.00000  Uiso   1.00
H1040  H     0.12383   0.33190   0.78374   0.00000  Uiso   1.00
H1041  H     0.32026   0.14490   0.83834   0.00000  Uiso   1.00
H1042  H     0.25568   0.12617   0.88807   0.00000  Uiso   1.00
H1043  H     0.24577   0.16931   0.86741   0.00000  Uiso   1.00
H1044  H     0.24058   0.21428   0.92481   0.00000  Uiso   1.00
H1045  H     0.28374   0.19794   0.93616   0.00000  Uiso   1.00
H1046  H     0.17955   0.19410   0.59614   0.00000  Uiso   1.00
H1047  H     0.08072   0.25802   0.97899   0.00000  Uiso   1.00
H1048  H     0.17938   0.15534   0.90441   0.00000  Uiso   1.00
H1049  H     0.27336   0.01946   0.53645   0.00000  Uiso   1.00
H1050  H     0.29582   0.07429   0.54001   0.00000  Uiso   1.00
O1051  O     0.16667   0.16667   0.75000   0.00000  Uiso   1.00
O1052  O     0.15693   0.12393   0.66625   0.00000  Uiso   1.00
O1053  O     0.12687   0.20646   0.83749   0.00000  Uiso   1.00
O1054  O     0.21088   0.17493   0.65877   0.00000  Uiso   1.00
O1055  O     0.17198   0.16135   0.83749   0.00000  Uiso   1.00
O1056  O     0.24123   0.05804   0.51623   0.00000  Uiso   1.00
O1057  O     0.02202   0.21028   0.71854   0.00000  Uiso   1.00
O1058  O     0.09120   0.25046   0.90078   0.00000  Uiso   1.00
O1059  O     0.17849   0.08101   0.77821   0.00000  Uiso   1.00
O1060  O     0.14581   0.26136   0.76767   0.00000  Uiso   1.00
O1061  O     0.07452   0.13251   0.73607   0.00000  Uiso   1.00
O1062  O     0.26785   0.19179   0.71806   0.00000  Uiso   1.00
O1063  O     0.06990   0.18960   0.77820   0.00000  Uiso   1.00
O1064  O     0.25440   0.15277   0.76768   0.00000  Uiso   1.00
O1065  O     0.13800   0.06903   0.73607   0.00000  Uiso   1.00
O1066  O     0.20437   0.25527   0.71806   0.00000  Uiso   1.00
Zn1067 Zn    0.19244   0.14090   0.78278   0.00000  Uiso   1.00
Zn1068 Zn    0.13459   0.12378   0.72258   0.00000  Uiso   1.00
Zn1069 Zn    0.21166   0.19664   0.71188   0.00000  Uiso   1.00
Zn1070 Zn    0.12798   0.20535   0.78277   0.00000  Uiso   1.00
C1071  C     0.38584   0.15951   0.75856   0.00000  Uiso   1.00
C1072  C     0.55669   0.16126   0.96045   0.00000  Uiso   1.00
C1073  C     0.57332   0.13356   0.97881   0.00000  Uiso   1.00
C1074  C     0.61433   0.17444   0.74178   0.00000  Uiso   1.00
C1075  C     0.55175   0.12621   0.51863   0.00000  Uiso   1.00
C1076  C     0.52347   0.15509   0.54088   0.00000  Uiso   1.00
C1077  C     0.56060   0.09461   0.53845   0.00000  Uiso   1.00
C1078  C     0.54611   0.09749   0.58068   0.00000  Uiso   1.00
C1079  C     0.52165   0.16432   0.58073   0.00000  Uiso   1.00
C1080  C     0.66003   0.18110   0.74099   0.00000  Uiso   1.00
C1081  C     0.34084   0.15616   0.76003   0.00000  Uiso   1.00
C1082  C     0.44341   0.22852   0.92093   0.00000  Uiso   1.00
C1083  C     0.51427   0.32213   0.73795   0.00000  Uiso   1.00
C1084  C     0.48482   0.01191   0.76180   0.00000  Uiso   1.00
C1085  C     0.48927   0.05599   0.75878   0.00000  Uiso   1.00
C1086  C     0.51020   0.27765   0.74127   0.00000  Uiso   1.00
C1087  C     0.52178   0.14480   0.64392   0.00000  Uiso   1.00
C1088  C     0.47914   0.18817   0.85638   0.00000  Uiso   1.00
C1089  C     0.47191   0.19919   0.89963   0.00000  Uiso   1.00
C1090  C     0.53109   0.13534   0.60110   0.00000  Uiso   1.00
C1091  C     0.43661   0.23653   0.96209   0.00000  Uiso   1.00
C1092  C     0.61328   0.04895   0.52237   0.00000  Uiso   1.00
C1093  C     0.49408   0.18027   0.91983   0.00000  Uiso   1.00
C1094  C     0.34907   0.25061   0.73820   0.00000  Uiso   1.00
C1095  C     0.54612   0.06118   0.60357   0.00000  Uiso   1.00
C1096  C     0.51278   0.02418   0.59619   0.00000  Uiso   1.00
C1097  C     0.51170   0.32184   0.62017   0.00000  Uiso   1.00
C1098  C     0.61808   0.11967   0.95974   0.00000  Uiso   1.00
C1099  C     0.65161   0.14331   0.98067   0.00000  Uiso   1.00
C1100  C     0.36345   0.13077   0.96070   0.00000  Uiso   1.00
C1101  C     0.37947   0.24912   0.91786   0.00000  Uiso   1.00
C1102  C     0.43261   0.18425   0.58358   0.00000  Uiso   1.00
C1103  C     0.41650   0.13736   0.58478   0.00000  Uiso   1.00
C1104  C     0.49038   0.19130   0.96027   0.00000  Uiso   1.00
C1105  C     0.38813   0.12832   0.62579   0.00000  Uiso   1.00
C1106  C     0.58712   0.18551   0.92714   0.00000  Uiso   1.00
C1107  C     0.59790   0.16030   0.88590   0.00000  Uiso   1.00
C1108  C     0.64574   0.16895   0.86380   0.00000  Uiso   1.00
C1109  C     0.45813   0.21645   0.98176   0.00000  Uiso   1.00
C1110  C     0.51557   0.17522   0.98035   0.00000  Uiso   1.00
C1111  C     0.50045   0.17550   0.52217   0.00000  Uiso   1.00
C1112  C     0.46158   0.19401   0.54284   0.00000  Uiso   1.00
C1113  C     0.44490   0.21849   0.52272   0.00000  Uiso   1.00
H1114  H     0.41766   0.23536   0.53853   0.00000  Uiso   1.00
H1115  H     0.63692   0.04271   0.99339   0.00000  Uiso   1.00
H1116  H     0.35315   0.25347   0.76858   0.00000  Uiso   1.00
H1117  H     0.65017   0.25899   0.73921   0.00000  Uiso   1.00
H1118  H     0.37395   0.27362   0.72158   0.00000  Uiso   1.00
H1119  H     0.54393   0.31043   0.61201   0.00000  Uiso   1.00
H1120  H     0.50239   0.33252   0.65228   0.00000  Uiso   1.00
H1121  H     0.48757   0.29548   0.61397   0.00000  Uiso   1.00
H1122  H     0.48011   0.03479   0.60468   0.00000  Uiso   1.00
H1123  H     0.52053   0.01203   0.56445   0.00000  Uiso   1.00
H1124  H     0.57873   0.05136   0.59671   0.00000  Uiso   1.00
H1125  H     0.65311   0.12991   0.77359   0.00000  Uiso   1.00
H1126  H     0.53843   0.07042   0.63579   0.00000  Uiso   1.00
H1127  H     0.36342   0.09662   0.96059   0.00000  Uiso   1.00
H1128  H     0.37457   0.13899   0.92983   0.00000  Uiso   1.00
H1129  H     0.38650   0.14767   0.97710   0.00000  Uiso   1.00
H1130  H     0.65265   0.17753   0.98029   0.00000  Uiso   1.00
H1131  H     0.64249   0.13720   0.51204   0.00000  Uiso   1.00
H1132  H     0.61699   0.08552   0.95830   0.00000  Uiso   1.00
H1133  H     0.63001   0.12473   0.92851   0.00000  Uiso   1.00
H1134  H     0.36444   0.21815   0.92808   0.00000  Uiso   1.00
H1135  H     0.36423   0.25475   0.89514   0.00000  Uiso   1.00
H1136  H     0.54148   0.00286   0.71598   0.00000  Uiso   1.00
H1137  H     0.37226   0.27445   0.94247   0.00000  Uiso   1.00
H1138  H     0.40687   0.13757   0.64802   0.00000  Uiso   1.00
H1139  H     0.35944   0.14573   0.63421   0.00000  Uiso   1.00
H1140  H     0.37679   0.09432   0.62575   0.00000  Uiso   1.00
H1141  H     0.39734   0.12712   0.56296   0.00000  Uiso   1.00
H1142  H     0.44397   0.11849   0.57696   0.00000  Uiso   1.00
H1143  H     0.44749   0.19675   0.60777   0.00000  Uiso   1.00
H1144  H     0.40323   0.20068   0.59124   0.00000  Uiso   1.00
H1145  H     0.65256   0.20040   0.85315   0.00000  Uiso   1.00
H1146  H     0.33401   0.16728   0.88253   0.00000  Uiso   1.00
H1147  H     0.45716   0.33190   0.78374   0.00000  Uiso   1.00
H1148  H     0.65360   0.14490   0.83834   0.00000  Uiso   1.00
H1149  H     0.58901   0.12617   0.88807   0.00000  Uiso   1.00
H1150  H     0.57910   0.16931   0.86741   0.00000  Uiso   1.00
H1151  H     0.57392   0.21428   0.92481   0.00000  Uiso   1.00
H1152  H     0.61707   0.19794   0.93616   0.00000  Uiso   1.00
H1153  H     0.51288   0.19410   0.59614   0.00000  Uiso   1.00
H1154  H     0.41405   0.25802   0.97899   0.00000  Uiso   1.00
H1155  H     0.51271   0.15534   0.90441   0.00000  Uiso   1.00
H1156  H     0.60669   0.01946   0.53645   0.00000  Uiso   1.00
H1157  H     0.62916   0.07429   0.54001   0.00000  Uiso   1.00
O1158  O     0.50000   0.16667   0.75000   0.00000  Uiso   1.00
O1159  O     0.49027   0.12393   0.66625   0.00000  Uiso   1.00
O1160  O     0.46020   0.20646   0.83749   0.00000  Uiso   1.00
O1161  O     0.54421   0.17493   0.65877   0.00000  Uiso   1.00
O1162  O     0.50532   0.16135   0.83749   0.00000  Uiso   1.00
O1163  O     0.57456   0.05804   0.51623   0.00000  Uiso   1.00
O1164  O     0.35535   0.21028   0.71854   0.00000  Uiso   1.00
O1165  O     0.42453   0.25046   0.90078   0.00000  Uiso   1.00
O1166  O     0.51182   0.08101   0.77821   0.00000  Uiso   1.00
O1167  O     0.47914   0.26136   0.76767   0.00000  Uiso   1.00
O1168  O     0.40785   0.13251   0.73607   0.00000  Uiso   1.00
O1169  O     0.60119   0.19179   0.71806   0.00000  Uiso   1.00
O1170  O     0.40323   0.18960   0.77820   0.00000  Uiso   1.00
O1171  O     0.58773   0.15277   0.76768   0.00000  Uiso   1.00
O1172  O     0.47133   0.06903   0.73607   0.00000  Uiso   1.00
O1173  O     0.53771   0.25527   0.71806   0.00000  Uiso   1.00
Zn1174 Zn    0.52577   0.14090   0.78278   0.00000  Uiso   1.00
Zn1175 Zn    0.46792   0.12378   0.72258   0.00000  Uiso   1.00
Zn1176 Zn    0.54500   0.19664   0.71188   0.00000  Uiso   1.00
Zn1177 Zn    0.46131   0.20535   0.78277   0.00000  Uiso   1.00
C1178  C     0.71917   0.15951   0.75856   0.00000  Uiso   1.00
C1179  C     0.89003   0.16126   0.96045   0.00000  Uiso   1.00
C1180  C     0.90665   0.13356   0.97881   0.00000  Uiso   1.00
C1181  C     0.94767   0.17444   0.74178   0.00000  Uiso   1.00
C1182  C     0.88508   0.12621   0.51863   0.00000  Uiso   1.00
C1183  C     0.85680   0.15509   0.54088   0.00000  Uiso   1.00
C1184  C     0.89393   0.09461   0.53845   0.00000  Uiso   1.00
C1185  C     0.87945   0.09749   0.58068   0.00000  Uiso   1.00
C1186  C     0.85498   0.16432   0.58073   0.00000  Uiso   1.00
C1187  C     0.99336   0.18110   0.74099   0.00000  Uiso   1.00
C1188  C     0.67418   0.15616   0.76003   0.00000  Uiso   1.00
C1189  C     0.77675   0.22852   0.92093   0.00000  Uiso   1.00
C1190  C     0.84760   0.32213   0.73795   0.00000  Uiso   1.00
C1191  C     0.81815   0.01191   0.76180   0.00000  Uiso   1.00
C1192  C     0.82261   0.05599   0.75878   0.00000  Uiso   1.00
C1193  C     0.84353   0.27765   0.74127   0.00000  Uiso   1.00
C1194  C     0.85512   0.14480   0.64392   0.00000  Uiso   1.00
C1195  C     0.81248   0.18817   0.85638   0.00000  Uiso   1.00
C1196  C     0.80524   0.19919   0.89963   0.00000  Uiso   1.00
C1197  C     0.86443   0.13534   0.60110   0.00000  Uiso   1.00
C1198  C     0.76994   0.23653   0.96209   0.00000  Uiso   1.00
C1199  C     0.94661   0.04895   0.52237   0.00000  Uiso   1.00
C1200  C     0.82742   0.18027   0.91983   0.00000  Uiso   1.00
C1201  C     0.68240   0.25061   0.73820   0.00000  Uiso   1.00
C1202  C     0.87945   0.06118   0.60357   0.00000  Uiso   1.00
C1203  C     0.84611   0.02418   0.59619   0.00000  Uiso   1.00
C1204  C     0.84504   0.32184   0.62017   0.00000  Uiso   1.00
C1205  C     0.95141   0.11967   0.95974   0.00000  Uiso   1.00
C1206  C     0.98494   0.14331   0.98067   0.00000  Uiso   1.00
C1207  C     0.69678   0.13077   0.96070   0.00000  Uiso   1.00
C1208  C     0.71280   0.24912   0.91786   0.00000  Uiso   1.00
C1209  C     0.76594   0.18425   0.58358   0.00000  Uiso   1.00
C1210  C     0.74983   0.13736   0.58478   0.00000  Uiso   1.00
C1211  C     0.82371   0.19130   0.96027   0.00000  Uiso   1.00
C1212  C     0.72146   0.12832   0.62579   0.00000  Uiso   1.00
C1213  C     0.92045   0.18551   0.92714   0.00000  Uiso   1.00
C1214  C     0.93124   0.16030   0.88590   0.00000  Uiso   1.00
C1215  C     0.97907   0.16895   0.86380   0.00000  Uiso   1.00
C1216  C     0.79147   0.21645   0.98176   0.00000  Uiso   1.00
C1217  C     0.84890   0.17522   0.98035   0.00000  Uiso   1.00
C1218  C     0.83379   0.17550   0.52217   0.00000  Uiso   1.00
C1219  C     0.79491   0.19401   0.54284   0.00000  Uiso   1.00
C1220  C     0.77824   0.21849   0.52272   0.00000  Uiso   1.00
H1221  H     0.75100   0.23536   0.53853   0.00000  Uiso   1.00
H1222  H     0.97026   0.04271   0.99339   0.00000  Uiso   1.00
H1223  H     0.68649   0.25347   0.76858   0.00000  Uiso   1.00
H1224  H     0.98350   0.25899   0.73921   0.00000  Uiso   1.00
H1225  H     0.70728   0.27362   0.72158   0.00000  Uiso   1.00
H1226  H     0.87727   0.31043   0.61201   0.00000  Uiso   1.00
H1227  H     0.83572   0.33252   0.65228   0.00000  Uiso   1.00
H1228  H     0.82091   0.29548   0.61397   0.00000  Uiso   1.00
H1229  H     0.81345   0.03479   0.60468   0.00000  Uiso   1.00
H1230  H     0.85387   0.01203   0.56445   0.00000  Uiso   1.00
H1231  H     0.91206   0.05136   0.59671   0.00000  Uiso   1.00
H1232  H     0.98645   0.12991   0.77359   0.00000  Uiso   1.00
H1233  H     0.87176   0.07042   0.63579   0.00000  Uiso   1.00
H1234  H     0.69675   0.09662   0.96059   0.00000  Uiso   1.00
H1235  H     0.70790   0.13899   0.92983   0.00000  Uiso   1.00
H1236  H     0.71983   0.14767   0.97710   0.00000  Uiso   1.00
H1237  H     0.98598   0.17753   0.98029   0.00000  Uiso   1.00
H1238  H     0.97582   0.13720   0.51204   0.00000  Uiso   1.00
H1239  H     0.95032   0.08552   0.95830   0.00000  Uiso   1.00
H1240  H     0.96334   0.12473   0.92851   0.00000  Uiso   1.00
H1241  H     0.69778   0.21815   0.92808   0.00000  Uiso   1.00
H1242  H     0.69756   0.25475   0.89514   0.00000  Uiso   1.00
H1243  H     0.87481   0.00286   0.71598   0.00000  Uiso   1.00
H1244  H     0.70559   0.27445   0.94247   0.00000  Uiso   1.00
H1245  H     0.74021   0.13757   0.64802   0.00000  Uiso   1.00
H1246  H     0.69277   0.14573   0.63421   0.00000  Uiso   1.00
H1247  H     0.71012   0.09432   0.62575   0.00000  Uiso   1.00
H1248  H     0.73067   0.12712   0.56296   0.00000  Uiso   1.00
H1249  H     0.77730   0.11849   0.57696   0.00000  Uiso   1.00
H1250  H     0.78083   0.19675   0.60777   0.00000  Uiso   1.00
H1251  H     0.73656   0.20068   0.59124   0.00000  Uiso   1.00
H1252  H     0.98589   0.20040   0.85315   0.00000  Uiso   1.00
H1253  H     0.66734   0.16728   0.88253   0.00000  Uiso   1.00
H1254  H     0.79050   0.33190   0.78374   0.00000  Uiso   1.00
H1255  H     0.98693   0.14490   0.83834   0.00000  Uiso   1.00
H1256  H     0.92234   0.12617   0.88807   0.00000  Uiso   1.00
H1257  H     0.91243   0.16931   0.86741   0.00000  Uiso   1.00
H1258  H     0.90725   0.21428   0.92481   0.00000  Uiso   1.00
H1259  H     0.95041   0.19794   0.93616   0.00000  Uiso   1.00
H1260  H     0.84621   0.19410   0.59614   0.00000  Uiso   1.00
H1261  H     0.74739   0.25802   0.97899   0.00000  Uiso   1.00
H1262  H     0.84604   0.15534   0.90441   0.00000  Uiso   1.00
H1263  H     0.94002   0.01946   0.53645   0.00000  Uiso   1.00
H1264  H     0.96249   0.07429   0.54001   0.00000  Uiso   1.00
O1265  O     0.83333   0.16667   0.75000   0.00000  Uiso   1.00
O1266  O     0.82360   0.12393   0.66625   0.00000  Uiso   1.00
O1267  O     0.79354   0.20646   0.83749   0.00000  Uiso   1.00
O1268  O     0.87755   0.17493   0.65877   0.00000  Uiso   1.00
O1269  O     0.83865   0.16135   0.83749   0.00000  Uiso   1.00
O1270  O     0.90790   0.05804   0.51623   0.00000  Uiso   1.00
O1271  O     0.68868   0.21028   0.71854   0.00000  Uiso   1.00
O1272  O     0.75787   0.25046   0.90078   0.00000  Uiso   1.00
O1273  O     0.84515   0.08101   0.77821   0.00000  Uiso   1.00
O1274  O     0.81247   0.26136   0.76767   0.00000  Uiso   1.00
O1275  O     0.74119   0.13251   0.73607   0.00000  Uiso   1.00
O1276  O     0.93452   0.19179   0.71806   0.00000  Uiso   1.00
O1277  O     0.73656   0.18960   0.77820   0.00000  Uiso   1.00
O1278  O     0.92106   0.15277   0.76768   0.00000  Uiso   1.00
O1279  O     0.80467   0.06903   0.73607   0.00000  Uiso   1.00
O1280  O     0.87104   0.25527   0.71806   0.00000  Uiso   1.00
Zn1281 Zn    0.85910   0.14090   0.78278   0.00000  Uiso   1.00
Zn1282 Zn    0.80125   0.12378   0.72258   0.00000  Uiso   1.00
Zn1283 Zn    0.87833   0.19664   0.71188   0.00000  Uiso   1.00
Zn1284 Zn    0.79465   0.20535   0.78277   0.00000  Uiso   1.00
C1285  C     0.05250   0.49285   0.75856   0.00000  Uiso   1.00
C1286  C     0.22336   0.49459   0.96045   0.00000  Uiso   1.00
C1287  C     0.23998   0.46690   0.97881   0.00000  Uiso   1.00
C1288  C     0.28100   0.50778   0.74178   0.00000  Uiso   1.00
C1289  C     0.21842   0.45954   0.51863   0.00000  Uiso   1.00
C1290  C     0.19014   0.48842   0.54088   0.00000  Uiso   1.00
C1291  C     0.22726   0.42794   0.53845   0.00000  Uiso   1.00
C1292  C     0.21278   0.43082   0.58068   0.00000  Uiso   1.00
C1293  C     0.18832   0.49765   0.58073   0.00000  Uiso   1.00
C1294  C     0.32669   0.51443   0.74099   0.00000  Uiso   1.00
C1295  C     0.00751   0.48950   0.76003   0.00000  Uiso   1.00
C1296  C     0.11008   0.56186   0.92093   0.00000  Uiso   1.00
C1297  C     0.18094   0.65547   0.73795   0.00000  Uiso   1.00
C1298  C     0.15148   0.34524   0.76180   0.00000  Uiso   1.00
C1299  C     0.15594   0.38932   0.75878   0.00000  Uiso   1.00
C1300  C     0.17686   0.61099   0.74127   0.00000  Uiso   1.00
C1301  C     0.18845   0.47813   0.64392   0.00000  Uiso   1.00
C1302  C     0.14581   0.52150   0.85638   0.00000  Uiso   1.00
C1303  C     0.13858   0.53252   0.89963   0.00000  Uiso   1.00
C1304  C     0.19776   0.46867   0.60110   0.00000  Uiso   1.00
C1305  C     0.10328   0.56986   0.96209   0.00000  Uiso   1.00
C1306  C     0.27995   0.38228   0.52237   0.00000  Uiso   1.00
C1307  C     0.16075   0.51361   0.91983   0.00000  Uiso   1.00
C1308  C     0.01573   0.58394   0.73820   0.00000  Uiso   1.00
C1309  C     0.21279   0.39452   0.60357   0.00000  Uiso   1.00
C1310  C     0.17944   0.35751   0.59619   0.00000  Uiso   1.00
C1311  C     0.17837   0.65517   0.62017   0.00000  Uiso   1.00
C1312  C     0.28474   0.45300   0.95974   0.00000  Uiso   1.00
C1313  C     0.31827   0.47665   0.98067   0.00000  Uiso   1.00
C1314  C     0.03011   0.46410   0.96070   0.00000  Uiso   1.00
C1315  C     0.04613   0.58245   0.91786   0.00000  Uiso   1.00
C1316  C     0.09927   0.51758   0.58358   0.00000  Uiso   1.00
C1317  C     0.08316   0.47069   0.58478   0.00000  Uiso   1.00
C1318  C     0.15705   0.52463   0.96027   0.00000  Uiso   1.00
C1319  C     0.05480   0.46165   0.62579   0.00000  Uiso   1.00
C1320  C     0.25378   0.51884   0.92714   0.00000  Uiso   1.00
C1321  C     0.26457   0.49363   0.88590   0.00000  Uiso   1.00
C1322  C     0.31241   0.50228   0.86380   0.00000  Uiso   1.00
C1323  C     0.12480   0.54978   0.98176   0.00000  Uiso   1.00
C1324  C     0.18224   0.50856   0.98035   0.00000  Uiso   1.00
C1325  C     0.16712   0.50883   0.52217   0.00000  Uiso   1.00
C1326  C     0.12825   0.52734   0.54284   0.00000  Uiso   1.00
C1327  C     0.11157   0.55182   0.52272   0.00000  Uiso   1.00
H1328  H     0.08433   0.56869   0.53853   0.00000  Uiso   1.00
H1329  H     0.30359   0.37605   0.99339   0.00000  Uiso   1.00
H1330  H     0.01982   0.58680   0.76858   0.00000  Uiso   1.00
H1331  H     0.31683   0.59233   0.73921   0.00000  Uiso   1.00
H1332  H     0.04061   0.60696   0.72158   0.00000  Uiso   1.00
H1333  H     0.21060   0.64376   0.61201   0.00000  Uiso   1.00
H1334  H     0.16905   0.66585   0.65228   0.00000  Uiso   1.00
H1335  H     0.15424   0.62882   0.61397   0.00000  Uiso   1.00
H1336  H     0.14678   0.36813   0.60468   0.00000  Uiso   1.00
H1337  H     0.18720   0.34536   0.56445   0.00000  Uiso   1.00
H1338  H     0.24540   0.38469   0.59671   0.00000  Uiso   1.00
H1339  H     0.31978   0.46325   0.77359   0.00000  Uiso   1.00
H1340  H     0.20510   0.40375   0.63579   0.00000  Uiso   1.00
H1341  H     0.03008   0.42996   0.96059   0.00000  Uiso   1.00
H1342  H     0.04123   0.47232   0.92983   0.00000  Uiso   1.00
H1343  H     0.05317   0.48100   0.97710   0.00000  Uiso   1.00
H1344  H     0.31931   0.51086   0.98029   0.00000  Uiso   1.00
H1345  H     0.30916   0.47054   0.51204   0.00000  Uiso   1.00
H1346  H     0.28365   0.41885   0.95830   0.00000  Uiso   1.00
H1347  H     0.29667   0.45807   0.92851   0.00000  Uiso   1.00
H1348  H     0.03111   0.55148   0.92808   0.00000  Uiso   1.00
H1349  H     0.03089   0.58808   0.89514   0.00000  Uiso   1.00
H1350  H     0.20814   0.33620   0.71598   0.00000  Uiso   1.00
H1351  H     0.03892   0.60778   0.94247   0.00000  Uiso   1.00
H1352  H     0.07354   0.47090   0.64802   0.00000  Uiso   1.00
H1353  H     0.02611   0.47906   0.63421   0.00000  Uiso   1.00
H1354  H     0.04346   0.42765   0.62575   0.00000  Uiso   1.00
H1355  H     0.06401   0.46046   0.56296   0.00000  Uiso   1.00
H1356  H     0.11064   0.45182   0.57696   0.00000  Uiso   1.00
H1357  H     0.11416   0.53008   0.60777   0.00000  Uiso   1.00
H1358  H     0.06989   0.53401   0.59124   0.00000  Uiso   1.00
H1359  H     0.31922   0.53374   0.85315   0.00000  Uiso   1.00
H1360  H     0.00067   0.50061   0.88253   0.00000  Uiso   1.00
H1361  H     0.12383   0.66523   0.78374   0.00000  Uiso   1.00
H1362  H     0.32026   0.47824   0.83834   0.00000  Uiso   1.00
H1363  H     0.25568   0.45950   0.88807   0.00000  Uiso   1.00
H1364  H     0.24577   0.50264   0.86741   0.00000  Uiso   1.00
H1365  H     0.24058   0.54761   0.92481   0.00000  Uiso   1.00
H1366  H     0.28374   0.53127   0.93616   0.00000  Uiso   1.00
H1367  H     0.17955   0.52744   0.59614   0.00000  Uiso   1.00
H1368  H     0.08072   0.59136   0.97899   0.00000  Uiso   1.00
H1369  H     0.17938   0.48867   0.90441   0.00000  Uiso   1.00
H1370  H     0.27336   0.35280   0.53645   0.00000  Uiso   1.00
H1371  H     0.29582   0.40762   0.54001   0.00000  Uiso   1.00
O1372  O     0.16667   0.50000   0.75000   0.00000  Uiso   1.00
O1373  O     0.15693   0.45726   0.66625   0.00000  Uiso   1.00
O1374  O     0.12687   0.53979   0.83749   0.00000  Uiso   1.00
O1375  O     0.21088   0.50826   0.65877   0.00000  Uiso   1.00
O1376  O     0.17198   0.49468   0.83749   0.00000  Uiso   1.00
O1377  O     0.24123   0.39137   0.51623   0.00000  Uiso   1.00
O1378  O     0.02202   0.54361   0.71854   0.00000  Uiso   1.00
O1379  O     0.09120   0.58380   0.90078   0.00000  Uiso   1.00
O1380  O     0.17849   0.41434   0.77821   0.00000  Uiso   1.00
O1381  O     0.14581   0.59469   0.76767   0.00000  Uiso   1.00
O1382  O     0.07452   0.46584   0.73607   0.00000  Uiso   1.00
O1383  O     0.26785   0.52512   0.71806   0.00000  Uiso   1.00
O1384  O     0.06990   0.52293   0.77820   0.00000  Uiso   1.00
O1385  O     0.25440   0.48610   0.76768   0.00000  Uiso   1.00
O1386  O     0.13800   0.40236   0.73607   0.00000  Uiso   1.00
O1387  O     0.20437   0.58860   0.71806   0.00000  Uiso   1.00
Zn1388 Zn    0.19244   0.47423   0.78278   0.00000  Uiso   1.00
Zn1389 Zn    0.13459   0.45711   0.72258   0.00000  Uiso   1.00
Zn1390 Zn    0.21166   0.52997   0.71188   0.00000  Uiso   1.00
Zn1391 Zn    0.12798   0.53868   0.78277   0.00000  Uiso   1.00
C1392  C     0.38584   0.49285   0.75856   0.00000  Uiso   1.00
C1393  C     0.55669   0.49459   0.96045   0.00000  Uiso   1.00
C1394  C     0.57332   0.46690   0.97881   0.00000  Uiso   1.00
C1395  C     0.61433   0.50778   0.74178   0.00000  Uiso   1.00
C1396  C     0.55175   0.45954   0.51863   0.00000  Uiso   1.00
C1397  C     0.52347   0.48842   0.54088   0.00000  Uiso   1.00
C1398  C     0.56060   0.42794   0.53845   0.00000  Uiso   1.00
C1399  C     0.54611   0.43082   0.58068   0.00000  Uiso   1.00
C1400  C     0.52165   0.49765   0.58073   0.00000  Uiso   1.00
C1401  C     0.66003   0.51443   0.74099   0.00000  Uiso   1.00
C1402  C     0.34084   0.48950   0.76003   0.00000  Uiso   1.00
C1403  C     0.44341   0.56186   0.92093   0.00000  Uiso   1.00
C1404  C     0.51427   0.65547   0.73795   0.00000  Uiso   1.00
C1405  C     0.48482   0.34524   0.76180   0.00000  Uiso   1.00
C1406  C     0.48927   0.38932   0.75878   0.00000  Uiso   1.00
C1407  C     0.51020   0.61099   0.74127   0.00000  Uiso   1.00
C1408  C     0.52178   0.47813   0.64392   0.00000  Uiso   1.00
C1409  C     0.47914   0.52150   0.85638   0.00000  Uiso   1.00
C1410  C     0.47191   0.53252   0.89963   0.00000  Uiso   1.00
C1411  C     0.53109   0.46867   0.60110   0.00000  Uiso   1.00
C1412  C     0.43661   0.56986   0.96209   0.00000  Uiso   1.00
C1413  C     0.61328   0.38228   0.52237   0.00000  Uiso   1.00
C1414  C     0.49408   0.51361   0.91983   0.00000  Uiso   1.00
C1415  C     0.34907   0.58394   0.73820   0.00000  Uiso   1.00
C1416  C     0.54612   0.39452   0.60357   0.00000  Uiso   1.00
C1417  C     0.51278   0.35751   0.59619   0.00000  Uiso   1.00
C1418  C     0.51170   0.65517   0.62017   0.00000  Uiso   1.00
C1419  C     0.61808   0.45300   0.95974   0.00000  Uiso   1.00
C1420  C     0.65161   0.47665   0.98067   0.00000  Uiso   1.00
C1421  C     0.36345   0.46410   0.96070   0.00000  Uiso   1.00
C1422  C     0.37947   0.58245   0.91786   0.00000  Uiso   1.00
C1423  C     0.43261   0.51758   0.58358   0.00000  Uiso   1.00
C1424  C     0.41650   0.47069   0.58478   0.00000  Uiso   1.00
C1425  C     0.49038   0.52463   0.96027   0.00000  Uiso   1.00
C1426  C     0.38813   0.46165   0.62579   0.00000  Uiso   1.00
C1427  C     0.58712   0.51884   0.92714   0.00000  Uiso   1.00
C1428  C     0.59790   0.49363   0.88590   0.00000  Uiso   1.00
C1429  C     0.64574   0.50228   0.86380   0.00000  Uiso   1.00
C1430  C     0.45813   0.54978   0.98176   0.00000  Uiso   1.00
C1431  C     0.51557   0.50856   0.98035   0.00000  Uiso   1.00
C1432  C     0.50045   0.50883   0.52217   0.00000  Uiso   1.00
C1433  C     0.46158   0.52734   0.54284   0.00000  Uiso   1.00
C1434  C     0.44490   0.55182   0.52272   0.00000  Uiso   1.00
H1435  H     0.41766   0.56869   0.53853   0.00000  Uiso   1.00
H1436  H     0.63692   0.37605   0.99339   0.00000  Uiso   1.00
H1437  H     0.35315   0.58680   0.76858   0.00000  Uiso   1.00
H1438  H     0.65017   0.59233   0.73921   0.00000  Uiso   1.00
H1439  H     0.37395   0.60696   0.72158   0.00000  Uiso   1.00
H1440  H     0.54393   0.64376   0.61201   0.00000  Uiso   1.00
H1441  H     0.50239   0.66585   0.65228   0.00000  Uiso   1.00
H1442  H     0.48757   0.62882   0.61397   0.00000  Uiso   1.00
H1443  H     0.48011   0.36813   0.60468   0.00000  Uiso   1.00
H1444  H     0.52053   0.34536   0.56445   0.00000  Uiso   1.00
H1445  H     0.57873   0.38469   0.59671   0.00000  Uiso   1.00
H1446  H     0.65311   0.46325   0.77359   0.00000  Uiso   1.00
H1447  H     0.53843   0.40375   0.63579   0.00000  Uiso   1.00
H1448  H     0.36342   0.42996   0.96059   0.00000  Uiso   1.00
H1449  H     0.37457   0.47232   0.92983   0.00000  Uiso   1.00
H1450  H     0.38650   0.48100   0.97710   0.00000  Uiso   1.00
H1451  H     0.65265   0.51086   0.98029   0.00000  Uiso   1.00
H1452  H     0.64249   0.47054   0.51204   0.00000  Uiso   1.00
H1453  H     0.61699   0.41885   0.95830   0.00000  Uiso   1.00
H1454  H     0.63001   0.45807   0.92851   0.00000  Uiso   1.00
H1455  H     0.36444   0.55148   0.92808   0.00000  Uiso   1.00
H1456  H     0.36423   0.58808   0.89514   0.00000  Uiso   1.00
H1457  H     0.54148   0.33620   0.71598   0.00000  Uiso   1.00
H1458  H     0.37226   0.60778   0.94247   0.00000  Uiso   1.00
H1459  H     0.40687   0.47090   0.64802   0.00000  Uiso   1.00
H1460  H     0.35944   0.47906   0.63421   0.00000  Uiso   1.00
H1461  H     0.37679   0.42765   0.62575   0.00000  Uiso   1.00
H1462  H     0.39734   0.46046   0.56296   0.00000  Uiso   1.00
H1463  H     0.44397   0.45182   0.57696   0.00000  Uiso   1.00
H1464  H     0.44749   0.53008   0.60777   0.00000  Uiso   1.00
H1465  H     0.40323   0.53401   0.59124   0.00000  Uiso   1.00
H1466  H     0.65256   0.53374   0.85315   0.00000  Uiso   1.00
H1467  H     0.33401   0.50061   0.88253   0.00000  Uiso   1.00
H1468  H     0.45716   0.66523   0.78374   0.00000  Uiso   1.00
H1469  H     0.65360   0.47824   0.83834   0.00000  Uiso   1.00
H1470  H     0.58901   0.45950   0.88807   0.00000  Uiso   1.00
H1471  H     0.57910   0.50264   0.86741   0.00000  Uiso   1.00
H1472  H     0.57392   0.54761   0.92481   0.00000  Uiso   1.00
H1473  H     0.61707   0.53127   0.93616   0.00000  Uiso   1.00
H1474  H     0.51288   0.52744   0.59614   0.00000  Uiso   1.00
H1475  H     0.41405   0.59136   0.97899   0.00000  Uiso   1.00
H1476  H     0.51271   0.48867   0.90441   0.00000  Uiso   1.00
H1477  H     0.60669   0.35280   0.53645   0.00000  Uiso   1.00
H1478  H     0.62916   0.40762   0.54001   0.00000  Uiso   1.00
O1479  O     0.50000   0.50000   0.75000   0.00000  Uiso   1.00
O1480  O     0.49027   0.45726   0.66625   0.00000  Uiso   1.00
O1481  O     0.46020   0.53979   0.83749   0.00000  Uiso   1.00
O1482  O     0.54421   0.50826   0.65877   0.00000  Uiso   1.00
O1483  O     0.50532   0.49468   0.83749   0.00000  Uiso   1.00
O1484  O     0.57456   0.39137   0.51623   0.00000  Uiso   1.00
O1485  O     0.35535   0.54361   0.71854   0.00000  Uiso   1.00
O1486  O     0.42453   0.58380   0.90078   0.00000  Uiso   1.00
O1487  O     0.51182   0.41434   0.77821   0.00000  Uiso   1.00
O1488  O     0.47914   0.59469   0.76767   0.00000  Uiso   1.00
O1489  O     0.40785   0.46584   0.73607   0.00000  Uiso   1.00
O1490  O     0.60119   0.52512   0.71806   0.00000  Uiso   1.00
O1491  O     0.40323   0.52293   0.77820   0.00000  Uiso   1.00
O1492  O     0.58773   0.48610   0.76768   0.00000  Uiso   1.00
O1493  O     0.47133   0.40236   0.73607   0.00000  Uiso   1.00
O1494  O     0.53771   0.58860   0.71806   0.00000  Uiso   1.00
Zn1495 Zn    0.52577   0.47423   0.78278   0.00000  Uiso   1.00
Zn1496 Zn    0.46792   0.45711   0.72258   0.00000  Uiso   1.00
Zn1497 Zn    0.54500   0.52997   0.71188   0.00000  Uiso   1.00
Zn1498 Zn    0.46131   0.53868   0.78277   0.00000  Uiso   1.00
C1499  C     0.71917   0.49285   0.75856   0.00000  Uiso   1.00
C1500  C     0.89003   0.49459   0.96045   0.00000  Uiso   1.00
C1501  C     0.90665   0.46690   0.97881   0.00000  Uiso   1.00
C1502  C     0.94767   0.50778   0.74178   0.00000  Uiso   1.00
C1503  C     0.88508   0.45954   0.51863   0.00000  Uiso   1.00
C1504  C     0.85680   0.48842   0.54088   0.00000  Uiso   1.00
C1505  C     0.89393   0.42794   0.53845   0.00000  Uiso   1.00
C1506  C     0.87945   0.43082   0.58068   0.00000  Uiso   1.00
C1507  C     0.85498   0.49765   0.58073   0.00000  Uiso   1.00
C1508  C     0.99336   0.51443   0.74099   0.00000  Uiso   1.00
C1509  C     0.67418   0.48950   0.76003   0.00000  Uiso   1.00
C1510  C     0.77675   0.56186   0.92093   0.00000  Uiso   1.00
C1511  C     0.84760   0.65547   0.73795   0.00000  Uiso   1.00
C1512  C     0.81815   0.34524   0.76180   0.00000  Uiso   1.00
C1513  C     0.82261   0.38932   0.75878   0.00000  Uiso   1.00
C1514  C     0.84353   0.61099   0.74127   0.00000  Uiso   1.00
C1515  C     0.85512   0.47813   0.64392   0.00000  Uiso   1.00
C1516  C     0.81248   0.52150   0.85638   0.00000  Uiso   1.00
C1517  C     0.80524   0.53252   0.89963   0.00000  Uiso   1.00
C1518  C     0.86443   0.46867   0.60110   0.00000  Uiso   1.00
C1519  C     0.76994   0.56986   0.96209   0.00000  Uiso   1.00
C1520  C     0.94661   0.38228   0.52237   0.00000  Uiso   1.00
C1521  C     0.82742   0.51361   0.91983   0.00000  Uiso   1.00
C1522  C     0.68240   0.58394   0.73820   0.00000  Uiso   1.00
C1523  C     0.87945   0.39452   0.60357   0.00000  Uiso   1.00
C1524  C     0.84611   0.35751   0.59619   0.00000  Uiso   1.00
C1525  C     0.84504   0.65517   0.62017   0.00000  Uiso   1.00
C1526  C     0.95141   0.45300   0.95974   0.00000  Uiso   1.00
C1527  C     0.98494   0.47665   0.98067   0.00000  Uiso   1.00
C1528  C     0.69678   0.46410   0.96070   0.00000  Uiso   1.00
C1529  C     0.71280   0.58245   0.91786   0.00000  Uiso   1.00
C1530  C     0.76594   0.51758   0.58358   0.00000  Uiso   1.00
C1531  C     0.74983   0.47069   0.58478   0.00000  Uiso   1.00
C1532  C     0.82371   0.52463   0.96027   0.00000  Uiso   1.00
C1533  C     0.72146   0.46165   0.62579   0.00000  Uiso   1.00
C1534  C     0.92045   0.51884   0.92714   0.00000  Uiso   1.00
C1535  C     0.93124   0.49363   0.88590   0.00000  Uiso   1.00
C1536  C     0.97907   0.50228   0.86380   0.00000  Uiso   1.00
C1537  C     0.79147   0.54978   0.98176   0.00000  Uiso   1.00
C1538  C     0.84890   0.50856   0.98035   0.00000  Uiso   1.00
C1539  C     0.83379   0.50883   0.52217   0.00000  Uiso   1.00
C1540  C     0.79491   0.52734   0.54284   0.00000  Uiso   1.00
C1541  C     0.77824   0.55182   0.52272   0.00000  Uiso   1.00
H1542  H     0.75100   0.56869   0.53853   0.00000  Uiso   1.00
H1543  H     0.97026   0.37605   0.99339   0.00000  Uiso   1.00
H1544  H     0.68649   0.58680   0.76858   0.00000  Uiso   1.00
H1545  H     0.98350   0.59233   0.73921   0.00000  Uiso   1.00
H1546  H     0.70728   0.60696   0.72158   0.00000  Uiso   1.00
H1547  H     0.87727   0.64376   0.61201   0.00000  Uiso   1.00
H1548  H     0.83572   0.66585   0.65228   0.00000  Uiso   1.00
H1549  H     0.82091   0.62882   0.61397   0.00000  Uiso   1.00
H1550  H     0.81345   0.36813   0.60468   0.00000  Uiso   1.00
H1551  H     0.85387   0.34536   0.56445   0.00000  Uiso   1.00
H1552  H     0.91206   0.38469   0.59671   0.00000  Uiso   1.00
H1553  H     0.98645   0.46325   0.77359   0.00000  Uiso   1.00
H1554  H     0.87176   0.40375   0.63579   0.00000  Uiso   1.00
H1555  H     0.69675   0.42996   0.96059   0.00000  Uiso   1.00
H1556  H     0.70790   0.47232   0.92983   0.00000  Uiso   1.00
H1557  H     0.71983   0.48100   0.97710   0.00000  Uiso   1.00
H1558  H     0.98598   0.51086   0.98029   0.00000  Uiso   1.00
H1559  H     0.97582   0.47054   0.51204   0.00000  Uiso   1.00
H1560  H     0.95032   0.41885   0.95830   0.00000  Uiso   1.00
H1561  H     0.96334   0.45807   0.92851   0.00000  Uiso   1.00
H1562  H     0.69778   0.55148   0.92808   0.00000  Uiso   1.00
H1563  H     0.69756   0.58808   0.89514   0.00000  Uiso   1.00
H1564  H     0.87481   0.33620   0.71598   0.00000  Uiso   1.00
H1565  H     0.70559   0.60778   0.94247   0.00000  Uiso   1.00
H1566  H     0.74021   0.47090   0.64802   0.00000  Uiso   1.00
H1567  H     0.69277   0.47906   0.63421   0.00000  Uiso   1.00
H1568  H     0.71012   0.42765   0.62575   0.00000  Uiso   1.00
H1569  H     0.73067   0.46046   0.56296   0.00000  Uiso   1.00
H1570  H     0.77730   0.45182   0.57696   0.00000  Uiso   1.00
H1571  H     0.78083   0.53008   0.60777   0.00000  Uiso   1.00
H1572  H     0.73656   0.53401   0.59124   0.00000  Uiso   1.00
H1573  H     0.98589   0.53374   0.85315   0.00000  Uiso   1.00
H1574  H     0.66734   0.50061   0.88253   0.00000  Uiso   1.00
H1575  H     0.79050   0.66523   0.78374   0.00000  Uiso   1.00
H1576  H     0.98693   0.47824   0.83834   0.00000  Uiso   1.00
H1577  H     0.92234   0.45950   0.88807   0.00000  Uiso   1.00
H1578  H     0.91243   0.50264   0.86741   0.00000  Uiso   1.00
H1579  H     0.90725   0.54761   0.92481   0.00000  Uiso   1.00
H1580  H     0.95041   0.53127   0.93616   0.00000  Uiso   1.00
H1581  H     0.84621   0.52744   0.59614   0.00000  Uiso   1.00
H1582  H     0.74739   0.59136   0.97899   0.00000  Uiso   1.00
H1583  H     0.84604   0.48867   0.90441   0.00000  Uiso   1.00
H1584  H     0.94002   0.35280   0.53645   0.00000  Uiso   1.00
H1585  H     0.96249   0.40762   0.54001   0.00000  Uiso   1.00
O1586  O     0.83333   0.50000   0.75000   0.00000  Uiso   1.00
O1587  O     0.82360   0.45726   0.66625   0.00000  Uiso   1.00
O1588  O     0.79354   0.53979   0.83749   0.00000  Uiso   1.00
O1589  O     0.87755   0.50826   0.65877   0.00000  Uiso   1.00
O1590  O     0.83865   0.49468   0.83749   0.00000  Uiso   1.00
O1591  O     0.90790   0.39137   0.51623   0.00000  Uiso   1.00
O1592  O     0.68868   0.54361   0.71854   0.00000  Uiso   1.00
O1593  O     0.75787   0.58380   0.90078   0.00000  Uiso   1.00
O1594  O     0.84515   0.41434   0.77821   0.00000  Uiso   1.00
O1595  O     0.81247   0.59469   0.76767   0.00000  Uiso   1.00
O1596  O     0.74119   0.46584   0.73607   0.00000  Uiso   1.00
O1597  O     0.93452   0.52512   0.71806   0.00000  Uiso   1.00
O1598  O     0.73656   0.52293   0.77820   0.00000  Uiso   1.00
O1599  O     0.92106   0.48610   0.76768   0.00000  Uiso   1.00
O1600  O     0.80467   0.40236   0.73607   0.00000  Uiso   1.00
O1601  O     0.87104   0.58860   0.71806   0.00000  Uiso   1.00
Zn1602 Zn    0.85910   0.47423   0.78278   0.00000  Uiso   1.00
Zn1603 Zn    0.80125   0.45711   0.72258   0.00000  Uiso   1.00
Zn1604 Zn    0.87833   0.52997   0.71188   0.00000  Uiso   1.00
Zn1605 Zn    0.79465   0.53868   0.78277   0.00000  Uiso   1.00
C1606  C     0.05250   0.82618   0.75856   0.00000  Uiso   1.00
C1607  C     0.22336   0.82792   0.96045   0.00000  Uiso   1.00
C1608  C     0.23998   0.80023   0.97881   0.00000  Uiso   1.00
C1609  C     0.28100   0.84111   0.74178   0.00000  Uiso   1.00
C1610  C     0.21842   0.79287   0.51863   0.00000  Uiso   1.00
C1611  C     0.19014   0.82175   0.54088   0.00000  Uiso   1.00
C1612  C     0.22726   0.76127   0.53845   0.00000  Uiso   1.00
C1613  C     0.21278   0.76416   0.58068   0.00000  Uiso   1.00
C1614  C     0.18832   0.83099   0.58073   0.00000  Uiso   1.00
C1615  C     0.32669   0.84777   0.74099   0.00000  Uiso   1.00
C1616  C     0.00751   0.82283   0.76003   0.00000  Uiso   1.00
C1617  C     0.11008   0.89519   0.92093   0.00000  Uiso   1.00
C1618  C     0.18094   0.98880   0.73795   0.00000  Uiso   1.00
C1619  C     0.15148   0.67857   0.76180   0.00000  Uiso   1.00
C1620  C     0.15594   0.72266   0.75878   0.00000  Uiso   1.00
C1621  C     0.17686   0.94432   0.74127   0.00000  Uiso   1.00
C1622  C     0.18845   0.81146   0.64392   0.00000  Uiso   1.00
C1623  C     0.14581   0.85483   0.85638   0.00000  Uiso   1.00
C1624  C     0.13858   0.86586   0.89963   0.00000  Uiso   1.00
C1625  C     0.19776   0.80200   0.60110   0.00000  Uiso   1.00
C1626  C     0.10328   0.90320   0.96209   0.00000  Uiso   1.00
C1627  C     0.27995   0.71562   0.52237   0.00000  Uiso   1.00
C1628  C     0.16075   0.84694   0.91983   0.00000  Uiso   1.00
C1629  C     0.01573   0.91727   0.73820   0.00000  Uiso   1.00
C1630  C     0.21279   0.72785   0.60357   0.00000  Uiso   1.00
C1631  C     0.17944   0.69085   0.59619   0.00000  Uiso   1.00
C1632  C     0.17837   0.98850   0.62017   0.00000  Uiso   1.00
C1633  C     0.28474   0.78634   0.95974   0.00000  Uiso   1.00
C1634  C     0.31827   0.80998   0.98067   0.00000  Uiso   1.00
C1635  C     0.03011   0.79743   0.96070   0.00000  Uiso   1.00
C1636  C     0.04613   0.91578   0.91786   0.00000  Uiso   1.00
C1637  C     0.09927   0.85092   0.58358   0.00000  Uiso   1.00
C1638  C     0.08316   0.80402   0.58478   0.00000  Uiso   1.00
C1639  C     0.15705   0.85797   0.96027   0.00000  Uiso   1.00
C1640  C     0.05480   0.79498   0.62579   0.00000  Uiso   1.00
C1641  C     0.25378   0.85217   0.92714   0.00000  Uiso   1.00
C1642  C     0.26457   0.82696   0.88590   0.00000  Uiso   1.00
C1643  C     0.31241   0.83561   0.86380   0.00000  Uiso   1.00
C1644  C     0.12480   0.88311   0.98176   0.00000  Uiso   1.00
C1645  C     0.18224   0.84189   0.98035   0.00000  Uiso   1.00
C1646  C     0.16712   0.84216   0.52217   0.00000  Uiso   1.00
C1647  C     0.12825   0.86067   0.54284   0.00000  Uiso   1.00
C1648  C     0.11157   0.88515   0.52272   0.00000  Uiso   1.00
H1649  H     0.08433   0.90202   0.53853   0.00000  Uiso   1.00
H1650  H     0.30359   0.70938   0.99339   0.00000  Uiso   1.00
H1651  H     0.01982   0.92014   0.76858   0.00000  Uiso   1.00
H1652  H     0.31683   0.92566   0.73921   0.00000  Uiso   1.00
H1653  H     0.04061   0.94029   0.72158   0.00000  Uiso   1.00
H1654  H     0.21060   0.97709   0.61201   0.00000  Uiso   1.00
H1655  H     0.16905   0.99919   0.65228   0.00000  Uiso   1.00
H1656  H     0.15424   0.96215   0.61397   0.00000  Uiso   1.00
H1657  H     0.14678   0.70146   0.60468   0.00000  Uiso   1.00
H1658  H     0.18720   0.67870   0.56445   0.00000  Uiso   1.00
H1659  H     0.24540   0.71803   0.59671   0.00000  Uiso   1.00
H1660  H     0.31978   0.79658   0.77359   0.00000  Uiso   1.00
H1661  H     0.20510   0.73709   0.63579   0.00000  Uiso   1.00
H1662  H     0.03008   0.76329   0.96059   0.00000  Uiso   1.00
H1663  H     0.04123   0.80565   0.92983   0.00000  Uiso   1.00
H1664  H     0.05317   0.81433   0.97710   0.00000  Uiso   1.00
H1665  H     0.31931   0.84419   0.98029   0.00000  Uiso   1.00
H1666  H     0.30916   0.80387   0.51204   0.00000  Uiso   1.00
H1667  H     0.28365   0.75219   0.95830   0.00000  Uiso   1.00
H1668  H     0.29667   0.79140   0.92851   0.00000  Uiso   1.00
H1669  H     0.03111   0.88482   0.92808   0.00000  Uiso   1.00
H1670  H     0.03089   0.92142   0.89514   0.00000  Uiso   1.00
H1671  H     0.20814   0.66953   0.71598   0.00000  Uiso   1.00
H1672  H     0.03892   0.94111   0.94247   0.00000  Uiso   1.00
H1673  H     0.07354   0.80423   0.64802   0.00000  Uiso   1.00
H1674  H     0.02611   0.81239   0.63421   0.00000  Uiso   1.00
H1675  H     0.04346   0.76098   0.62575   0.00000  Uiso   1.00
H1676  H     0.06401   0.79379   0.56296   0.00000  Uiso   1.00
H1677  H     0.11064   0.78516   0.57696   0.00000  Uiso   1.00
H1678  H     0.11416   0.86342   0.60777   0.00000  Uiso   1.00
H1679  H     0.06989   0.86735   0.59124   0.00000  Uiso   1.00
H1680  H     0.31922   0.86707   0.85315   0.00000  Uiso   1.00
H1681  H     0.00067   0.83395   0.88253   0.00000  Uiso   1.00
H1682  H     0.12383   0.99856   0.78374   0.00000  Uiso   1.00
H1683  H     0.32026   0.81157   0.83834   0.00000  Uiso   1.00
H1684  H     0.25568   0.79283   0.88807   0.00000  Uiso   1.00
H1685  H     0.24577   0.83597   0.86741   0.00000  Uiso   1.00
H1686  H     0.24058   0.88094   0.92481   0.00000  Uiso   1.00
H1687  H     0.28374   0.86461   0.93616   0.00000  Uiso   1.00
H1688  H     0.17955   0.86077   0.59614   0.00000  Uiso   1.00
H1689  H     0.08072   0.92469   0.97899   0.00000  Uiso   1.00
H1690  H     0.17938   0.82200   0.90441   0.00000  Uiso   1.00
H1691  H     0.27336   0.68613   0.53645   0.00000  Uiso   1.00
H1692  H     0.29582   0.74095   0.54001   0.00000  Uiso   1.00
O1693  O     0.16667   0.83333   0.75000   0.00000  Uiso   1.00
O1694  O     0.15693   0.79060   0.66625   0.00000  Uiso   1.00
O1695  O     0.12687   0.87313   0.83749   0.00000  Uiso   1.00
O1696  O     0.21088   0.84159   0.65877   0.00000  Uiso   1.00
O1697  O     0.17198   0.82802   0.83749   0.00000  Uiso   1.00
O1698  O     0.24123   0.72470   0.51623   0.00000  Uiso   1.00
O1699  O     0.02202   0.87694   0.71854   0.00000  Uiso   1.00
O1700  O     0.09120   0.91713   0.90078   0.00000  Uiso   1.00
O1701  O     0.17849   0.74768   0.77821   0.00000  Uiso   1.00
O1702  O     0.14581   0.92803   0.76767   0.00000  Uiso   1.00
O1703  O     0.07452   0.79917   0.73607   0.00000  Uiso   1.00
O1704  O     0.26785   0.85845   0.71806   0.00000  Uiso   1.00
O1705  O     0.06990   0.85627   0.77820   0.00000  Uiso   1.00
O1706  O     0.25440   0.81944   0.76768   0.00000  Uiso   1.00
O1707  O     0.13800   0.73570   0.73607   0.00000  Uiso   1.00
O1708  O     0.20437   0.92193   0.71806   0.00000  Uiso   1.00
Zn1709 Zn    0.19244   0.80756   0.78278   0.00000  Uiso   1.00
Zn1710 Zn    0.13459   0.79044   0.72258   0.00000  Uiso   1.00
Zn1711 Zn    0.21166   0.86331   0.71188   0.00000  Uiso   1.00
Zn1712 Zn    0.12798   0.87202   0.78277   0.00000  Uiso   1.00
C1713  C     0.38584   0.82618   0.75856   0.00000  Uiso   1.00
C1714  C     0.55669   0.82792   0.96045   0.00000  Uiso   1.00
C1715  C     0.57332   0.80023   0.97881   0.00000  Uiso   1.00
C1716  C     0.61433   0.84111   0.74178   0.00000  Uiso   1.00
C1717  C     0.55175   0.79287   0.51863   0.00000  Uiso   1.00
C1718  C     0.52347   0.82175   0.54088   0.00000  Uiso   1.00
C1719  C     0.56060   0.76127   0.53845   0.00000  Uiso   1.00
C1720  C     0.54611   0.76416   0.58068   0.00000  Uiso   1.00
C1721  C     0.52165   0.83099   0.58073   0.00000  Uiso   1.00
C1722  C     0.66003   0.84777   0.74099   0.00000  Uiso   1.00
C1723  C     0.34084   0.82283   0.76003   0.00000  Uiso   1.00
C1724  C     0.44341   0.89519   0.92093   0.00000  Uiso   1.00
C1725  C     0.51427   0.98880   0.73795   0.00000  Uiso   1.00
C1726  C     0.48482   0.67857   0.76180   0.00000  Uiso   1.00
C1727  C     0.48927   0.72266   0.75878   0.00000  Uiso   1.00
C1728  C     0.51020   0.94432   0.74127   0.00000  Uiso   1.00
C1729  C     0.52178   0.81146   0.64392   0.00000  Uiso   1.00
C1730  C     0.47914   0.85483   0.85638   0.00000  Uiso   1.00
C1731  C     0.47191   0.86586   0.89963   0.00000  Uiso   1.00
C1732  C     0.53109   0.80200   0.60110   0.00000  Uiso   1.00
C1733  C     0.43661   0.90320   0.96209   0.00000  Uiso   1.00
C1734  C     0.61328   0.71562   0.52237   0.00000  Uiso   1.00
C1735  C     0.49408   0.84694   0.91983   0.00000  Uiso   1.00
C1736  C     0.34907   0.91727   0.73820   0.00000  Uiso   1.00
C1737  C     0.54612   0.72785   0.60357   0.00000  Uiso   1.00
C1738  C     0.51278   0.69085   0.59619   0.00000  Uiso   1.00
C1739  C     0.51170   0.98850   0.62017   0.00000  Uiso   1.00
C1740  C     0.61808   0.78634   0.95974   0.00000  Uiso   1.00
C1741  C     0.65161   0.80998   0.98067   0.00000  Uiso   1.00
C1742  C     0.36345   0.79743   0.96070   0.00000  Uiso   1.00
C1743  C     0.37947   0.91578   0.91786   0.00000  Uiso   1.00
C1744  C     0.43261   0.85092   0.58358   0.00000  Uiso   1.00
C1745  C     0.41650   0.80402   0.58478   0.00000  Uiso   1.00
C1746  C     0.49038   0.85797   0.96027   0.00000  Uiso   1.00
C1747  C     0.38813   0.79498   0.62579   0.00000  Uiso   1.00
C1748  C     0.58712   0.85217   0.92714   0.00000  Uiso   1.00
C1749  C     0.59790   0.82696   0.88590   0.00000  Uiso   1.00
C1750  C     0.64574   0.83561   0.86380   0.00000  Uiso   1.00
C1751  C     0.45813   0.88311   0.98176   0.00000  Uiso   1.00
C1752  C     0.51557   0.84189   0.98035   0.00000  Uiso   1.00
C1753  C     0.50045   0.84216   0.52217   0.00000  Uiso   1.00
C1754  C     0.46158   0.86067   0.54284   0.00000  Uiso   1.00
C1755  C     0.44490   0.88515   0.52272   0.00000  Uiso   1.00
H1756  H     0.41766   0.90202   0.53853   0.00000  Uiso   1.00
H1757  H     0.63692   0.70938   0.99339   0.00000  Uiso   1.00
H1758  H     0.35315   0.92014   0.76858   0.00000  Uiso   1.00
H1759  H     0.65017   0.92566   0.73921   0.00000  Uiso   1.00
H1760  H     0.37395   0.94029   0.72158   0.00000  Uiso   1.00
H1761  H     0.54393   0.97709   0.61201   0.00000  Uiso   1.00
H1762  H     0.50239   0.99919   0.65228   0.00000  Uiso   1.00
H1763  H     0.48757   0.96215   0.61397   0.00000  Uiso   1.00
H1764  H     0.48011   0.70146   0.60468   0.00000  Uiso   1.00
H1765  H     0.52053   0.67870   0.56445   0.00000  Uiso   1.00
H1766  H     0.57873   0.71803   0.59671   0.00000  Uiso   1.00
H1767  H     0.65311   0.79658   0.77359   0.00000  Uiso   1.00
H1768  H     0.53843   0.73709   0.63579   0.00000  Uiso   1.00
H1769  H     0.36342   0.76329   0.96059   0.00000  Uiso   1.00
H1770  H     0.37457   0.80565   0.92983   0.00000  Uiso   1.00
H1771  H     0.38650   0.81433   0.97710   0.00000  Uiso   1.00
H1772  H     0.65265   0.84419   0.98029   0.00000  Uiso   1.00
H1773  H     0.64249   0.80387   0.51204   0.00000  Uiso   1.00
H1774  H     0.61699   0.75219   0.95830   0.00000  Uiso   1.00
H1775  H     0.63001   0.79140   0.92851   0.00000  Uiso   1.00
H1776  H     0.36444   0.88482   0.92808   0.00000  Uiso   1.00
H1777  H     0.36423   0.92142   0.89514   0.00000  Uiso   1.00
H1778  H     0.54148   0.66953   0.71598   0.00000  Uiso   1.00
H1779  H     0.37226   0.94111   0.94247   0.00000  Uiso   1.00
H1780  H     0.40687   0.80423   0.64802   0.00000  Uiso   1.00
H1781  H     0.35944   0.81239   0.63421   0.00000  Uiso   1.00
H1782  H     0.37679   0.76098   0.62575   0.00000  Uiso   1.00
H1783  H     0.39734   0.79379   0.56296   0.00000  Uiso   1.00
H1784  H     0.44397   0.78516   0.57696   0.00000  Uiso   1.00
H1785  H     0.44749   0.86342   0.60777   0.00000  Uiso   1.00
H1786  H     0.40323   0.86735   0.59124   0.00000  Uiso   1.00
H1787  H     0.65256   0.86707   0.85315   0.00000  Uiso   1.00
H1788  H     0.33401   0.83395   0.88253   0.00000  Uiso   1.00
H1789  H     0.45716   0.99856   0.78374   0.00000  Uiso   1.00
H1790  H     0.65360   0.81157   0.83834   0.00000  Uiso   1.00
H1791  H     0.58901   0.79283   0.88807   0.00000  Uiso   1.00
H1792  H     0.57910   0.83597   0.86741   0.00000  Uiso   1.00
H1793  H     0.57392   0.88094   0.92481   0.00000  Uiso   1.00
H1794  H     0.61707   0.86461   0.93616   0.00000  Uiso   1.00
H1795  H     0.51288   0.86077   0.59614   0.00000  Uiso   1.00
H1796  H     0.41405   0.92469   0.97899   0.00000  Uiso   1.00
H1797  H     0.51271   0.82200   0.90441   0.00000  Uiso   1.00
H1798  H     0.60669   0.68613   0.53645   0.00000  Uiso   1.00
H1799  H     0.62916   0.74095   0.54001   0.00000  Uiso   1.00
O1800  O     0.50000   0.83333   0.75000   0.00000  Uiso   1.00
O1801  O     0.49027   0.79060   0.66625   0.00000  Uiso   1.00
O1802  O     0.46020   0.87313   0.83749   0.00000  Uiso   1.00
O1803  O     0.54421   0.84159   0.65877   0.00000  Uiso   1.00
O1804  O     0.50532   0.82802   0.83749   0.00000  Uiso   1.00
O1805  O     0.57456   0.72470   0.51623   0.00000  Uiso   1.00
O1806  O     0.35535   0.87694   0.71854   0.00000  Uiso   1.00
O1807  O     0.42453   0.91713   0.90078   0.00000  Uiso   1.00
O1808  O     0.51182   0.74768   0.77821   0.00000  Uiso   1.00
O1809  O     0.47914   0.92803   0.76767   0.00000  Uiso   1.00
O1810  O     0.40785   0.79917   0.73607   0.00000  Uiso   1.00
O1811  O     0.60119   0.85845   0.71806   0.00000  Uiso   1.00
O1812  O     0.40323   0.85627   0.77820   0.00000  Uiso   1.00
O1813  O     0.58773   0.81944   0.76768   0.00000  Uiso   1.00
O1814  O     0.47133   0.73570   0.73607   0.00000  Uiso   1.00
O1815  O     0.53771   0.92193   0.71806   0.00000  Uiso   1.00
Zn1816 Zn    0.52577   0.80756   0.78278   0.00000  Uiso   1.00
Zn1817 Zn    0.46792   0.79044   0.72258   0.00000  Uiso   1.00
Zn1818 Zn    0.54500   0.86331   0.71188   0.00000  Uiso   1.00
Zn1819 Zn    0.46131   0.87202   0.78277   0.00000  Uiso   1.00
C1820  C     0.71917   0.82618   0.75856   0.00000  Uiso   1.00
C1821  C     0.89003   0.82792   0.96045   0.00000  Uiso   1.00
C1822  C     0.90665   0.80023   0.97881   0.00000  Uiso   1.00
C1823  C     0.94767   0.84111   0.74178   0.00000  Uiso   1.00
C1824  C     0.88508   0.79287   0.51863   0.00000  Uiso   1.00
C1825  C     0.85680   0.82175   0.54088   0.00000  Uiso   1.00
C1826  C     0.89393   0.76127   0.53845   0.00000  Uiso   1.00
C1827  C     0.87945   0.76416   0.58068   0.00000  Uiso   1.00
C1828  C     0.85498   0.83099   0.58073   0.00000  Uiso   1.00
C1829  C     0.99336   0.84777   0.74099   0.00000  Uiso   1.00
C1830  C     0.67418   0.82283   0.76003   0.00000  Uiso   1.00
C1831  C     0.77675   0.89519   0.92093   0.00000  Uiso   1.00
C1832  C     0.84760   0.98880   0.73795   0.00000  Uiso   1.00
C1833  C     0.81815   0.67857   0.76180   0.00000  Uiso   1.00
C1834  C     0.82261   0.72266   0.75878   0.00000  Uiso   1.00
C1835  C     0.84353   0.94432   0.74127   0.00000  Uiso   1.00
C1836  C     0.85512   0.81146   0.64392   0.00000  Uiso   1.00
C1837  C     0.81248   0.85483   0.85638   0.00000  Uiso   1.00
C1838  C     0.80524   0.86586   0.89963   0.00000  Uiso   1.00
C1839  C     0.86443   0.80200   0.60110   0.00000  Uiso   1.00
C1840  C     0.76994   0.90320   0.96209   0.00000  Uiso   1.00
C1841  C     0.94661   0.71562   0.52237   0.00000  Uiso   1.00
C1842  C     0.82742   0.84694   0.91983   0.00000  Uiso   1.00
C1843  C     0.68240   0.91727   0.73820   0.00000  Uiso   1.00
C1844  C     0.87945   0.72785   0.60357   0.00000  Uiso   1.00
C1845  C     0.84611   0.69085   0.59619   0.00000  Uiso   1.00
C1846  C     0.84504   0.98850   0.62017   0.00000  Uiso   1.00
C1847  C     0.95141   0.78634   0.95974   0.00000  Uiso   1.00
C1848  C     0.98494   0.80998   0.98067   0.00000  Uiso   1.00
C1849  C     0.69678   0.79743   0.96070   0.00000  Uiso   1.00
C1850  C     0.71280   0.91578   0.91786   0.00000  Uiso   1.00
C1851  C     0.76594   0.85092   0.58358   0.00000  Uiso   1.00
C1852  C     0.74983   0.80402   0.58478   0.00000  Uiso   1.00
C1853  C     0.82371   0.85797   0.96027   0.00000  Uiso   1.00
C1854  C     0.72146   0.79498   0.62579   0.00000  Uiso   1.00
C1855  C     0.92045   0.85217   0.92714   0.00000  Uiso   1.00
C1856  C     0.93124   0.82696   0.88590   0.00000  Uiso   1.00
C1857  C     0.97907   0.83561   0.86380   0.00000  Uiso   1.00
C1858  C     0.79147   0.88311   0.98176   0.00000  Uiso   1.00
C1859  C     0.84890   0.84189   0.98035   0.00000  Uiso   1.00
C1860  C     0.83379   0.84216   0.52217   0.00000  Uiso   1.00
C1861  C     0.79491   0.86067   0.54284   0.00000  Uiso   1.00
C1862  C     0.77824   0.88515   0.52272   0.00000  Uiso   1.00
H1863  H     0.75100   0.90202   0.53853   0.00000  Uiso   1.00
H1864  H     0.97026   0.70938   0.99339   0.00000  Uiso   1.00
H1865  H     0.68649   0.92014   0.76858   0.00000  Uiso   1.00
H1866  H     0.98350   0.92566   0.73921   0.00000  Uiso   1.00
H1867  H     0.70728   0.94029   0.72158   0.00000  Uiso   1.00
H1868  H     0.87727   0.97709   0.61201   0.00000  Uiso   1.00
H1869  H     0.83572   0.99919   0.65228   0.00000  Uiso   1.00
H1870  H     0.82091   0.96215   0.61397   0.00000  Uiso   1.00
H1871  H     0.81345   0.70146   0.60468   0.00000  Uiso   1.00
H1872  H     0.85387   0.67870   0.56445   0.00000  Uiso   1.00
H1873  H     0.91206   0.71803   0.59671   0.00000  Uiso   1.00
H1874  H     0.98645   0.79658   0.77359   0.00000  Uiso   1.00
H1875  H     0.87176   0.73709   0.63579   0.00000  Uiso   1.00
H1876  H     0.69675   0.76329   0.96059   0.00000  Uiso   1.00
H1877  H     0.70790   0.80565   0.92983   0.00000  Uiso   1.00
H1878  H     0.71983   0.81433   0.97710   0.00000  Uiso   1.00
H1879  H     0.98598   0.84419   0.98029   0.00000  Uiso   1.00
H1880  H     0.97582   0.80387   0.51204   0.00000  Uiso   1.00
H1881  H     0.95032   0.75219   0.95830   0.00000  Uiso   1.00
H1882  H     0.96334   0.79140   0.92851   0.00000  Uiso   1.00
H1883  H     0.69778   0.88482   0.92808   0.00000  Uiso   1.00
H1884  H     0.69756   0.92142   0.89514   0.00000  Uiso   1.00
H1885  H     0.87481   0.66953   0.71598   0.00000  Uiso   1.00
H1886  H     0.70559   0.94111   0.94247   0.00000  Uiso   1.00
H1887  H     0.74021   0.80423   0.64802   0.00000  Uiso   1.00
H1888  H     0.69277   0.81239   0.63421   0.00000  Uiso   1.00
H1889  H     0.71012   0.76098   0.62575   0.00000  Uiso   1.00
H1890  H     0.73067   0.79379   0.56296   0.00000  Uiso   1.00
H1891  H     0.77730   0.78516   0.57696   0.00000  Uiso   1.00
H1892  H     0.78083   0.86342   0.60777   0.00000  Uiso   1.00
H1893  H     0.73656   0.86735   0.59124   0.00000  Uiso   1.00
H1894  H     0.98589   0.86707   0.85315   0.00000  Uiso   1.00
H1895  H     0.66734   0.83395   0.88253   0.00000  Uiso   1.00
H1896  H     0.79050   0.99856   0.78374   0.00000  Uiso   1.00
H1897  H     0.98693   0.81157   0.83834   0.00000  Uiso   1.00
H1898  H     0.92234   0.79283   0.88807   0.00000  Uiso   1.00
H1899  H     0.91243   0.83597   0.86741   0.00000  Uiso   1.00
H1900  H     0.90725   0.88094   0.92481   0.00000  Uiso   1.00
H1901  H     0.95041   0.86461   0.93616   0.00000  Uiso   1.00
H1902  H     0.84621   0.86077   0.59614   0.00000  Uiso   1.00
H1903  H     0.74739   0.92469   0.97899   0.00000  Uiso   1.00
H1904  H     0.84604   0.82200   0.90441   0.00000  Uiso   1.00
H1905  H     0.94002   0.68613   0.53645   0.00000  Uiso   1.00
H1906  H     0.96249   0.74095   0.54001   0.00000  Uiso   1.00
O1907  O     0.83333   0.83333   0.75000   0.00000  Uiso   1.00
O1908  O     0.82360   0.79060   0.66625   0.00000  Uiso   1.00
O1909  O     0.79354   0.87313   0.83749   0.00000  Uiso   1.00
O1910  O     0.87755   0.84159   0.65877   0.00000  Uiso   1.00
O1911  O     0.83865   0.82802   0.83749   0.00000  Uiso   1.00
O1912  O     0.90790   0.72470   0.51623   0.00000  Uiso   1.00
O1913  O     0.68868   0.87694   0.71854   0.00000  Uiso   1.00
O1914  O     0.75787   0.91713   0.90078   0.00000  Uiso   1.00
O1915  O     0.84515   0.74768   0.77821   0.00000  Uiso   1.00
O1916  O     0.81247   0.92803   0.76767   0.00000  Uiso   1.00
O1917  O     0.74119   0.79917   0.73607   0.00000  Uiso   1.00
O1918  O     0.93452   0.85845   0.71806   0.00000  Uiso   1.00
O1919  O     0.73656   0.85627   0.77820   0.00000  Uiso   1.00
O1920  O     0.92106   0.81944   0.76768   0.00000  Uiso   1.00
O1921  O     0.80467   0.73570   0.73607   0.00000  Uiso   1.00
O1922  O     0.87104   0.92193   0.71806   0.00000  Uiso   1.00
Zn1923 Zn    0.85910   0.80756   0.78278   0.00000  Uiso   1.00
Zn1924 Zn    0.80125   0.79044   0.72258   0.00000  Uiso   1.00
Zn1925 Zn    0.87833   0.86331   0.71188   0.00000  Uiso   1.00
Zn1926 Zn    0.79465   0.87202   0.78277   0.00000  Uiso   1.00
loop_
_geom_bond_atom_site_label_1
_geom_bond_atom_site_label_2
_geom_bond_distance
_geom_bond_site_symmetry_2
_ccdc_geom_bond_type
C1     C11     1.435   .     S
C1     O100    1.273   .     A
C1     O98     1.260   .     A
C2     C36     1.536   .     S
C2     C3      1.432   .     A
C2     C40     1.431   .     A
C3     C28     1.526   .     S
C3     C968    1.425   .     S
C4     O101    1.279   .     A
C4     O99     1.277   .     A
C4     C10     1.459   .     S
C5     C6      1.410   .     A
C5     C7      1.433   .     A
C5     C966    1.425   1_554 S
C6     C9      1.391   .     A
C6     C41     1.417   .     A
C7     C8      1.432   .     A
C7     O93     1.391   .     S
C8     C25     1.528   .     S
C8     C20     1.416   .     A
C9     C20     1.386   .     A
C9     H83     1.078   .     S
C10    C118    1.334   .     S
C10    O201    1.387   .     S
C11    C224    1.334   1_455 S
C11    H269    1.086   1_455 S
C12    O95     1.391   .     S
C12    C21     1.407   .     A
C12    C19     1.416   .     A
C13    C16     1.452   .     S
C13    C335    1.332   .     S
C13    H387    1.088   .     S
C14    C15     1.436   .     S
C14    C655    1.332   1_545 S
C14    H719    1.086   1_545 S
C15    O96     1.272   .     A
C15    O102    1.271   .     A
C16    O97     1.271   .     A
C16    O103    1.271   .     A
C17    O91     1.272   .     A
C17    C20     1.460   .     S
C17    O89     1.271   .     A
C18    C19     1.486   .     S
C18    O90     1.284   .     A
C18    O92     1.292   .     A
C19    C23     1.405   .     A
C21    C39     1.399   .     A
C21    H84     1.083   .     S
C22    H87     1.114   .     S
C22    O93     1.417   .     S
C22    H86     1.109   .     S
C22    H1008   1.108   1_554 S
C23    C34     1.405   .     A
C23    H85     1.076   .     S
C24    H48     1.109   .     S
C24    O94     1.410   .     S
C24    H46     1.114   .     S
C24    H261    1.112   1_455 S
C25    H56     1.106   .     S
C25    H54     1.104   .     S
C25    C26     1.536   .     S
C26    H52     1.112   .     S
C26    H53     1.110   .     S
C26    C669    1.527   1_545 S
C27    H50     1.111   .     S
C27    H51     1.111   .     S
C27    H49     1.111   .     S
C27    C347    1.527   .     S
C28    C29     1.539   .     S
C28    H63     1.094   .     S
C28    H62     1.100   .     S
C29    H60     1.110   .     S
C29    C137    1.527   .     S
C29    H1024   1.108   .     S
C30    H57     1.110   .     S
C30    H59     1.110   .     S
C30    H58     1.111   .     S
C30    C243    1.527   1_455 S
C31    H67     1.110   .     S
C31    H65     1.109   .     S
C31    H64     1.112   .     S
C31    O95     1.412   .     S
C32    H74     1.113   .     S
C32    H73     1.102   .     S
C32    C33     1.537   .     S
C32    C42     1.531   .     S
C33    H72     1.109   .     S
C33    C35     1.527   .     S
C33    H71     1.112   .     S
C34    C40     1.424   .     A
C34    C39     1.406   .     A
C35    H70     1.110   .     S
C35    H68     1.111   .     S
C35    H69     1.111   .     S
C36    C37     1.546   .     S
C36    H82     1.110   .     S
C36    H81     1.111   .     S
C37    H79     1.111   .     S
C37    H80     1.110   .     S
C37    C38     1.530   .     S
C38    H75     1.111   .     S
C38    H78     1.105   .     S
C38    H183    1.108   .     S
C39    C1006   1.390   .     S
C40    C1004   1.425   .     S
C41    C42     1.440   .     A
C41    C1003   1.425   1_554 S
C42    C43     1.400   .     A
C43    H44     1.085   .     S
C43    C1002   1.390   1_554 S
H45    C985    1.108   .     S
H47    C131    1.112   .     S
H55    C118    1.086   .     S
H61    C992    1.108   1_554 S
H66    C655    1.088   1_545 S
H76    C252    1.108   1_455 S
H77    C335    1.086   .     S
O88    Zn104   1.954   .     S
O88    Zn107   1.936   .     S
O88    Zn106   1.932   .     S
O88    Zn105   1.929   .     S
O89    Zn105   1.925   .     S
O90    Zn107   1.930   .     S
O91    Zn106   1.923   .     S
O92    Zn104   1.921   .     S
O94    C224    1.387   1_455 S
O96    Zn104   1.925   .     S
O97    Zn107   1.929   .     S
O98    Zn105   1.928   .     S
O99    Zn106   1.932   .     S
O100   Zn107   1.924   .     S
O101   Zn104   1.921   .     S
O102   Zn105   1.937   .     S
O103   Zn106   1.932   .     S
C108   C118    1.435   .     S
C108   O207    1.273   .     A
C108   O205    1.260   .     A
C109   C143    1.536   .     S
C109   C110    1.432   .     A
C109   C147    1.431   .     A
C110   C135    1.526   .     S
C110   C1075   1.425   .     S
C111   O208    1.279   .     A
C111   O206    1.277   .     A
C111   C117    1.459   .     S
C112   C113    1.410   .     A
C112   C114    1.433   .     A
C112   C1073   1.425   1_554 S
C113   C116    1.391   .     A
C113   C148    1.417   .     A
C114   C115    1.432   .     A
C114   O200    1.391   .     S
C115   C132    1.528   .     S
C115   C127    1.416   .     A
C116   C127    1.386   .     A
C116   H190    1.078   .     S
C117   C225    1.334   .     S
C117   O308    1.387   .     S
C119   O202    1.391   .     S
C119   C128    1.407   .     A
C119   C126    1.416   .     A
C120   C123    1.452   .     S
C120   C442    1.332   .     S
C120   H494    1.088   .     S
C121   C122    1.436   .     S
C121   C762    1.332   1_545 S
C121   H826    1.086   1_545 S
C122   O203    1.272   .     A
C122   O209    1.271   .     A
C123   O204    1.271   .     A
C123   O210    1.271   .     A
C124   O198    1.272   .     A
C124   C127    1.460   .     S
C124   O196    1.271   .     A
C125   C126    1.486   .     S
C125   O197    1.284   .     A
C125   O199    1.292   .     A
C126   C130    1.405   .     A
C128   C146    1.399   .     A
C128   H191    1.083   .     S
C129   H194    1.114   .     S
C129   O200    1.417   .     S
C129   H193    1.109   .     S
C129   H1115   1.108   1_554 S
C130   C141    1.405   .     A
C130   H192    1.076   .     S
C131   H155    1.109   .     S
C131   O201    1.410   .     S
C131   H153    1.114   .     S
C132   H163    1.106   .     S
C132   H161    1.104   .     S
C132   C133    1.536   .     S
C133   H159    1.112   .     S
C133   H160    1.110   .     S
C133   C776    1.527   1_545 S
C134   H157    1.111   .     S
C134   H158    1.111   .     S
C134   H156    1.111   .     S
C134   C454    1.527   .     S
C135   C136    1.539   .     S
C135   H170    1.094   .     S
C135   H169    1.100   .     S
C136   H167    1.110   .     S
C136   C244    1.527   .     S
C136   H1131   1.108   .     S
C137   H164    1.110   .     S
C137   H166    1.110   .     S
C137   H165    1.111   .     S
C138   H174    1.110   .     S
C138   H172    1.109   .     S
C138   H171    1.112   .     S
C138   O202    1.412   .     S
C139   H181    1.113   .     S
C139   H180    1.102   .     S
C139   C140    1.537   .     S
C139   C149    1.531   .     S
C140   H179    1.109   .     S
C140   C142    1.527   .     S
C140   H178    1.112   .     S
C141   C147    1.424   .     A
C141   C146    1.406   .     A
C142   H177    1.110   .     S
C142   H175    1.111   .     S
C142   H176    1.111   .     S
C143   C144    1.546   .     S
C143   H189    1.110   .     S
C143   H188    1.111   .     S
C144   H186    1.111   .     S
C144   H187    1.110   .     S
C144   C145    1.530   .     S
C145   H182    1.111   .     S
C145   H185    1.105   .     S
C145   H290    1.108   .     S
C146   C1113   1.390   .     S
C147   C1111   1.425   .     S
C148   C149    1.440   .     A
C148   C1110   1.425   1_554 S
C149   C150    1.400   .     A
C150   H151    1.085   .     S
C150   C1109   1.390   1_554 S
H152   C1092   1.108   .     S
H154   C238    1.112   .     S
H162   C225    1.086   .     S
H168   C1099   1.108   1_554 S
H173   C762    1.088   1_545 S
H184   C442    1.086   .     S
O195   Zn211   1.954   .     S
O195   Zn214   1.936   .     S
O195   Zn213   1.932   .     S
O195   Zn212   1.929   .     S
O196   Zn212   1.925   .     S
O197   Zn214   1.930   .     S
O198   Zn213   1.923   .     S
O199   Zn211   1.921   .     S
O203   Zn211   1.925   .     S
O204   Zn214   1.929   .     S
O205   Zn212   1.928   .     S
O206   Zn213   1.932   .     S
O207   Zn214   1.924   .     S
O208   Zn211   1.921   .     S
O209   Zn212   1.937   .     S
O210   Zn213   1.932   .     S
C215   C225    1.435   .     S
C215   O314    1.273   .     A
C215   O312    1.260   .     A
C216   C250    1.536   .     S
C216   C217    1.432   .     A
C216   C254    1.431   .     A
C217   C242    1.526   .     S
C217   C1182   1.425   .     S
C218   O315    1.279   .     A
C218   O313    1.277   .     A
C218   C224    1.459   .     S
C219   C220    1.410   .     A
C219   C221    1.433   .     A
C219   C1180   1.425   1_554 S
C220   C223    1.391   .     A
C220   C255    1.417   .     A
C221   C222    1.432   .     A
C221   O307    1.391   .     S
C222   C239    1.528   .     S
C222   C234    1.416   .     A
C223   C234    1.386   .     A
C223   H297    1.078   .     S
C224   C11     1.334   1_655 S
C224   O94     1.387   1_655 S
C226   O309    1.391   .     S
C226   C235    1.407   .     A
C226   C233    1.416   .     A
C227   C230    1.452   .     S
C227   C549    1.332   .     S
C227   H601    1.088   .     S
C228   C229    1.436   .     S
C228   C869    1.332   1_545 S
C228   H933    1.086   1_545 S
C229   O310    1.272   .     A
C229   O316    1.271   .     A
C230   O311    1.271   .     A
C230   O317    1.271   .     A
C231   O305    1.272   .     A
C231   C234    1.460   .     S
C231   O303    1.271   .     A
C232   C233    1.486   .     S
C232   O304    1.284   .     A
C232   O306    1.292   .     A
C233   C237    1.405   .     A
C235   C253    1.399   .     A
C235   H298    1.083   .     S
C236   H301    1.114   .     S
C236   O307    1.417   .     S
C236   H300    1.109   .     S
C236   H1222   1.108   1_554 S
C237   C248    1.405   .     A
C237   H299    1.076   .     S
C238   H262    1.109   .     S
C238   O308    1.410   .     S
C238   H260    1.114   .     S
C239   H270    1.106   .     S
C239   H268    1.104   .     S
C239   C240    1.536   .     S
C240   H266    1.112   .     S
C240   H267    1.110   .     S
C240   C883    1.527   1_545 S
C241   H264    1.111   .     S
C241   H265    1.111   .     S
C241   H263    1.111   .     S
C241   C561    1.527   .     S
C242   C243    1.539   .     S
C242   H277    1.094   .     S
C242   H276    1.100   .     S
C243   H274    1.110   .     S
C243   C30     1.527   1_655 S
C243   H1238   1.108   .     S
C244   H271    1.110   .     S
C244   H273    1.110   .     S
C244   H272    1.111   .     S
C245   H281    1.110   .     S
C245   H279    1.109   .     S
C245   H278    1.112   .     S
C245   O309    1.412   .     S
C246   H288    1.113   .     S
C246   H287    1.102   .     S
C246   C247    1.537   .     S
C246   C256    1.531   .     S
C247   H286    1.109   .     S
C247   C249    1.527   .     S
C247   H285    1.112   .     S
C248   C254    1.424   .     A
C248   C253    1.406   .     A
C249   H284    1.110   .     S
C249   H282    1.111   .     S
C249   H283    1.111   .     S
C250   C251    1.546   .     S
C250   H296    1.110   .     S
C250   H295    1.111   .     S
C251   H293    1.111   .     S
C251   H294    1.110   .     S
C251   C252    1.530   .     S
C252   H289    1.111   .     S
C252   H292    1.105   .     S
C252   H76     1.108   1_655 S
C253   C1220   1.390   .     S
C254   C1218   1.425   .     S
C255   C256    1.440   .     A
C255   C1217   1.425   1_554 S
C256   C257    1.400   .     A
C257   H258    1.085   .     S
C257   C1216   1.390   1_554 S
H259   C1199   1.108   .     S
H261   C24     1.112   1_655 S
H269   C11     1.086   1_655 S
H275   C1206   1.108   1_554 S
H280   C869    1.088   1_545 S
H291   C549    1.086   .     S
O302   Zn318   1.954   .     S
O302   Zn321   1.936   .     S
O302   Zn320   1.932   .     S
O302   Zn319   1.929   .     S
O303   Zn319   1.925   .     S
O304   Zn321   1.930   .     S
O305   Zn320   1.923   .     S
O306   Zn318   1.921   .     S
O310   Zn318   1.925   .     S
O311   Zn321   1.929   .     S
O312   Zn319   1.928   .     S
O313   Zn320   1.932   .     S
O314   Zn321   1.924   .     S
O315   Zn318   1.921   .     S
O316   Zn319   1.937   .     S
O317   Zn320   1.932   .     S
C322   C332    1.435   .     S
C322   O421    1.273   .     A
C322   O419    1.260   .     A
C323   C357    1.536   .     S
C323   C324    1.432   .     A
C323   C361    1.431   .     A
C324   C349    1.526   .     S
C324   C1289   1.425   .     S
C325   O422    1.279   .     A
C325   O420    1.277   .     A
C325   C331    1.459   .     S
C326   C327    1.410   .     A
C326   C328    1.433   .     A
C326   C1287   1.425   1_554 S
C327   C330    1.391   .     A
C327   C362    1.417   .     A
C328   C329    1.432   .     A
C328   O414    1.391   .     S
C329   C346    1.528   .     S
C329   C341    1.416   .     A
C330   C341    1.386   .     A
C330   H404    1.078   .     S
C331   C439    1.334   .     S
C331   O522    1.387   .     S
C332   C545    1.334   1_455 S
C332   H590    1.086   1_455 S
C333   O416    1.391   .     S
C333   C342    1.407   .     A
C333   C340    1.416   .     A
C334   C337    1.452   .     S
C334   C656    1.332   .     S
C334   H708    1.088   .     S
C335   C336    1.436   .     S
C336   O417    1.272   .     A
C336   O423    1.271   .     A
C337   O418    1.271   .     A
C337   O424    1.271   .     A
C338   O412    1.272   .     A
C338   C341    1.460   .     S
C338   O410    1.271   .     A
C339   C340    1.486   .     S
C339   O411    1.284   .     A
C339   O413    1.292   .     A
C340   C344    1.405   .     A
C342   C360    1.399   .     A
C342   H405    1.083   .     S
C343   H408    1.114   .     S
C343   O414    1.417   .     S
C343   H407    1.109   .     S
C343   H1329   1.108   1_554 S
C344   C355    1.405   .     A
C344   H406    1.076   .     S
C345   H369    1.109   .     S
C345   O415    1.410   .     S
C345   H367    1.114   .     S
C345   H582    1.112   1_455 S
C346   H377    1.106   .     S
C346   H375    1.104   .     S
C346   C347    1.536   .     S
C347   H373    1.112   .     S
C347   H374    1.110   .     S
C348   H371    1.111   .     S
C348   H372    1.111   .     S
C348   H370    1.111   .     S
C348   C668    1.527   .     S
C349   C350    1.539   .     S
C349   H384    1.094   .     S
C349   H383    1.100   .     S
C350   H381    1.110   .     S
C350   C458    1.527   .     S
C350   H1345   1.108   .     S
C351   H378    1.110   .     S
C351   H380    1.110   .     S
C351   H379    1.111   .     S
C351   C564    1.527   1_455 S
C352   H388    1.110   .     S
C352   H386    1.109   .     S
C352   H385    1.112   .     S
C352   O416    1.412   .     S
C353   H395    1.113   .     S
C353   H394    1.102   .     S
C353   C354    1.537   .     S
C353   C363    1.531   .     S
C354   H393    1.109   .     S
C354   C356    1.527   .     S
C354   H392    1.112   .     S
C355   C361    1.424   .     A
C355   C360    1.406   .     A
C356   H391    1.110   .     S
C356   H389    1.111   .     S
C356   H390    1.111   .     S
C357   C358    1.546   .     S
C357   H403    1.110   .     S
C357   H402    1.111   .     S
C358   H400    1.111   .     S
C358   H401    1.110   .     S
C358   C359    1.530   .     S
C359   H396    1.111   .     S
C359   H399    1.105   .     S
C359   H504    1.108   .     S
C360   C1327   1.390   .     S
C361   C1325   1.425   .     S
C362   C363    1.440   .     A
C362   C1324   1.425   1_554 S
C363   C364    1.400   .     A
C364   H365    1.085   .     S
C364   C1323   1.390   1_554 S
H366   C1306   1.108   .     S
H368   C452    1.112   .     S
H376   C439    1.086   .     S
H382   C1313   1.108   1_554 S
H397   C573    1.108   1_455 S
H398   C656    1.086   .     S
O409   Zn425   1.954   .     S
O409   Zn428   1.936   .     S
O409   Zn427   1.932   .     S
O409   Zn426   1.929   .     S
O410   Zn426   1.925   .     S
O411   Zn428   1.930   .     S
O412   Zn427   1.923   .     S
O413   Zn425   1.921   .     S
O415   C545    1.387   1_455 S
O417   Zn425   1.925   .     S
O418   Zn428   1.929   .     S
O419   Zn426   1.928   .     S
O420   Zn427   1.932   .     S
O421   Zn428   1.924   .     S
O422   Zn425   1.921   .     S
O423   Zn426   1.937   .     S
O424   Zn427   1.932   .     S
C429   C439    1.435   .     S
C429   O528    1.273   .     A
C429   O526    1.260   .     A
C430   C464    1.536   .     S
C430   C431    1.432   .     A
C430   C468    1.431   .     A
C431   C456    1.526   .     S
C431   C1396   1.425   .     S
C432   O529    1.279   .     A
C432   O527    1.277   .     A
C432   C438    1.459   .     S
C433   C434    1.410   .     A
C433   C435    1.433   .     A
C433   C1394   1.425   1_554 S
C434   C437    1.391   .     A
C434   C469    1.417   .     A
C435   C436    1.432   .     A
C435   O521    1.391   .     S
C436   C453    1.528   .     S
C436   C448    1.416   .     A
C437   C448    1.386   .     A
C437   H511    1.078   .     S
C438   C546    1.334   .     S
C438   O629    1.387   .     S
C440   O523    1.391   .     S
C440   C449    1.407   .     A
C440   C447    1.416   .     A
C441   C444    1.452   .     S
C441   C763    1.332   .     S
C441   H815    1.088   .     S
C442   C443    1.436   .     S
C443   O524    1.272   .     A
C443   O530    1.271   .     A
C444   O525    1.271   .     A
C444   O531    1.271   .     A
C445   O519    1.272   .     A
C445   C448    1.460   .     S
C445   O517    1.271   .     A
C446   C447    1.486   .     S
C446   O518    1.284   .     A
C446   O520    1.292   .     A
C447   C451    1.405   .     A
C449   C467    1.399   .     A
C449   H512    1.083   .     S
C450   H515    1.114   .     S
C450   O521    1.417   .     S
C450   H514    1.109   .     S
C450   H1436   1.108   1_554 S
C451   C462    1.405   .     A
C451   H513    1.076   .     S
C452   H476    1.109   .     S
C452   O522    1.410   .     S
C452   H474    1.114   .     S
C453   H484    1.106   .     S
C453   H482    1.104   .     S
C453   C454    1.536   .     S
C454   H480    1.112   .     S
C454   H481    1.110   .     S
C455   H478    1.111   .     S
C455   H479    1.111   .     S
C455   H477    1.111   .     S
C455   C775    1.527   .     S
C456   C457    1.539   .     S
C456   H491    1.094   .     S
C456   H490    1.100   .     S
C457   H488    1.110   .     S
C457   C565    1.527   .     S
C457   H1452   1.108   .     S
C458   H485    1.110   .     S
C458   H487    1.110   .     S
C458   H486    1.111   .     S
C459   H495    1.110   .     S
C459   H493    1.109   .     S
C459   H492    1.112   .     S
C459   O523    1.412   .     S
C460   H502    1.113   .     S
C460   H501    1.102   .     S
C460   C461    1.537   .     S
C460   C470    1.531   .     S
C461   H500    1.109   .     S
C461   C463    1.527   .     S
C461   H499    1.112   .     S
C462   C468    1.424   .     A
C462   C467    1.406   .     A
C463   H498    1.110   .     S
C463   H496    1.111   .     S
C463   H497    1.111   .     S
C464   C465    1.546   .     S
C464   H510    1.110   .     S
C464   H509    1.111   .     S
C465   H507    1.111   .     S
C465   H508    1.110   .     S
C465   C466    1.530   .     S
C466   H503    1.111   .     S
C466   H506    1.105   .     S
C466   H611    1.108   .     S
C467   C1434   1.390   .     S
C468   C1432   1.425   .     S
C469   C470    1.440   .     A
C469   C1431   1.425   1_554 S
C470   C471    1.400   .     A
C471   H472    1.085   .     S
C471   C1430   1.390   1_554 S
H473   C1413   1.108   .     S
H475   C559    1.112   .     S
H483   C546    1.086   .     S
H489   C1420   1.108   1_554 S
H505   C763    1.086   .     S
O516   Zn532   1.954   .     S
O516   Zn535   1.936   .     S
O516   Zn534   1.932   .     S
O516   Zn533   1.929   .     S
O517   Zn533   1.925   .     S
O518   Zn535   1.930   .     S
O519   Zn534   1.923   .     S
O520   Zn532   1.921   .     S
O524   Zn532   1.925   .     S
O525   Zn535   1.929   .     S
O526   Zn533   1.928   .     S
O527   Zn534   1.932   .     S
O528   Zn535   1.924   .     S
O529   Zn532   1.921   .     S
O530   Zn533   1.937   .     S
O531   Zn534   1.932   .     S
C536   C546    1.435   .     S
C536   O635    1.273   .     A
C536   O633    1.260   .     A
C537   C571    1.536   .     S
C537   C538    1.432   .     A
C537   C575    1.431   .     A
C538   C563    1.526   .     S
C538   C1503   1.425   .     S
C539   O636    1.279   .     A
C539   O634    1.277   .     A
C539   C545    1.459   .     S
C540   C541    1.410   .     A
C540   C542    1.433   .     A
C540   C1501   1.425   1_554 S
C541   C544    1.391   .     A
C541   C576    1.417   .     A
C542   C543    1.432   .     A
C542   O628    1.391   .     S
C543   C560    1.528   .     S
C543   C555    1.416   .     A
C544   C555    1.386   .     A
C544   H618    1.078   .     S
C545   C332    1.334   1_655 S
C545   O415    1.387   1_655 S
C547   O630    1.391   .     S
C547   C556    1.407   .     A
C547   C554    1.416   .     A
C548   C551    1.452   .     S
C548   C870    1.332   .     S
C548   H922    1.088   .     S
C549   C550    1.436   .     S
C550   O631    1.272   .     A
C550   O637    1.271   .     A
C551   O632    1.271   .     A
C551   O638    1.271   .     A
C552   O626    1.272   .     A
C552   C555    1.460   .     S
C552   O624    1.271   .     A
C553   C554    1.486   .     S
C553   O625    1.284   .     A
C553   O627    1.292   .     A
C554   C558    1.405   .     A
C556   C574    1.399   .     A
C556   H619    1.083   .     S
C557   H622    1.114   .     S
C557   O628    1.417   .     S
C557   H621    1.109   .     S
C557   H1543   1.108   1_554 S
C558   C569    1.405   .     A
C558   H620    1.076   .     S
C559   H583    1.109   .     S
C559   O629    1.410   .     S
C559   H581    1.114   .     S
C560   H591    1.106   .     S
C560   H589    1.104   .     S
C560   C561    1.536   .     S
C561   H587    1.112   .     S
C561   H588    1.110   .     S
C562   H585    1.111   .     S
C562   H586    1.111   .     S
C562   H584    1.111   .     S
C562   C882    1.527   .     S
C563   C564    1.539   .     S
C563   H598    1.094   .     S
C563   H597    1.100   .     S
C564   H595    1.110   .     S
C564   C351    1.527   1_655 S
C564   H1559   1.108   .     S
C565   H592    1.110   .     S
C565   H594    1.110   .     S
C565   H593    1.111   .     S
C566   H602    1.110   .     S
C566   H600    1.109   .     S
C566   H599    1.112   .     S
C566   O630    1.412   .     S
C567   H609    1.113   .     S
C567   H608    1.102   .     S
C567   C568    1.537   .     S
C567   C577    1.531   .     S
C568   H607    1.109   .     S
C568   C570    1.527   .     S
C568   H606    1.112   .     S
C569   C575    1.424   .     A
C569   C574    1.406   .     A
C570   H605    1.110   .     S
C570   H603    1.111   .     S
C570   H604    1.111   .     S
C571   C572    1.546   .     S
C571   H617    1.110   .     S
C571   H616    1.111   .     S
C572   H614    1.111   .     S
C572   H615    1.110   .     S
C572   C573    1.530   .     S
C573   H610    1.111   .     S
C573   H613    1.105   .     S
C573   H397    1.108   1_655 S
C574   C1541   1.390   .     S
C575   C1539   1.425   .     S
C576   C577    1.440   .     A
C576   C1538   1.425   1_554 S
C577   C578    1.400   .     A
C578   H579    1.085   .     S
C578   C1537   1.390   1_554 S
H580   C1520   1.108   .     S
H582   C345    1.112   1_655 S
H590   C332    1.086   1_655 S
H596   C1527   1.108   1_554 S
H612   C870    1.086   .     S
O623   Zn639   1.954   .     S
O623   Zn642   1.936   .     S
O623   Zn641   1.932   .     S
O623   Zn640   1.929   .     S
O624   Zn640   1.925   .     S
O625   Zn642   1.930   .     S
O626   Zn641   1.923   .     S
O627   Zn639   1.921   .     S
O631   Zn639   1.925   .     S
O632   Zn642   1.929   .     S
O633   Zn640   1.928   .     S
O634   Zn641   1.932   .     S
O635   Zn642   1.924   .     S
O636   Zn639   1.921   .     S
O637   Zn640   1.937   .     S
O638   Zn641   1.932   .     S
C643   C653    1.435   .     S
C643   O742    1.273   .     A
C643   O740    1.260   .     A
C644   C678    1.536   .     S
C644   C645    1.432   .     A
C644   C682    1.431   .     A
C645   C670    1.526   .     S
C645   C1610   1.425   .     S
C646   O743    1.279   .     A
C646   O741    1.277   .     A
C646   C652    1.459   .     S
C647   C648    1.410   .     A
C647   C649    1.433   .     A
C647   C1608   1.425   1_554 S
C648   C651    1.391   .     A
C648   C683    1.417   .     A
C649   C650    1.432   .     A
C649   O735    1.391   .     S
C650   C667    1.528   .     S
C650   C662    1.416   .     A
C651   C662    1.386   .     A
C651   H725    1.078   .     S
C652   C760    1.334   .     S
C652   O843    1.387   .     S
C653   C866    1.334   1_455 S
C653   H911    1.086   1_455 S
C654   O737    1.391   .     S
C654   C663    1.407   .     A
C654   C661    1.416   .     A
C655   C658    1.452   .     S
C655   C14     1.332   1_565 S
C655   H66     1.088   1_565 S
C656   C657    1.436   .     S
C657   O738    1.272   .     A
C657   O744    1.271   .     A
C658   O739    1.271   .     A
C658   O745    1.271   .     A
C659   O733    1.272   .     A
C659   C662    1.460   .     S
C659   O731    1.271   .     A
C660   C661    1.486   .     S
C660   O732    1.284   .     A
C660   O734    1.292   .     A
C661   C665    1.405   .     A
C663   C681    1.399   .     A
C663   H726    1.083   .     S
C664   H729    1.114   .     S
C664   O735    1.417   .     S
C664   H728    1.109   .     S
C664   H1650   1.108   1_554 S
C665   C676    1.405   .     A
C665   H727    1.076   .     S
C666   H690    1.109   .     S
C666   O736    1.410   .     S
C666   H688    1.114   .     S
C666   H903    1.112   1_455 S
C667   H698    1.106   .     S
C667   H696    1.104   .     S
C667   C668    1.536   .     S
C668   H694    1.112   .     S
C668   H695    1.110   .     S
C669   H692    1.111   .     S
C669   H693    1.111   .     S
C669   H691    1.111   .     S
C669   C26     1.527   1_565 S
C670   C671    1.539   .     S
C670   H705    1.094   .     S
C670   H704    1.100   .     S
C671   H702    1.110   .     S
C671   C779    1.527   .     S
C671   H1666   1.108   .     S
C672   H699    1.110   .     S
C672   H701    1.110   .     S
C672   H700    1.111   .     S
C672   C885    1.527   1_455 S
C673   H709    1.110   .     S
C673   H707    1.109   .     S
C673   H706    1.112   .     S
C673   O737    1.412   .     S
C674   H716    1.113   .     S
C674   H715    1.102   .     S
C674   C675    1.537   .     S
C674   C684    1.531   .     S
C675   H714    1.109   .     S
C675   C677    1.527   .     S
C675   H713    1.112   .     S
C676   C682    1.424   .     A
C676   C681    1.406   .     A
C677   H712    1.110   .     S
C677   H710    1.111   .     S
C677   H711    1.111   .     S
C678   C679    1.546   .     S
C678   H724    1.110   .     S
C678   H723    1.111   .     S
C679   H721    1.111   .     S
C679   H722    1.110   .     S
C679   C680    1.530   .     S
C680   H717    1.111   .     S
C680   H720    1.105   .     S
C680   H825    1.108   .     S
C681   C1648   1.390   .     S
C682   C1646   1.425   .     S
C683   C684    1.440   .     A
C683   C1645   1.425   1_554 S
C684   C685    1.400   .     A
C685   H686    1.085   .     S
C685   C1644   1.390   1_554 S
H687   C1627   1.108   .     S
H689   C773    1.112   .     S
H697   C760    1.086   .     S
H703   C1634   1.108   1_554 S
H718   C894    1.108   1_455 S
H719   C14     1.086   1_565 S
O730   Zn746   1.954   .     S
O730   Zn749   1.936   .     S
O730   Zn748   1.932   .     S
O730   Zn747   1.929   .     S
O731   Zn747   1.925   .     S
O732   Zn749   1.930   .     S
O733   Zn748   1.923   .     S
O734   Zn746   1.921   .     S
O736   C866    1.387   1_455 S
O738   Zn746   1.925   .     S
O739   Zn749   1.929   .     S
O740   Zn747   1.928   .     S
O741   Zn748   1.932   .     S
O742   Zn749   1.924   .     S
O743   Zn746   1.921   .     S
O744   Zn747   1.937   .     S
O745   Zn748   1.932   .     S
C750   C760    1.435   .     S
C750   O849    1.273   .     A
C750   O847    1.260   .     A
C751   C785    1.536   .     S
C751   C752    1.432   .     A
C751   C789    1.431   .     A
C752   C777    1.526   .     S
C752   C1717   1.425   .     S
C753   O850    1.279   .     A
C753   O848    1.277   .     A
C753   C759    1.459   .     S
C754   C755    1.410   .     A
C754   C756    1.433   .     A
C754   C1715   1.425   1_554 S
C755   C758    1.391   .     A
C755   C790    1.417   .     A
C756   C757    1.432   .     A
C756   O842    1.391   .     S
C757   C774    1.528   .     S
C757   C769    1.416   .     A
C758   C769    1.386   .     A
C758   H832    1.078   .     S
C759   C867    1.334   .     S
C759   O950    1.387   .     S
C761   O844    1.391   .     S
C761   C770    1.407   .     A
C761   C768    1.416   .     A
C762   C765    1.452   .     S
C762   C121    1.332   1_565 S
C762   H173    1.088   1_565 S
C763   C764    1.436   .     S
C764   O845    1.272   .     A
C764   O851    1.271   .     A
C765   O846    1.271   .     A
C765   O852    1.271   .     A
C766   O840    1.272   .     A
C766   C769    1.460   .     S
C766   O838    1.271   .     A
C767   C768    1.486   .     S
C767   O839    1.284   .     A
C767   O841    1.292   .     A
C768   C772    1.405   .     A
C770   C788    1.399   .     A
C770   H833    1.083   .     S
C771   H836    1.114   .     S
C771   O842    1.417   .     S
C771   H835    1.109   .     S
C771   H1757   1.108   1_554 S
C772   C783    1.405   .     A
C772   H834    1.076   .     S
C773   H797    1.109   .     S
C773   O843    1.410   .     S
C773   H795    1.114   .     S
C774   H805    1.106   .     S
C774   H803    1.104   .     S
C774   C775    1.536   .     S
C775   H801    1.112   .     S
C775   H802    1.110   .     S
C776   H799    1.111   .     S
C776   H800    1.111   .     S
C776   H798    1.111   .     S
C776   C133    1.527   1_565 S
C777   C778    1.539   .     S
C777   H812    1.094   .     S
C777   H811    1.100   .     S
C778   H809    1.110   .     S
C778   C886    1.527   .     S
C778   H1773   1.108   .     S
C779   H806    1.110   .     S
C779   H808    1.110   .     S
C779   H807    1.111   .     S
C780   H816    1.110   .     S
C780   H814    1.109   .     S
C780   H813    1.112   .     S
C780   O844    1.412   .     S
C781   H823    1.113   .     S
C781   H822    1.102   .     S
C781   C782    1.537   .     S
C781   C791    1.531   .     S
C782   H821    1.109   .     S
C782   C784    1.527   .     S
C782   H820    1.112   .     S
C783   C789    1.424   .     A
C783   C788    1.406   .     A
C784   H819    1.110   .     S
C784   H817    1.111   .     S
C784   H818    1.111   .     S
C785   C786    1.546   .     S
C785   H831    1.110   .     S
C785   H830    1.111   .     S
C786   H828    1.111   .     S
C786   H829    1.110   .     S
C786   C787    1.530   .     S
C787   H824    1.111   .     S
C787   H827    1.105   .     S
C787   H932    1.108   .     S
C788   C1755   1.390   .     S
C789   C1753   1.425   .     S
C790   C791    1.440   .     A
C790   C1752   1.425   1_554 S
C791   C792    1.400   .     A
C792   H793    1.085   .     S
C792   C1751   1.390   1_554 S
H794   C1734   1.108   .     S
H796   C880    1.112   .     S
H804   C867    1.086   .     S
H810   C1741   1.108   1_554 S
H826   C121    1.086   1_565 S
O837   Zn853   1.954   .     S
O837   Zn856   1.936   .     S
O837   Zn855   1.932   .     S
O837   Zn854   1.929   .     S
O838   Zn854   1.925   .     S
O839   Zn856   1.930   .     S
O840   Zn855   1.923   .     S
O841   Zn853   1.921   .     S
O845   Zn853   1.925   .     S
O846   Zn856   1.929   .     S
O847   Zn854   1.928   .     S
O848   Zn855   1.932   .     S
O849   Zn856   1.924   .     S
O850   Zn853   1.921   .     S
O851   Zn854   1.937   .     S
O852   Zn855   1.932   .     S
C857   C867    1.435   .     S
C857   O956    1.273   .     A
C857   O954    1.260   .     A
C858   C892    1.536   .     S
C858   C859    1.432   .     A
C858   C896    1.431   .     A
C859   C884    1.526   .     S
C859   C1824   1.425   .     S
C860   O957    1.279   .     A
C860   O955    1.277   .     A
C860   C866    1.459   .     S
C861   C862    1.410   .     A
C861   C863    1.433   .     A
C861   C1822   1.425   1_554 S
C862   C865    1.391   .     A
C862   C897    1.417   .     A
C863   C864    1.432   .     A
C863   O949    1.391   .     S
C864   C881    1.528   .     S
C864   C876    1.416   .     A
C865   C876    1.386   .     A
C865   H939    1.078   .     S
C866   C653    1.334   1_655 S
C866   O736    1.387   1_655 S
C868   O951    1.391   .     S
C868   C877    1.407   .     A
C868   C875    1.416   .     A
C869   C872    1.452   .     S
C869   C228    1.332   1_565 S
C869   H280    1.088   1_565 S
C870   C871    1.436   .     S
C871   O952    1.272   .     A
C871   O958    1.271   .     A
C872   O953    1.271   .     A
C872   O959    1.271   .     A
C873   O947    1.272   .     A
C873   C876    1.460   .     S
C873   O945    1.271   .     A
C874   C875    1.486   .     S
C874   O946    1.284   .     A
C874   O948    1.292   .     A
C875   C879    1.405   .     A
C877   C895    1.399   .     A
C877   H940    1.083   .     S
C878   H943    1.114   .     S
C878   O949    1.417   .     S
C878   H942    1.109   .     S
C878   H1864   1.108   1_554 S
C879   C890    1.405   .     A
C879   H941    1.076   .     S
C880   H904    1.109   .     S
C880   O950    1.410   .     S
C880   H902    1.114   .     S
C881   H912    1.106   .     S
C881   H910    1.104   .     S
C881   C882    1.536   .     S
C882   H908    1.112   .     S
C882   H909    1.110   .     S
C883   H906    1.111   .     S
C883   H907    1.111   .     S
C883   H905    1.111   .     S
C883   C240    1.527   1_565 S
C884   C885    1.539   .     S
C884   H919    1.094   .     S
C884   H918    1.100   .     S
C885   H916    1.110   .     S
C885   C672    1.527   1_655 S
C885   H1880   1.108   .     S
C886   H913    1.110   .     S
C886   H915    1.110   .     S
C886   H914    1.111   .     S
C887   H923    1.110   .     S
C887   H921    1.109   .     S
C887   H920    1.112   .     S
C887   O951    1.412   .     S
C888   H930    1.113   .     S
C888   H929    1.102   .     S
C888   C889    1.537   .     S
C888   C898    1.531   .     S
C889   H928    1.109   .     S
C889   C891    1.527   .     S
C889   H927    1.112   .     S
C890   C896    1.424   .     A
C890   C895    1.406   .     A
C891   H926    1.110   .     S
C891   H924    1.111   .     S
C891   H925    1.111   .     S
C892   C893    1.546   .     S
C892   H938    1.110   .     S
C892   H937    1.111   .     S
C893   H935    1.111   .     S
C893   H936    1.110   .     S
C893   C894    1.530   .     S
C894   H931    1.111   .     S
C894   H934    1.105   .     S
C894   H718    1.108   1_655 S
C895   C1862   1.390   .     S
C896   C1860   1.425   .     S
C897   C898    1.440   .     A
C897   C1859   1.425   1_554 S
C898   C899    1.400   .     A
C899   H900    1.085   .     S
C899   C1858   1.390   1_554 S
H901   C1841   1.108   .     S
H903   C666    1.112   1_655 S
H911   C653    1.086   1_655 S
H917   C1848   1.108   1_554 S
H933   C228    1.086   1_565 S
O944   Zn960   1.954   .     S
O944   Zn963   1.936   .     S
O944   Zn962   1.932   .     S
O944   Zn961   1.929   .     S
O945   Zn961   1.925   .     S
O946   Zn963   1.930   .     S
O947   Zn962   1.923   .     S
O948   Zn960   1.921   .     S
O952   Zn960   1.925   .     S
O953   Zn963   1.929   .     S
O954   Zn961   1.928   .     S
O955   Zn962   1.932   .     S
O956   Zn963   1.924   .     S
O957   Zn960   1.921   .     S
O958   Zn961   1.937   .     S
O959   Zn962   1.932   .     S
C964   C974    1.435   .     S
C964   O1063   1.273   .     A
C964   O1061   1.260   .     A
C965   C999    1.536   .     S
C965   C966    1.432   .     A
C965   C1003   1.431   .     A
C966   C991    1.526   .     S
C966   C5      1.425   1_556 S
C967   O1064   1.279   .     A
C967   O1062   1.277   .     A
C967   C973    1.459   .     S
C968   C969    1.410   .     A
C968   C970    1.433   .     A
C969   C972    1.391   .     A
C969   C1004   1.417   .     A
C970   C971    1.432   .     A
C970   O1056   1.391   .     S
C971   C988    1.528   .     S
C971   C983    1.416   .     A
C972   C983    1.386   .     A
C972   H1046   1.078   .     S
C973   C1081   1.334   .     S
C973   O1164   1.387   .     S
C974   C1187   1.334   1_455 S
C974   H1232   1.086   1_455 S
C975   O1058   1.391   .     S
C975   C984    1.407   .     A
C975   C982    1.416   .     A
C976   C979    1.452   .     S
C976   C1298   1.332   .     S
C976   H1350   1.088   .     S
C977   C978    1.436   .     S
C977   C1618   1.332   1_545 S
C977   H1682   1.086   1_545 S
C978   O1059   1.272   .     A
C978   O1065   1.271   .     A
C979   O1060   1.271   .     A
C979   O1066   1.271   .     A
C980   O1054   1.272   .     A
C980   C983    1.460   .     S
C980   O1052   1.271   .     A
C981   C982    1.486   .     S
C981   O1053   1.284   .     A
C981   O1055   1.292   .     A
C982   C986    1.405   .     A
C984   C1002   1.399   .     A
C984   H1047   1.083   .     S
C985   H1050   1.114   .     S
C985   O1056   1.417   .     S
C985   H1049   1.109   .     S
C986   C997    1.405   .     A
C986   H1048   1.076   .     S
C987   H1011   1.109   .     S
C987   O1057   1.410   .     S
C987   H1009   1.114   .     S
C987   H1224   1.112   1_455 S
C988   H1019   1.106   .     S
C988   H1017   1.104   .     S
C988   C989    1.536   .     S
C989   H1015   1.112   .     S
C989   H1016   1.110   .     S
C989   C1632   1.527   1_545 S
C990   H1013   1.111   .     S
C990   H1014   1.111   .     S
C990   H1012   1.111   .     S
C990   C1310   1.527   .     S
C991   C992    1.539   .     S
C991   H1026   1.094   .     S
C991   H1025   1.100   .     S
C992   H1023   1.110   .     S
C992   C1100   1.527   .     S
C992   H61     1.108   1_556 S
C993   H1020   1.110   .     S
C993   H1022   1.110   .     S
C993   H1021   1.111   .     S
C993   C1206   1.527   1_455 S
C994   H1030   1.110   .     S
C994   H1028   1.109   .     S
C994   H1027   1.112   .     S
C994   O1058   1.412   .     S
C995   H1037   1.113   .     S
C995   H1036   1.102   .     S
C995   C996    1.537   .     S
C995   C1005   1.531   .     S
C996   H1035   1.109   .     S
C996   C998    1.527   .     S
C996   H1034   1.112   .     S
C997   C1003   1.424   .     A
C997   C1002   1.406   .     A
C998   H1033   1.110   .     S
C998   H1031   1.111   .     S
C998   H1032   1.111   .     S
C999   C1000   1.546   .     S
C999   H1045   1.110   .     S
C999   H1044   1.111   .     S
C1000  H1042   1.111   .     S
C1000  H1043   1.110   .     S
C1000  C1001   1.530   .     S
C1001  H1038   1.111   .     S
C1001  H1041   1.105   .     S
C1001  H1146   1.108   .     S
C1002  C43     1.390   1_556 S
C1003  C41     1.425   1_556 S
C1004  C1005   1.440   .     A
C1005  C1006   1.400   .     A
C1006  H1007   1.085   .     S
H1008  C22     1.108   1_556 S
H1010  C1094   1.112   .     S
H1018  C1081   1.086   .     S
H1029  C1618   1.088   1_545 S
H1039  C1215   1.108   1_455 S
H1040  C1298   1.086   .     S
O1051  Zn1067  1.954   .     S
O1051  Zn1070  1.936   .     S
O1051  Zn1069  1.932   .     S
O1051  Zn1068  1.929   .     S
O1052  Zn1068  1.925   .     S
O1053  Zn1070  1.930   .     S
O1054  Zn1069  1.923   .     S
O1055  Zn1067  1.921   .     S
O1057  C1187   1.387   1_455 S
O1059  Zn1067  1.925   .     S
O1060  Zn1070  1.929   .     S
O1061  Zn1068  1.928   .     S
O1062  Zn1069  1.932   .     S
O1063  Zn1070  1.924   .     S
O1064  Zn1067  1.921   .     S
O1065  Zn1068  1.937   .     S
O1066  Zn1069  1.932   .     S
C1071  C1081   1.435   .     S
C1071  O1170   1.273   .     A
C1071  O1168   1.260   .     A
C1072  C1106   1.536   .     S
C1072  C1073   1.432   .     A
C1072  C1110   1.431   .     A
C1073  C1098   1.526   .     S
C1073  C112    1.425   1_556 S
C1074  O1171   1.279   .     A
C1074  O1169   1.277   .     A
C1074  C1080   1.459   .     S
C1075  C1076   1.410   .     A
C1075  C1077   1.433   .     A
C1076  C1079   1.391   .     A
C1076  C1111   1.417   .     A
C1077  C1078   1.432   .     A
C1077  O1163   1.391   .     S
C1078  C1095   1.528   .     S
C1078  C1090   1.416   .     A
C1079  C1090   1.386   .     A
C1079  H1153   1.078   .     S
C1080  C1188   1.334   .     S
C1080  O1271   1.387   .     S
C1082  O1165   1.391   .     S
C1082  C1091   1.407   .     A
C1082  C1089   1.416   .     A
C1083  C1086   1.452   .     S
C1083  C1405   1.332   .     S
C1083  H1457   1.088   .     S
C1084  C1085   1.436   .     S
C1084  C1725   1.332   1_545 S
C1084  H1789   1.086   1_545 S
C1085  O1166   1.272   .     A
C1085  O1172   1.271   .     A
C1086  O1167   1.271   .     A
C1086  O1173   1.271   .     A
C1087  O1161   1.272   .     A
C1087  C1090   1.460   .     S
C1087  O1159   1.271   .     A
C1088  C1089   1.486   .     S
C1088  O1160   1.284   .     A
C1088  O1162   1.292   .     A
C1089  C1093   1.405   .     A
C1091  C1109   1.399   .     A
C1091  H1154   1.083   .     S
C1092  H1157   1.114   .     S
C1092  O1163   1.417   .     S
C1092  H1156   1.109   .     S
C1093  C1104   1.405   .     A
C1093  H1155   1.076   .     S
C1094  H1118   1.109   .     S
C1094  O1164   1.410   .     S
C1094  H1116   1.114   .     S
C1095  H1126   1.106   .     S
C1095  H1124   1.104   .     S
C1095  C1096   1.536   .     S
C1096  H1122   1.112   .     S
C1096  H1123   1.110   .     S
C1096  C1739   1.527   1_545 S
C1097  H1120   1.111   .     S
C1097  H1121   1.111   .     S
C1097  H1119   1.111   .     S
C1097  C1417   1.527   .     S
C1098  C1099   1.539   .     S
C1098  H1133   1.094   .     S
C1098  H1132   1.100   .     S
C1099  H1130   1.110   .     S
C1099  C1207   1.527   .     S
C1099  H168    1.108   1_556 S
C1100  H1127   1.110   .     S
C1100  H1129   1.110   .     S
C1100  H1128   1.111   .     S
C1101  H1137   1.110   .     S
C1101  H1135   1.109   .     S
C1101  H1134   1.112   .     S
C1101  O1165   1.412   .     S
C1102  H1144   1.113   .     S
C1102  H1143   1.102   .     S
C1102  C1103   1.537   .     S
C1102  C1112   1.531   .     S
C1103  H1142   1.109   .     S
C1103  C1105   1.527   .     S
C1103  H1141   1.112   .     S
C1104  C1110   1.424   .     A
C1104  C1109   1.406   .     A
C1105  H1140   1.110   .     S
C1105  H1138   1.111   .     S
C1105  H1139   1.111   .     S
C1106  C1107   1.546   .     S
C1106  H1152   1.110   .     S
C1106  H1151   1.111   .     S
C1107  H1149   1.111   .     S
C1107  H1150   1.110   .     S
C1107  C1108   1.530   .     S
C1108  H1145   1.111   .     S
C1108  H1148   1.105   .     S
C1108  H1253   1.108   .     S
C1109  C150    1.390   1_556 S
C1110  C148    1.425   1_556 S
C1111  C1112   1.440   .     A
C1112  C1113   1.400   .     A
C1113  H1114   1.085   .     S
H1115  C129    1.108   1_556 S
H1117  C1201   1.112   .     S
H1125  C1188   1.086   .     S
H1136  C1725   1.088   1_545 S
H1147  C1405   1.086   .     S
O1158  Zn1174  1.954   .     S
O1158  Zn1177  1.936   .     S
O1158  Zn1176  1.932   .     S
O1158  Zn1175  1.929   .     S
O1159  Zn1175  1.925   .     S
O1160  Zn1177  1.930   .     S
O1161  Zn1176  1.923   .     S
O1162  Zn1174  1.921   .     S
O1166  Zn1174  1.925   .     S
O1167  Zn1177  1.929   .     S
O1168  Zn1175  1.928   .     S
O1169  Zn1176  1.932   .     S
O1170  Zn1177  1.924   .     S
O1171  Zn1174  1.921   .     S
O1172  Zn1175  1.937   .     S
O1173  Zn1176  1.932   .     S
C1178  C1188   1.435   .     S
C1178  O1277   1.273   .     A
C1178  O1275   1.260   .     A
C1179  C1213   1.536   .     S
C1179  C1180   1.432   .     A
C1179  C1217   1.431   .     A
C1180  C1205   1.526   .     S
C1180  C219    1.425   1_556 S
C1181  O1278   1.279   .     A
C1181  O1276   1.277   .     A
C1181  C1187   1.459   .     S
C1182  C1183   1.410   .     A
C1182  C1184   1.433   .     A
C1183  C1186   1.391   .     A
C1183  C1218   1.417   .     A
C1184  C1185   1.432   .     A
C1184  O1270   1.391   .     S
C1185  C1202   1.528   .     S
C1185  C1197   1.416   .     A
C1186  C1197   1.386   .     A
C1186  H1260   1.078   .     S
C1187  C974    1.334   1_655 S
C1187  O1057   1.387   1_655 S
C1189  O1272   1.391   .     S
C1189  C1198   1.407   .     A
C1189  C1196   1.416   .     A
C1190  C1193   1.452   .     S
C1190  C1512   1.332   .     S
C1190  H1564   1.088   .     S
C1191  C1192   1.436   .     S
C1191  C1832   1.332   1_545 S
C1191  H1896   1.086   1_545 S
C1192  O1273   1.272   .     A
C1192  O1279   1.271   .     A
C1193  O1274   1.271   .     A
C1193  O1280   1.271   .     A
C1194  O1268   1.272   .     A
C1194  C1197   1.460   .     S
C1194  O1266   1.271   .     A
C1195  C1196   1.486   .     S
C1195  O1267   1.284   .     A
C1195  O1269   1.292   .     A
C1196  C1200   1.405   .     A
C1198  C1216   1.399   .     A
C1198  H1261   1.083   .     S
C1199  H1264   1.114   .     S
C1199  O1270   1.417   .     S
C1199  H1263   1.109   .     S
C1200  C1211   1.405   .     A
C1200  H1262   1.076   .     S
C1201  H1225   1.109   .     S
C1201  O1271   1.410   .     S
C1201  H1223   1.114   .     S
C1202  H1233   1.106   .     S
C1202  H1231   1.104   .     S
C1202  C1203   1.536   .     S
C1203  H1229   1.112   .     S
C1203  H1230   1.110   .     S
C1203  C1846   1.527   1_545 S
C1204  H1227   1.111   .     S
C1204  H1228   1.111   .     S
C1204  H1226   1.111   .     S
C1204  C1524   1.527   .     S
C1205  C1206   1.539   .     S
C1205  H1240   1.094   .     S
C1205  H1239   1.100   .     S
C1206  H1237   1.110   .     S
C1206  C993    1.527   1_655 S
C1206  H275    1.108   1_556 S
C1207  H1234   1.110   .     S
C1207  H1236   1.110   .     S
C1207  H1235   1.111   .     S
C1208  H1244   1.110   .     S
C1208  H1242   1.109   .     S
C1208  H1241   1.112   .     S
C1208  O1272   1.412   .     S
C1209  H1251   1.113   .     S
C1209  H1250   1.102   .     S
C1209  C1210   1.537   .     S
C1209  C1219   1.531   .     S
C1210  H1249   1.109   .     S
C1210  C1212   1.527   .     S
C1210  H1248   1.112   .     S
C1211  C1217   1.424   .     A
C1211  C1216   1.406   .     A
C1212  H1247   1.110   .     S
C1212  H1245   1.111   .     S
C1212  H1246   1.111   .     S
C1213  C1214   1.546   .     S
C1213  H1259   1.110   .     S
C1213  H1258   1.111   .     S
C1214  H1256   1.111   .     S
C1214  H1257   1.110   .     S
C1214  C1215   1.530   .     S
C1215  H1252   1.111   .     S
C1215  H1255   1.105   .     S
C1215  H1039   1.108   1_655 S
C1216  C257    1.390   1_556 S
C1217  C255    1.425   1_556 S
C1218  C1219   1.440   .     A
C1219  C1220   1.400   .     A
C1220  H1221   1.085   .     S
H1222  C236    1.108   1_556 S
H1224  C987    1.112   1_655 S
H1232  C974    1.086   1_655 S
H1243  C1832   1.088   1_545 S
H1254  C1512   1.086   .     S
O1265  Zn1281  1.954   .     S
O1265  Zn1284  1.936   .     S
O1265  Zn1283  1.932   .     S
O1265  Zn1282  1.929   .     S
O1266  Zn1282  1.925   .     S
O1267  Zn1284  1.930   .     S
O1268  Zn1283  1.923   .     S
O1269  Zn1281  1.921   .     S
O1273  Zn1281  1.925   .     S
O1274  Zn1284  1.929   .     S
O1275  Zn1282  1.928   .     S
O1276  Zn1283  1.932   .     S
O1277  Zn1284  1.924   .     S
O1278  Zn1281  1.921   .     S
O1279  Zn1282  1.937   .     S
O1280  Zn1283  1.932   .     S
C1285  C1295   1.435   .     S
C1285  O1384   1.273   .     A
C1285  O1382   1.260   .     A
C1286  C1320   1.536   .     S
C1286  C1287   1.432   .     A
C1286  C1324   1.431   .     A
C1287  C1312   1.526   .     S
C1287  C326    1.425   1_556 S
C1288  O1385   1.279   .     A
C1288  O1383   1.277   .     A
C1288  C1294   1.459   .     S
C1289  C1290   1.410   .     A
C1289  C1291   1.433   .     A
C1290  C1293   1.391   .     A
C1290  C1325   1.417   .     A
C1291  C1292   1.432   .     A
C1291  O1377   1.391   .     S
C1292  C1309   1.528   .     S
C1292  C1304   1.416   .     A
C1293  C1304   1.386   .     A
C1293  H1367   1.078   .     S
C1294  C1402   1.334   .     S
C1294  O1485   1.387   .     S
C1295  C1508   1.334   1_455 S
C1295  H1553   1.086   1_455 S
C1296  O1379   1.391   .     S
C1296  C1305   1.407   .     A
C1296  C1303   1.416   .     A
C1297  C1300   1.452   .     S
C1297  C1619   1.332   .     S
C1297  H1671   1.088   .     S
C1298  C1299   1.436   .     S
C1299  O1380   1.272   .     A
C1299  O1386   1.271   .     A
C1300  O1381   1.271   .     A
C1300  O1387   1.271   .     A
C1301  O1375   1.272   .     A
C1301  C1304   1.460   .     S
C1301  O1373   1.271   .     A
C1302  C1303   1.486   .     S
C1302  O1374   1.284   .     A
C1302  O1376   1.292   .     A
C1303  C1307   1.405   .     A
C1305  C1323   1.399   .     A
C1305  H1368   1.083   .     S
C1306  H1371   1.114   .     S
C1306  O1377   1.417   .     S
C1306  H1370   1.109   .     S
C1307  C1318   1.405   .     A
C1307  H1369   1.076   .     S
C1308  H1332   1.109   .     S
C1308  O1378   1.410   .     S
C1308  H1330   1.114   .     S
C1308  H1545   1.112   1_455 S
C1309  H1340   1.106   .     S
C1309  H1338   1.104   .     S
C1309  C1310   1.536   .     S
C1310  H1336   1.112   .     S
C1310  H1337   1.110   .     S
C1311  H1334   1.111   .     S
C1311  H1335   1.111   .     S
C1311  H1333   1.111   .     S
C1311  C1631   1.527   .     S
C1312  C1313   1.539   .     S
C1312  H1347   1.094   .     S
C1312  H1346   1.100   .     S
C1313  H1344   1.110   .     S
C1313  C1421   1.527   .     S
C1313  H382    1.108   1_556 S
C1314  H1341   1.110   .     S
C1314  H1343   1.110   .     S
C1314  H1342   1.111   .     S
C1314  C1527   1.527   1_455 S
C1315  H1351   1.110   .     S
C1315  H1349   1.109   .     S
C1315  H1348   1.112   .     S
C1315  O1379   1.412   .     S
C1316  H1358   1.113   .     S
C1316  H1357   1.102   .     S
C1316  C1317   1.537   .     S
C1316  C1326   1.531   .     S
C1317  H1356   1.109   .     S
C1317  C1319   1.527   .     S
C1317  H1355   1.112   .     S
C1318  C1324   1.424   .     A
C1318  C1323   1.406   .     A
C1319  H1354   1.110   .     S
C1319  H1352   1.111   .     S
C1319  H1353   1.111   .     S
C1320  C1321   1.546   .     S
C1320  H1366   1.110   .     S
C1320  H1365   1.111   .     S
C1321  H1363   1.111   .     S
C1321  H1364   1.110   .     S
C1321  C1322   1.530   .     S
C1322  H1359   1.111   .     S
C1322  H1362   1.105   .     S
C1322  H1467   1.108   .     S
C1323  C364    1.390   1_556 S
C1324  C362    1.425   1_556 S
C1325  C1326   1.440   .     A
C1326  C1327   1.400   .     A
C1327  H1328   1.085   .     S
H1329  C343    1.108   1_556 S
H1331  C1415   1.112   .     S
H1339  C1402   1.086   .     S
H1360  C1536   1.108   1_455 S
H1361  C1619   1.086   .     S
O1372  Zn1388  1.954   .     S
O1372  Zn1391  1.936   .     S
O1372  Zn1390  1.932   .     S
O1372  Zn1389  1.929   .     S
O1373  Zn1389  1.925   .     S
O1374  Zn1391  1.930   .     S
O1375  Zn1390  1.923   .     S
O1376  Zn1388  1.921   .     S
O1378  C1508   1.387   1_455 S
O1380  Zn1388  1.925   .     S
O1381  Zn1391  1.929   .     S
O1382  Zn1389  1.928   .     S
O1383  Zn1390  1.932   .     S
O1384  Zn1391  1.924   .     S
O1385  Zn1388  1.921   .     S
O1386  Zn1389  1.937   .     S
O1387  Zn1390  1.932   .     S
C1392  C1402   1.435   .     S
C1392  O1491   1.273   .     A
C1392  O1489   1.260   .     A
C1393  C1427   1.536   .     S
C1393  C1394   1.432   .     A
C1393  C1431   1.431   .     A
C1394  C1419   1.526   .     S
C1394  C433    1.425   1_556 S
C1395  O1492   1.279   .     A
C1395  O1490   1.277   .     A
C1395  C1401   1.459   .     S
C1396  C1397   1.410   .     A
C1396  C1398   1.433   .     A
C1397  C1400   1.391   .     A
C1397  C1432   1.417   .     A
C1398  C1399   1.432   .     A
C1398  O1484   1.391   .     S
C1399  C1416   1.528   .     S
C1399  C1411   1.416   .     A
C1400  C1411   1.386   .     A
C1400  H1474   1.078   .     S
C1401  C1509   1.334   .     S
C1401  O1592   1.387   .     S
C1403  O1486   1.391   .     S
C1403  C1412   1.407   .     A
C1403  C1410   1.416   .     A
C1404  C1407   1.452   .     S
C1404  C1726   1.332   .     S
C1404  H1778   1.088   .     S
C1405  C1406   1.436   .     S
C1406  O1487   1.272   .     A
C1406  O1493   1.271   .     A
C1407  O1488   1.271   .     A
C1407  O1494   1.271   .     A
C1408  O1482   1.272   .     A
C1408  C1411   1.460   .     S
C1408  O1480   1.271   .     A
C1409  C1410   1.486   .     S
C1409  O1481   1.284   .     A
C1409  O1483   1.292   .     A
C1410  C1414   1.405   .     A
C1412  C1430   1.399   .     A
C1412  H1475   1.083   .     S
C1413  H1478   1.114   .     S
C1413  O1484   1.417   .     S
C1413  H1477   1.109   .     S
C1414  C1425   1.405   .     A
C1414  H1476   1.076   .     S
C1415  H1439   1.109   .     S
C1415  O1485   1.410   .     S
C1415  H1437   1.114   .     S
C1416  H1447   1.106   .     S
C1416  H1445   1.104   .     S
C1416  C1417   1.536   .     S
C1417  H1443   1.112   .     S
C1417  H1444   1.110   .     S
C1418  H1441   1.111   .     S
C1418  H1442   1.111   .     S
C1418  H1440   1.111   .     S
C1418  C1738   1.527   .     S
C1419  C1420   1.539   .     S
C1419  H1454   1.094   .     S
C1419  H1453   1.100   .     S
C1420  H1451   1.110   .     S
C1420  C1528   1.527   .     S
C1420  H489    1.108   1_556 S
C1421  H1448   1.110   .     S
C1421  H1450   1.110   .     S
C1421  H1449   1.111   .     S
C1422  H1458   1.110   .     S
C1422  H1456   1.109   .     S
C1422  H1455   1.112   .     S
C1422  O1486   1.412   .     S
C1423  H1465   1.113   .     S
C1423  H1464   1.102   .     S
C1423  C1424   1.537   .     S
C1423  C1433   1.531   .     S
C1424  H1463   1.109   .     S
C1424  C1426   1.527   .     S
C1424  H1462   1.112   .     S
C1425  C1431   1.424   .     A
C1425  C1430   1.406   .     A
C1426  H1461   1.110   .     S
C1426  H1459   1.111   .     S
C1426  H1460   1.111   .     S
C1427  C1428   1.546   .     S
C1427  H1473   1.110   .     S
C1427  H1472   1.111   .     S
C1428  H1470   1.111   .     S
C1428  H1471   1.110   .     S
C1428  C1429   1.530   .     S
C1429  H1466   1.111   .     S
C1429  H1469   1.105   .     S
C1429  H1574   1.108   .     S
C1430  C471    1.390   1_556 S
C1431  C469    1.425   1_556 S
C1432  C1433   1.440   .     A
C1433  C1434   1.400   .     A
C1434  H1435   1.085   .     S
H1436  C450    1.108   1_556 S
H1438  C1522   1.112   .     S
H1446  C1509   1.086   .     S
H1468  C1726   1.086   .     S
O1479  Zn1495  1.954   .     S
O1479  Zn1498  1.936   .     S
O1479  Zn1497  1.932   .     S
O1479  Zn1496  1.929   .     S
O1480  Zn1496  1.925   .     S
O1481  Zn1498  1.930   .     S
O1482  Zn1497  1.923   .     S
O1483  Zn1495  1.921   .     S
O1487  Zn1495  1.925   .     S
O1488  Zn1498  1.929   .     S
O1489  Zn1496  1.928   .     S
O1490  Zn1497  1.932   .     S
O1491  Zn1498  1.924   .     S
O1492  Zn1495  1.921   .     S
O1493  Zn1496  1.937   .     S
O1494  Zn1497  1.932   .     S
C1499  C1509   1.435   .     S
C1499  O1598   1.273   .     A
C1499  O1596   1.260   .     A
C1500  C1534   1.536   .     S
C1500  C1501   1.432   .     A
C1500  C1538   1.431   .     A
C1501  C1526   1.526   .     S
C1501  C540    1.425   1_556 S
C1502  O1599   1.279   .     A
C1502  O1597   1.277   .     A
C1502  C1508   1.459   .     S
C1503  C1504   1.410   .     A
C1503  C1505   1.433   .     A
C1504  C1507   1.391   .     A
C1504  C1539   1.417   .     A
C1505  C1506   1.432   .     A
C1505  O1591   1.391   .     S
C1506  C1523   1.528   .     S
C1506  C1518   1.416   .     A
C1507  C1518   1.386   .     A
C1507  H1581   1.078   .     S
C1508  C1295   1.334   1_655 S
C1508  O1378   1.387   1_655 S
C1510  O1593   1.391   .     S
C1510  C1519   1.407   .     A
C1510  C1517   1.416   .     A
C1511  C1514   1.452   .     S
C1511  C1833   1.332   .     S
C1511  H1885   1.088   .     S
C1512  C1513   1.436   .     S
C1513  O1594   1.272   .     A
C1513  O1600   1.271   .     A
C1514  O1595   1.271   .     A
C1514  O1601   1.271   .     A
C1515  O1589   1.272   .     A
C1515  C1518   1.460   .     S
C1515  O1587   1.271   .     A
C1516  C1517   1.486   .     S
C1516  O1588   1.284   .     A
C1516  O1590   1.292   .     A
C1517  C1521   1.405   .     A
C1519  C1537   1.399   .     A
C1519  H1582   1.083   .     S
C1520  H1585   1.114   .     S
C1520  O1591   1.417   .     S
C1520  H1584   1.109   .     S
C1521  C1532   1.405   .     A
C1521  H1583   1.076   .     S
C1522  H1546   1.109   .     S
C1522  O1592   1.410   .     S
C1522  H1544   1.114   .     S
C1523  H1554   1.106   .     S
C1523  H1552   1.104   .     S
C1523  C1524   1.536   .     S
C1524  H1550   1.112   .     S
C1524  H1551   1.110   .     S
C1525  H1548   1.111   .     S
C1525  H1549   1.111   .     S
C1525  H1547   1.111   .     S
C1525  C1845   1.527   .     S
C1526  C1527   1.539   .     S
C1526  H1561   1.094   .     S
C1526  H1560   1.100   .     S
C1527  H1558   1.110   .     S
C1527  C1314   1.527   1_655 S
C1527  H596    1.108   1_556 S
C1528  H1555   1.110   .     S
C1528  H1557   1.110   .     S
C1528  H1556   1.111   .     S
C1529  H1565   1.110   .     S
C1529  H1563   1.109   .     S
C1529  H1562   1.112   .     S
C1529  O1593   1.412   .     S
C1530  H1572   1.113   .     S
C1530  H1571   1.102   .     S
C1530  C1531   1.537   .     S
C1530  C1540   1.531   .     S
C1531  H1570   1.109   .     S
C1531  C1533   1.527   .     S
C1531  H1569   1.112   .     S
C1532  C1538   1.424   .     A
C1532  C1537   1.406   .     A
C1533  H1568   1.110   .     S
C1533  H1566   1.111   .     S
C1533  H1567   1.111   .     S
C1534  C1535   1.546   .     S
C1534  H1580   1.110   .     S
C1534  H1579   1.111   .     S
C1535  H1577   1.111   .     S
C1535  H1578   1.110   .     S
C1535  C1536   1.530   .     S
C1536  H1573   1.111   .     S
C1536  H1576   1.105   .     S
C1536  H1360   1.108   1_655 S
C1537  C578    1.390   1_556 S
C1538  C576    1.425   1_556 S
C1539  C1540   1.440   .     A
C1540  C1541   1.400   .     A
C1541  H1542   1.085   .     S
H1543  C557    1.108   1_556 S
H1545  C1308   1.112   1_655 S
H1553  C1295   1.086   1_655 S
H1575  C1833   1.086   .     S
O1586  Zn1602  1.954   .     S
O1586  Zn1605  1.936   .     S
O1586  Zn1604  1.932   .     S
O1586  Zn1603  1.929   .     S
O1587  Zn1603  1.925   .     S
O1588  Zn1605  1.930   .     S
O1589  Zn1604  1.923   .     S
O1590  Zn1602  1.921   .     S
O1594  Zn1602  1.925   .     S
O1595  Zn1605  1.929   .     S
O1596  Zn1603  1.928   .     S
O1597  Zn1604  1.932   .     S
O1598  Zn1605  1.924   .     S
O1599  Zn1602  1.921   .     S
O1600  Zn1603  1.937   .     S
O1601  Zn1604  1.932   .     S
C1606  C1616   1.435   .     S
C1606  O1705   1.273   .     A
C1606  O1703   1.260   .     A
C1607  C1641   1.536   .     S
C1607  C1608   1.432   .     A
C1607  C1645   1.431   .     A
C1608  C1633   1.526   .     S
C1608  C647    1.425   1_556 S
C1609  O1706   1.279   .     A
C1609  O1704   1.277   .     A
C1609  C1615   1.459   .     S
C1610  C1611   1.410   .     A
C1610  C1612   1.433   .     A
C1611  C1614   1.391   .     A
C1611  C1646   1.417   .     A
C1612  C1613   1.432   .     A
C1612  O1698   1.391   .     S
C1613  C1630   1.528   .     S
C1613  C1625   1.416   .     A
C1614  C1625   1.386   .     A
C1614  H1688   1.078   .     S
C1615  C1723   1.334   .     S
C1615  O1806   1.387   .     S
C1616  C1829   1.334   1_455 S
C1616  H1874   1.086   1_455 S
C1617  O1700   1.391   .     S
C1617  C1626   1.407   .     A
C1617  C1624   1.416   .     A
C1618  C1621   1.452   .     S
C1618  C977    1.332   1_565 S
C1618  H1029   1.088   1_565 S
C1619  C1620   1.436   .     S
C1620  O1701   1.272   .     A
C1620  O1707   1.271   .     A
C1621  O1702   1.271   .     A
C1621  O1708   1.271   .     A
C1622  O1696   1.272   .     A
C1622  C1625   1.460   .     S
C1622  O1694   1.271   .     A
C1623  C1624   1.486   .     S
C1623  O1695   1.284   .     A
C1623  O1697   1.292   .     A
C1624  C1628   1.405   .     A
C1626  C1644   1.399   .     A
C1626  H1689   1.083   .     S
C1627  H1692   1.114   .     S
C1627  O1698   1.417   .     S
C1627  H1691   1.109   .     S
C1628  C1639   1.405   .     A
C1628  H1690   1.076   .     S
C1629  H1653   1.109   .     S
C1629  O1699   1.410   .     S
C1629  H1651   1.114   .     S
C1629  H1866   1.112   1_455 S
C1630  H1661   1.106   .     S
C1630  H1659   1.104   .     S
C1630  C1631   1.536   .     S
C1631  H1657   1.112   .     S
C1631  H1658   1.110   .     S
C1632  H1655   1.111   .     S
C1632  H1656   1.111   .     S
C1632  H1654   1.111   .     S
C1632  C989    1.527   1_565 S
C1633  C1634   1.539   .     S
C1633  H1668   1.094   .     S
C1633  H1667   1.100   .     S
C1634  H1665   1.110   .     S
C1634  C1742   1.527   .     S
C1634  H703    1.108   1_556 S
C1635  H1662   1.110   .     S
C1635  H1664   1.110   .     S
C1635  H1663   1.111   .     S
C1635  C1848   1.527   1_455 S
C1636  H1672   1.110   .     S
C1636  H1670   1.109   .     S
C1636  H1669   1.112   .     S
C1636  O1700   1.412   .     S
C1637  H1679   1.113   .     S
C1637  H1678   1.102   .     S
C1637  C1638   1.537   .     S
C1637  C1647   1.531   .     S
C1638  H1677   1.109   .     S
C1638  C1640   1.527   .     S
C1638  H1676   1.112   .     S
C1639  C1645   1.424   .     A
C1639  C1644   1.406   .     A
C1640  H1675   1.110   .     S
C1640  H1673   1.111   .     S
C1640  H1674   1.111   .     S
C1641  C1642   1.546   .     S
C1641  H1687   1.110   .     S
C1641  H1686   1.111   .     S
C1642  H1684   1.111   .     S
C1642  H1685   1.110   .     S
C1642  C1643   1.530   .     S
C1643  H1680   1.111   .     S
C1643  H1683   1.105   .     S
C1643  H1788   1.108   .     S
C1644  C685    1.390   1_556 S
C1645  C683    1.425   1_556 S
C1646  C1647   1.440   .     A
C1647  C1648   1.400   .     A
C1648  H1649   1.085   .     S
H1650  C664    1.108   1_556 S
H1652  C1736   1.112   .     S
H1660  C1723   1.086   .     S
H1681  C1857   1.108   1_455 S
H1682  C977    1.086   1_565 S
O1693  Zn1709  1.954   .     S
O1693  Zn1712  1.936   .     S
O1693  Zn1711  1.932   .     S
O1693  Zn1710  1.929   .     S
O1694  Zn1710  1.925   .     S
O1695  Zn1712  1.930   .     S
O1696  Zn1711  1.923   .     S
O1697  Zn1709  1.921   .     S
O1699  C1829   1.387   1_455 S
O1701  Zn1709  1.925   .     S
O1702  Zn1712  1.929   .     S
O1703  Zn1710  1.928   .     S
O1704  Zn1711  1.932   .     S
O1705  Zn1712  1.924   .     S
O1706  Zn1709  1.921   .     S
O1707  Zn1710  1.937   .     S
O1708  Zn1711  1.932   .     S
C1713  C1723   1.435   .     S
C1713  O1812   1.273   .     A
C1713  O1810   1.260   .     A
C1714  C1748   1.536   .     S
C1714  C1715   1.432   .     A
C1714  C1752   1.431   .     A
C1715  C1740   1.526   .     S
C1715  C754    1.425   1_556 S
C1716  O1813   1.279   .     A
C1716  O1811   1.277   .     A
C1716  C1722   1.459   .     S
C1717  C1718   1.410   .     A
C1717  C1719   1.433   .     A
C1718  C1721   1.391   .     A
C1718  C1753   1.417   .     A
C1719  C1720   1.432   .     A
C1719  O1805   1.391   .     S
C1720  C1737   1.528   .     S
C1720  C1732   1.416   .     A
C1721  C1732   1.386   .     A
C1721  H1795   1.078   .     S
C1722  C1830   1.334   .     S
C1722  O1913   1.387   .     S
C1724  O1807   1.391   .     S
C1724  C1733   1.407   .     A
C1724  C1731   1.416   .     A
C1725  C1728   1.452   .     S
C1725  C1084   1.332   1_565 S
C1725  H1136   1.088   1_565 S
C1726  C1727   1.436   .     S
C1727  O1808   1.272   .     A
C1727  O1814   1.271   .     A
C1728  O1809   1.271   .     A
C1728  O1815   1.271   .     A
C1729  O1803   1.272   .     A
C1729  C1732   1.460   .     S
C1729  O1801   1.271   .     A
C1730  C1731   1.486   .     S
C1730  O1802   1.284   .     A
C1730  O1804   1.292   .     A
C1731  C1735   1.405   .     A
C1733  C1751   1.399   .     A
C1733  H1796   1.083   .     S
C1734  H1799   1.114   .     S
C1734  O1805   1.417   .     S
C1734  H1798   1.109   .     S
C1735  C1746   1.405   .     A
C1735  H1797   1.076   .     S
C1736  H1760   1.109   .     S
C1736  O1806   1.410   .     S
C1736  H1758   1.114   .     S
C1737  H1768   1.106   .     S
C1737  H1766   1.104   .     S
C1737  C1738   1.536   .     S
C1738  H1764   1.112   .     S
C1738  H1765   1.110   .     S
C1739  H1762   1.111   .     S
C1739  H1763   1.111   .     S
C1739  H1761   1.111   .     S
C1739  C1096   1.527   1_565 S
C1740  C1741   1.539   .     S
C1740  H1775   1.094   .     S
C1740  H1774   1.100   .     S
C1741  H1772   1.110   .     S
C1741  C1849   1.527   .     S
C1741  H810    1.108   1_556 S
C1742  H1769   1.110   .     S
C1742  H1771   1.110   .     S
C1742  H1770   1.111   .     S
C1743  H1779   1.110   .     S
C1743  H1777   1.109   .     S
C1743  H1776   1.112   .     S
C1743  O1807   1.412   .     S
C1744  H1786   1.113   .     S
C1744  H1785   1.102   .     S
C1744  C1745   1.537   .     S
C1744  C1754   1.531   .     S
C1745  H1784   1.109   .     S
C1745  C1747   1.527   .     S
C1745  H1783   1.112   .     S
C1746  C1752   1.424   .     A
C1746  C1751   1.406   .     A
C1747  H1782   1.110   .     S
C1747  H1780   1.111   .     S
C1747  H1781   1.111   .     S
C1748  C1749   1.546   .     S
C1748  H1794   1.110   .     S
C1748  H1793   1.111   .     S
C1749  H1791   1.111   .     S
C1749  H1792   1.110   .     S
C1749  C1750   1.530   .     S
C1750  H1787   1.111   .     S
C1750  H1790   1.105   .     S
C1750  H1895   1.108   .     S
C1751  C792    1.390   1_556 S
C1752  C790    1.425   1_556 S
C1753  C1754   1.440   .     A
C1754  C1755   1.400   .     A
C1755  H1756   1.085   .     S
H1757  C771    1.108   1_556 S
H1759  C1843   1.112   .     S
H1767  C1830   1.086   .     S
H1789  C1084   1.086   1_565 S
O1800  Zn1816  1.954   .     S
O1800  Zn1819  1.936   .     S
O1800  Zn1818  1.932   .     S
O1800  Zn1817  1.929   .     S
O1801  Zn1817  1.925   .     S
O1802  Zn1819  1.930   .     S
O1803  Zn1818  1.923   .     S
O1804  Zn1816  1.921   .     S
O1808  Zn1816  1.925   .     S
O1809  Zn1819  1.929   .     S
O1810  Zn1817  1.928   .     S
O1811  Zn1818  1.932   .     S
O1812  Zn1819  1.924   .     S
O1813  Zn1816  1.921   .     S
O1814  Zn1817  1.937   .     S
O1815  Zn1818  1.932   .     S
C1820  C1830   1.435   .     S
C1820  O1919   1.273   .     A
C1820  O1917   1.260   .     A
C1821  C1855   1.536   .     S
C1821  C1822   1.432   .     A
C1821  C1859   1.431   .     A
C1822  C1847   1.526   .     S
C1822  C861    1.425   1_556 S
C1823  O1920   1.279   .     A
C1823  O1918   1.277   .     A
C1823  C1829   1.459   .     S
C1824  C1825   1.410   .     A
C1824  C1826   1.433   .     A
C1825  C1828   1.391   .     A
C1825  C1860   1.417   .     A
C1826  C1827   1.432   .     A
C1826  O1912   1.391   .     S
C1827  C1844   1.528   .     S
C1827  C1839   1.416   .     A
C1828  C1839   1.386   .     A
C1828  H1902   1.078   .     S
C1829  C1616   1.334   1_655 S
C1829  O1699   1.387   1_655 S
C1831  O1914   1.391   .     S
C1831  C1840   1.407   .     A
C1831  C1838   1.416   .     A
C1832  C1835   1.452   .     S
C1832  C1191   1.332   1_565 S
C1832  H1243   1.088   1_565 S
C1833  C1834   1.436   .     S
C1834  O1915   1.272   .     A
C1834  O1921   1.271   .     A
C1835  O1916   1.271   .     A
C1835  O1922   1.271   .     A
C1836  O1910   1.272   .     A
C1836  C1839   1.460   .     S
C1836  O1908   1.271   .     A
C1837  C1838   1.486   .     S
C1837  O1909   1.284   .     A
C1837  O1911   1.292   .     A
C1838  C1842   1.405   .     A
C1840  C1858   1.399   .     A
C1840  H1903   1.083   .     S
C1841  H1906   1.114   .     S
C1841  O1912   1.417   .     S
C1841  H1905   1.109   .     S
C1842  C1853   1.405   .     A
C1842  H1904   1.076   .     S
C1843  H1867   1.109   .     S
C1843  O1913   1.410   .     S
C1843  H1865   1.114   .     S
C1844  H1875   1.106   .     S
C1844  H1873   1.104   .     S
C1844  C1845   1.536   .     S
C1845  H1871   1.112   .     S
C1845  H1872   1.110   .     S
C1846  H1869   1.111   .     S
C1846  H1870   1.111   .     S
C1846  H1868   1.111   .     S
C1846  C1203   1.527   1_565 S
C1847  C1848   1.539   .     S
C1847  H1882   1.094   .     S
C1847  H1881   1.100   .     S
C1848  H1879   1.110   .     S
C1848  C1635   1.527   1_655 S
C1848  H917    1.108   1_556 S
C1849  H1876   1.110   .     S
C1849  H1878   1.110   .     S
C1849  H1877   1.111   .     S
C1850  H1886   1.110   .     S
C1850  H1884   1.109   .     S
C1850  H1883   1.112   .     S
C1850  O1914   1.412   .     S
C1851  H1893   1.113   .     S
C1851  H1892   1.102   .     S
C1851  C1852   1.537   .     S
C1851  C1861   1.531   .     S
C1852  H1891   1.109   .     S
C1852  C1854   1.527   .     S
C1852  H1890   1.112   .     S
C1853  C1859   1.424   .     A
C1853  C1858   1.406   .     A
C1854  H1889   1.110   .     S
C1854  H1887   1.111   .     S
C1854  H1888   1.111   .     S
C1855  C1856   1.546   .     S
C1855  H1901   1.110   .     S
C1855  H1900   1.111   .     S
C1856  H1898   1.111   .     S
C1856  H1899   1.110   .     S
C1856  C1857   1.530   .     S
C1857  H1894   1.111   .     S
C1857  H1897   1.105   .     S
C1857  H1681   1.108   1_655 S
C1858  C899    1.390   1_556 S
C1859  C897    1.425   1_556 S
C1860  C1861   1.440   .     A
C1861  C1862   1.400   .     A
C1862  H1863   1.085   .     S
H1864  C878    1.108   1_556 S
H1866  C1629   1.112   1_655 S
H1874  C1616   1.086   1_655 S
H1896  C1191   1.086   1_565 S
O1907  Zn1923  1.954   .     S
O1907  Zn1926  1.936   .     S
O1907  Zn1925  1.932   .     S
O1907  Zn1924  1.929   .     S
O1908  Zn1924  1.925   .     S
O1909  Zn1926  1.930   .     S
O1910  Zn1925  1.923   .     S
O1911  Zn1923  1.921   .     S
O1915  Zn1923  1.925   .     S
O1916  Zn1926  1.929   .     S
O1917  Zn1924  1.928   .     S
O1918  Zn1925  1.932   .     S
O1919  Zn1926  1.924   .     S
O1920  Zn1923  1.921   .     S
O1921  Zn1924  1.937   .     S
O1922  Zn1925  1.932   .     S
