data_str_m1_o1_o2_pcu_sym.17
_audit_creation_date              2020-01-03
_audit_creation_method            'Materials Studio'
_symmetry_space_group_name_H-M    'P1'
_symmetry_Int_Tables_number       1
_symmetry_cell_setting            triclinic
loop_
_symmetry_equiv_pos_as_xyz
  x,y,z
_cell_length_a                    36.7079
_cell_length_b                    36.7079
_cell_length_c                    34.5304
_cell_angle_alpha                 90.0000
_cell_angle_beta                  90.0000
_cell_angle_gamma                 89.9998
loop_
_atom_site_label
_atom_site_type_symbol
_atom_site_fract_x
_atom_site_fract_y
_atom_site_fract_z
_atom_site_U_iso_or_equiv
_atom_site_adp_type
_atom_site_occupancy
C1     C     0.21881   0.48911   0.04181   0.00000  Uiso   1.00
C2     C     0.03116   0.23901   0.45819   0.00000  Uiso   1.00
C3     C     0.34811   0.40188   0.75001   0.00000  Uiso   1.00
C4     C     0.40188   0.15188   0.25000   0.00000  Uiso   1.00
C5     C     0.09812   0.34812   0.75000   0.00000  Uiso   1.00
C6     C     0.34812   0.40188   0.25001   0.00000  Uiso   1.00
C7     C     0.15189   0.09812   0.75001   0.00000  Uiso   1.00
C8     C     0.09812   0.15189   0.75001   0.00000  Uiso   1.00
C9     C     0.40188   0.34812   0.25001   0.00000  Uiso   1.00
C10    C     0.15188   0.40188   0.75000   0.00000  Uiso   1.00
C11    C     0.34812   0.09812   0.25000   0.00000  Uiso   1.00
C12    C     0.40188   0.34811   0.75001   0.00000  Uiso   1.00
C13    C     0.23910   0.46881   0.54181   0.00000  Uiso   1.00
C14    C     0.09812   0.15188   0.25001   0.00000  Uiso   1.00
C15    C     0.34812   0.09812   0.75000   0.00000  Uiso   1.00
C16    C     0.15188   0.40188   0.25000   0.00000  Uiso   1.00
C17    C     0.25000  -0.00000   0.10245   0.00000  Uiso   1.00
C18    C     0.25000  -0.00000   0.89754   0.00000  Uiso   1.00
C19    C     0.00000   0.25000   0.10245   0.00000  Uiso   1.00
C20    C     0.00000   0.25000   0.89754   0.00000  Uiso   1.00
C21    C     0.00000   0.25000   0.60246   0.00000  Uiso   1.00
C22    C     0.00000   0.25000   0.39754   0.00000  Uiso   1.00
C23    C     0.25000  -0.00000   0.60246   0.00000  Uiso   1.00
C24    C     0.23901   0.03116   0.45819   0.00000  Uiso   1.00
C25    C     0.25000  -0.00000   0.39754   0.00000  Uiso   1.00
C26    C     0.03119   0.26090   0.54181   0.00000  Uiso   1.00
C27    C     0.46884   0.26099   0.45819   0.00000  Uiso   1.00
C28    C     0.26090   0.03119   0.54181   0.00000  Uiso   1.00
C29    C     0.26099   0.46884   0.45819   0.00000  Uiso   1.00
C30    C     0.21872   0.48937   0.08208   0.00000  Uiso   1.00
C31    C     0.28123   0.48923   0.91791   0.00000  Uiso   1.00
C32    C     0.48937   0.21872   0.08208   0.00000  Uiso   1.00
C33    C     0.28115   0.48897   0.95819   0.00000  Uiso   1.00
C34    C     0.48923   0.28123   0.91791   0.00000  Uiso   1.00
C35    C     0.28128   0.01063   0.08208   0.00000  Uiso   1.00
C36    C     0.21877   0.01077   0.91791   0.00000  Uiso   1.00
C37    C     0.01063   0.28128   0.08208   0.00000  Uiso   1.00
C38    C     0.01077   0.21877   0.91791   0.00000  Uiso   1.00
C39    C     0.46873   0.23936   0.58209   0.00000  Uiso   1.00
C40    C     0.03124   0.23927   0.41791   0.00000  Uiso   1.00
C41    C     0.23936   0.46873   0.58209   0.00000  Uiso   1.00
C42    C     0.23927   0.03124   0.41791   0.00000  Uiso   1.00
C43    C     0.03127   0.26064   0.58209   0.00000  Uiso   1.00
C44    C     0.48911   0.21881   0.04181   0.00000  Uiso   1.00
C45    C     0.46876   0.26073   0.41791   0.00000  Uiso   1.00
C46    C     0.26064   0.03127   0.58209   0.00000  Uiso   1.00
C47    C     0.26073   0.46876   0.41791   0.00000  Uiso   1.00
C48    C     0.25000  -0.00000   0.02131   0.00000  Uiso   1.00
C49    C     0.25000  -0.00000   0.97868   0.00000  Uiso   1.00
C50    C     0.00000   0.25000   0.02131   0.00000  Uiso   1.00
C51    C     0.00000   0.25000   0.97868   0.00000  Uiso   1.00
C52    C     0.00000   0.25000   0.52132   0.00000  Uiso   1.00
C53    C     0.00000   0.25000   0.47868   0.00000  Uiso   1.00
C54    C     0.25000  -0.00000   0.52132   0.00000  Uiso   1.00
C55    C     0.48897   0.28114   0.95819   0.00000  Uiso   1.00
C56    C     0.25000  -0.00000   0.47868   0.00000  Uiso   1.00
C57    C     0.25000  -0.00000   0.35520   0.00000  Uiso   1.00
C58    C     0.25000  -0.00000   0.64481   0.00000  Uiso   1.00
C59    C     0.00000   0.25000   0.35520   0.00000  Uiso   1.00
C60    C     0.00000   0.25000   0.64481   0.00000  Uiso   1.00
C61    C     0.00000   0.25000   0.85519   0.00000  Uiso   1.00
C62    C     0.00000   0.25000   0.14480   0.00000  Uiso   1.00
C63    C     0.25000  -0.00000   0.85519   0.00000  Uiso   1.00
C64    C     0.25000  -0.00000   0.14480   0.00000  Uiso   1.00
C65    C     0.17994   0.07006   0.25000   0.00000  Uiso   1.00
C66    C     0.28119   0.01089   0.04181   0.00000  Uiso   1.00
C67    C     0.32006   0.42994   0.75000   0.00000  Uiso   1.00
C68    C     0.42994   0.17994   0.25000   0.00000  Uiso   1.00
C69    C     0.07006   0.32006   0.75000   0.00000  Uiso   1.00
C70    C     0.32006   0.42994   0.25000   0.00000  Uiso   1.00
C71    C     0.17994   0.07006   0.75000   0.00000  Uiso   1.00
C72    C     0.07006   0.32006   0.25000   0.00000  Uiso   1.00
C73    C     0.42994   0.17994   0.75000   0.00000  Uiso   1.00
C74    C     0.17994   0.42994   0.75000   0.00000  Uiso   1.00
C75    C     0.32006   0.07006   0.25000   0.00000  Uiso   1.00
C76    C     0.42994   0.32006   0.75000   0.00000  Uiso   1.00
C77    C     0.21886   0.01103   0.95819   0.00000  Uiso   1.00
C78    C     0.07006   0.17994   0.25000   0.00000  Uiso   1.00
C79    C     0.32006   0.07006   0.75000   0.00000  Uiso   1.00
C80    C     0.17994   0.42994   0.25000   0.00000  Uiso   1.00
C81    C     0.07006   0.17994   0.75000   0.00000  Uiso   1.00
C82    C     0.42994   0.32006   0.25000   0.00000  Uiso   1.00
C83    C     0.11650   0.41022   0.23731   0.00000  Uiso   1.00
C84    C     0.38345   0.08984   0.76289   0.00000  Uiso   1.00
C85    C     0.08978   0.11649   0.23732   0.00000  Uiso   1.00
C86    C     0.39693   0.37022   0.78279   0.00000  Uiso   1.00
C87    C     0.38350   0.08978   0.23731   0.00000  Uiso   1.00
C88    C     0.01089   0.28119   0.04181   0.00000  Uiso   1.00
C89    C     0.11655   0.41017   0.76289   0.00000  Uiso   1.00
C90    C     0.41022   0.38350   0.23731   0.00000  Uiso   1.00
C91    C     0.10307   0.12978   0.78279   0.00000  Uiso   1.00
C92    C     0.12978   0.10307   0.78279   0.00000  Uiso   1.00
C93    C     0.38350   0.41022   0.23731   0.00000  Uiso   1.00
C94    C     0.08983   0.38345   0.76289   0.00000  Uiso   1.00
C95    C     0.41022   0.11650   0.23731   0.00000  Uiso   1.00
C96    C     0.37022   0.39693   0.78279   0.00000  Uiso   1.00
C97    C     0.11650   0.08978   0.23732   0.00000  Uiso   1.00
C98    C     0.41016   0.11655   0.76289   0.00000  Uiso   1.00
C99    C     0.01103   0.21885   0.95819   0.00000  Uiso   1.00
C100   C     0.08978   0.38350   0.23731   0.00000  Uiso   1.00
C101   C     0.36655   0.16016   0.73710   0.00000  Uiso   1.00
C102   C     0.13351   0.33978   0.26268   0.00000  Uiso   1.00
C103   C     0.35306   0.37977   0.71723   0.00000  Uiso   1.00
C104   C     0.16022   0.13350   0.26270   0.00000  Uiso   1.00
C105   C     0.13345   0.33984   0.73710   0.00000  Uiso   1.00
C106   C     0.36649   0.16022   0.26268   0.00000  Uiso   1.00
C107   C     0.14694   0.12023   0.71723   0.00000  Uiso   1.00
C108   C     0.33979   0.36650   0.26270   0.00000  Uiso   1.00
C109   C     0.36650   0.33979   0.26270   0.00000  Uiso   1.00
C110   C     0.46881   0.23910   0.54181   0.00000  Uiso   1.00
C111   C     0.12023   0.14694   0.71723   0.00000  Uiso   1.00
C112   C     0.33978   0.13351   0.26268   0.00000  Uiso   1.00
C113   C     0.16016   0.36655   0.73710   0.00000  Uiso   1.00
C114   C     0.13350   0.16022   0.26270   0.00000  Uiso   1.00
C115   C     0.37977   0.35306   0.71723   0.00000  Uiso   1.00
C116   C     0.16022   0.36649   0.26268   0.00000  Uiso   1.00
C117   C     0.33984   0.13345   0.73710   0.00000  Uiso   1.00
C118   C     0.09812   0.34812   0.25000   0.00000  Uiso   1.00
C119   C     0.40188   0.15188   0.75000   0.00000  Uiso   1.00
C120   C     0.15188   0.09812   0.25001   0.00000  Uiso   1.00
F121   F     0.10742   0.44441   0.22577   0.00000  Uiso   1.00
F122   F     0.39258   0.44441   0.22577   0.00000  Uiso   1.00
F123   F     0.05569   0.39249   0.77465   0.00000  Uiso   1.00
F124   F     0.44442   0.10742   0.22578   0.00000  Uiso   1.00
F125   F     0.36549   0.41731   0.81524   0.00000  Uiso   1.00
F126   F     0.10742   0.05558   0.22578   0.00000  Uiso   1.00
F127   F     0.44431   0.10752   0.77465   0.00000  Uiso   1.00
F128   F     0.05559   0.39258   0.22577   0.00000  Uiso   1.00
F129   F     0.35752   0.19430   0.72534   0.00000  Uiso   1.00
F130   F     0.14258   0.30558   0.27422   0.00000  Uiso   1.00
F131   F     0.33268   0.38450   0.68477   0.00000  Uiso   1.00
F132   F     0.39248   0.05569   0.77465   0.00000  Uiso   1.00
F133   F     0.19441   0.14258   0.27424   0.00000  Uiso   1.00
F134   F     0.14248   0.30570   0.72534   0.00000  Uiso   1.00
F135   F     0.35742   0.19442   0.27421   0.00000  Uiso   1.00
F136   F     0.16732   0.11550   0.68477   0.00000  Uiso   1.00
F137   F     0.30559   0.35743   0.27425   0.00000  Uiso   1.00
F138   F     0.35743   0.30559   0.27425   0.00000  Uiso   1.00
F139   F     0.11550   0.16732   0.68477   0.00000  Uiso   1.00
F140   F     0.30558   0.14258   0.27421   0.00000  Uiso   1.00
F141   F     0.19430   0.35752   0.72534   0.00000  Uiso   1.00
F142   F     0.14258   0.19441   0.27424   0.00000  Uiso   1.00
F143   F     0.05558   0.10742   0.22578   0.00000  Uiso   1.00
F144   F     0.38450   0.33268   0.68477   0.00000  Uiso   1.00
F145   F     0.19442   0.35742   0.27422   0.00000  Uiso   1.00
F146   F     0.30570   0.14248   0.72534   0.00000  Uiso   1.00
F147   F     0.41731   0.36549   0.81525   0.00000  Uiso   1.00
F148   F     0.39258   0.05558   0.22578   0.00000  Uiso   1.00
F149   F     0.10751   0.44431   0.77465   0.00000  Uiso   1.00
F150   F     0.44441   0.39258   0.22577   0.00000  Uiso   1.00
F151   F     0.08269   0.13451   0.81525   0.00000  Uiso   1.00
F152   F     0.13451   0.08269   0.81525   0.00000  Uiso   1.00
H153   H     0.19461   0.47996   0.02673   0.00000  Uiso   1.00
H154   H     0.05532   0.22978   0.47326   0.00000  Uiso   1.00
H155   H     0.22994   0.44462   0.52674   0.00000  Uiso   1.00
H156   H     0.22978   0.05532   0.47326   0.00000  Uiso   1.00
H157   H     0.05538   0.27006   0.52674   0.00000  Uiso   1.00
H158   H     0.44468   0.27022   0.47326   0.00000  Uiso   1.00
H159   H     0.27006   0.05538   0.52674   0.00000  Uiso   1.00
H160   H     0.27022   0.44468   0.47326   0.00000  Uiso   1.00
H161   H     0.19438   0.48076   0.09727   0.00000  Uiso   1.00
H162   H     0.30553   0.48051   0.90272   0.00000  Uiso   1.00
H163   H     0.48076   0.19438   0.09727   0.00000  Uiso   1.00
H164   H     0.30530   0.47971   0.97326   0.00000  Uiso   1.00
H165   H     0.48051   0.30553   0.90272   0.00000  Uiso   1.00
H166   H     0.30562   0.01924   0.09727   0.00000  Uiso   1.00
H167   H     0.19447   0.01949   0.90272   0.00000  Uiso   1.00
H168   H     0.01924   0.30562   0.09727   0.00000  Uiso   1.00
H169   H     0.01949   0.19447   0.90272   0.00000  Uiso   1.00
H170   H     0.44438   0.23074   0.59727   0.00000  Uiso   1.00
H171   H     0.05556   0.23058   0.40273   0.00000  Uiso   1.00
H172   H     0.23074   0.44438   0.59727   0.00000  Uiso   1.00
H173   H     0.23058   0.05556   0.40273   0.00000  Uiso   1.00
H174   H     0.05562   0.26926   0.59727   0.00000  Uiso   1.00
H175   H     0.47996   0.19461   0.02673   0.00000  Uiso   1.00
H176   H     0.44444   0.26942   0.40273   0.00000  Uiso   1.00
H177   H     0.26926   0.05562   0.59727   0.00000  Uiso   1.00
H178   H     0.26942   0.44444   0.40273   0.00000  Uiso   1.00
H179   H     0.47971   0.30530   0.97326   0.00000  Uiso   1.00
H180   H     0.30539   0.02004   0.02673   0.00000  Uiso   1.00
H181   H     0.19470   0.02029   0.97326   0.00000  Uiso   1.00
H182   H     0.02004   0.30539   0.02673   0.00000  Uiso   1.00
H183   H     0.02029   0.19470   0.97326   0.00000  Uiso   1.00
H184   H     0.44462   0.22994   0.52674   0.00000  Uiso   1.00
O185   O     0.25000  -0.00000   0.25000   0.00000  Uiso   1.00
O186   O     0.25000   0.46964   0.66317   0.00000  Uiso   1.00
O187   O     0.46964   0.25000   0.33683   0.00000  Uiso   1.00
O188   O     0.03036   0.25000   0.66317   0.00000  Uiso   1.00
O189   O     0.00000   0.21964   0.83683   0.00000  Uiso   1.00
O190   O     0.00000   0.28036   0.16317   0.00000  Uiso   1.00
O191   O     0.28036  -0.00000   0.83683   0.00000  Uiso   1.00
O192   O     0.21964  -0.00000   0.16317   0.00000  Uiso   1.00
O193   O     0.00000   0.28036   0.83683   0.00000  Uiso   1.00
O194   O     0.00000   0.21964   0.16317   0.00000  Uiso   1.00
O195   O     0.21964  -0.00000   0.83683   0.00000  Uiso   1.00
O196   O     0.25000  -0.00000   0.75000   0.00000  Uiso   1.00
O197   O     0.28036  -0.00000   0.16317   0.00000  Uiso   1.00
O198   O     0.20726   0.07307   0.27282   0.00000  Uiso   1.00
O199   O     0.29275   0.42693   0.72718   0.00000  Uiso   1.00
O200   O     0.42693   0.20725   0.27282   0.00000  Uiso   1.00
O201   O     0.07307   0.29274   0.72718   0.00000  Uiso   1.00
O202   O     0.29275   0.42693   0.27282   0.00000  Uiso   1.00
O203   O     0.20726   0.07307   0.72718   0.00000  Uiso   1.00
O204   O     0.07307   0.29274   0.27282   0.00000  Uiso   1.00
O205   O     0.42693   0.20725   0.72718   0.00000  Uiso   1.00
O206   O     0.20726   0.42693   0.72718   0.00000  Uiso   1.00
O207   O     0.00000   0.25000   0.25000   0.00000  Uiso   1.00
O208   O     0.29275   0.07307   0.27282   0.00000  Uiso   1.00
O209   O     0.42693   0.29274   0.72718   0.00000  Uiso   1.00
O210   O     0.07307   0.20725   0.27282   0.00000  Uiso   1.00
O211   O     0.29275   0.07307   0.72718   0.00000  Uiso   1.00
O212   O     0.20726   0.42693   0.27282   0.00000  Uiso   1.00
O213   O     0.07307   0.20725   0.72718   0.00000  Uiso   1.00
O214   O     0.42693   0.29274   0.27282   0.00000  Uiso   1.00
O215   O     0.45726   0.32307   0.77282   0.00000  Uiso   1.00
O216   O     0.04275   0.17693   0.22718   0.00000  Uiso   1.00
O217   O     0.17693   0.45725   0.77282   0.00000  Uiso   1.00
O218   O     0.00000   0.25000   0.75000   0.00000  Uiso   1.00
O219   O     0.32307   0.04274   0.22718   0.00000  Uiso   1.00
O220   O     0.04275   0.17693   0.77282   0.00000  Uiso   1.00
O221   O     0.45726   0.32307   0.22718   0.00000  Uiso   1.00
O222   O     0.32307   0.04274   0.77282   0.00000  Uiso   1.00
O223   O     0.17693   0.45725   0.22718   0.00000  Uiso   1.00
O224   O     0.45726   0.17693   0.22718   0.00000  Uiso   1.00
O225   O     0.04275   0.32307   0.77282   0.00000  Uiso   1.00
O226   O     0.17693   0.04274   0.22718   0.00000  Uiso   1.00
O227   O     0.32307   0.45725   0.77282   0.00000  Uiso   1.00
O228   O     0.04275   0.32307   0.22718   0.00000  Uiso   1.00
O229   O     0.25000   0.46964   0.33683   0.00000  Uiso   1.00
O230   O     0.45726   0.17693   0.77282   0.00000  Uiso   1.00
O231   O     0.32307   0.45725   0.22718   0.00000  Uiso   1.00
O232   O     0.17693   0.04274   0.77282   0.00000  Uiso   1.00
O233   O     0.25000   0.03036   0.66317   0.00000  Uiso   1.00
O234   O     0.03036   0.25000   0.33683   0.00000  Uiso   1.00
O235   O     0.46964   0.25000   0.66317   0.00000  Uiso   1.00
O236   O     0.25000   0.03036   0.33683   0.00000  Uiso   1.00
Zn237  Zn    0.20660  -0.00000   0.21760   0.00000  Uiso   1.00
Zn238  Zn    0.04340   0.25000   0.28240   0.00000  Uiso   1.00
Zn239  Zn    0.25000   0.45660   0.71760   0.00000  Uiso   1.00
Zn240  Zn    0.25000   0.04340   0.28240   0.00000  Uiso   1.00
Zn241  Zn    0.04340   0.25000   0.71760   0.00000  Uiso   1.00
Zn242  Zn    0.45660   0.25000   0.28240   0.00000  Uiso   1.00
Zn243  Zn    0.25000   0.04340   0.71760   0.00000  Uiso   1.00
Zn244  Zn    0.25000   0.45660   0.28240   0.00000  Uiso   1.00
Zn245  Zn    0.29340  -0.00000   0.78240   0.00000  Uiso   1.00
Zn246  Zn    0.00000   0.20660   0.21760   0.00000  Uiso   1.00
Zn247  Zn    0.00000   0.29340   0.78240   0.00000  Uiso   1.00
Zn248  Zn    0.29340  -0.00000   0.21760   0.00000  Uiso   1.00
Zn249  Zn    0.20660  -0.00000   0.78240   0.00000  Uiso   1.00
Zn250  Zn    0.00000   0.29340   0.21760   0.00000  Uiso   1.00
Zn251  Zn    0.00000   0.20660   0.78240   0.00000  Uiso   1.00
Zn252  Zn    0.45660   0.25000   0.71760   0.00000  Uiso   1.00
C253   C     0.71881   0.48911   0.04181   0.00000  Uiso   1.00
C254   C     0.53116   0.23901   0.45819   0.00000  Uiso   1.00
C255   C     0.84811   0.40188   0.75001   0.00000  Uiso   1.00
C256   C     0.90188   0.15188   0.25000   0.00000  Uiso   1.00
C257   C     0.59812   0.34812   0.75000   0.00000  Uiso   1.00
C258   C     0.84812   0.40188   0.25001   0.00000  Uiso   1.00
C259   C     0.65189   0.09812   0.75001   0.00000  Uiso   1.00
C260   C     0.59812   0.15189   0.75001   0.00000  Uiso   1.00
C261   C     0.90188   0.34812   0.25001   0.00000  Uiso   1.00
C262   C     0.65188   0.40188   0.75000   0.00000  Uiso   1.00
C263   C     0.84812   0.09812   0.25000   0.00000  Uiso   1.00
C264   C     0.90188   0.34811   0.75001   0.00000  Uiso   1.00
C265   C     0.73910   0.46881   0.54181   0.00000  Uiso   1.00
C266   C     0.59812   0.15188   0.25001   0.00000  Uiso   1.00
C267   C     0.84812   0.09812   0.75000   0.00000  Uiso   1.00
C268   C     0.65188   0.40188   0.25000   0.00000  Uiso   1.00
C269   C     0.75000  -0.00000   0.10245   0.00000  Uiso   1.00
C270   C     0.75000  -0.00000   0.89754   0.00000  Uiso   1.00
C271   C     0.50000   0.25000   0.10245   0.00000  Uiso   1.00
C272   C     0.50000   0.25000   0.89754   0.00000  Uiso   1.00
C273   C     0.50000   0.25000   0.60246   0.00000  Uiso   1.00
C274   C     0.50000   0.25000   0.39754   0.00000  Uiso   1.00
C275   C     0.75000  -0.00000   0.60246   0.00000  Uiso   1.00
C276   C     0.73901   0.03116   0.45819   0.00000  Uiso   1.00
C277   C     0.75000  -0.00000   0.39754   0.00000  Uiso   1.00
C278   C     0.53119   0.26090   0.54181   0.00000  Uiso   1.00
C279   C     0.96884   0.26099   0.45819   0.00000  Uiso   1.00
C280   C     0.76090   0.03119   0.54181   0.00000  Uiso   1.00
C281   C     0.76099   0.46884   0.45819   0.00000  Uiso   1.00
C282   C     0.71872   0.48937   0.08208   0.00000  Uiso   1.00
C283   C     0.78123   0.48923   0.91791   0.00000  Uiso   1.00
C284   C     0.98937   0.21872   0.08208   0.00000  Uiso   1.00
C285   C     0.78115   0.48897   0.95819   0.00000  Uiso   1.00
C286   C     0.98923   0.28123   0.91791   0.00000  Uiso   1.00
C287   C     0.78128   0.01063   0.08208   0.00000  Uiso   1.00
C288   C     0.71877   0.01077   0.91791   0.00000  Uiso   1.00
C289   C     0.51063   0.28128   0.08208   0.00000  Uiso   1.00
C290   C     0.51077   0.21877   0.91791   0.00000  Uiso   1.00
C291   C     0.96873   0.23936   0.58209   0.00000  Uiso   1.00
C292   C     0.53124   0.23927   0.41791   0.00000  Uiso   1.00
C293   C     0.73936   0.46873   0.58209   0.00000  Uiso   1.00
C294   C     0.73927   0.03124   0.41791   0.00000  Uiso   1.00
C295   C     0.53127   0.26064   0.58209   0.00000  Uiso   1.00
C296   C     0.98911   0.21881   0.04181   0.00000  Uiso   1.00
C297   C     0.96876   0.26073   0.41791   0.00000  Uiso   1.00
C298   C     0.76064   0.03127   0.58209   0.00000  Uiso   1.00
C299   C     0.76073   0.46876   0.41791   0.00000  Uiso   1.00
C300   C     0.75000  -0.00000   0.02131   0.00000  Uiso   1.00
C301   C     0.75000  -0.00000   0.97868   0.00000  Uiso   1.00
C302   C     0.50000   0.25000   0.02131   0.00000  Uiso   1.00
C303   C     0.50000   0.25000   0.97868   0.00000  Uiso   1.00
C304   C     0.50000   0.25000   0.52132   0.00000  Uiso   1.00
C305   C     0.50000   0.25000   0.47868   0.00000  Uiso   1.00
C306   C     0.75000  -0.00000   0.52132   0.00000  Uiso   1.00
C307   C     0.98897   0.28114   0.95819   0.00000  Uiso   1.00
C308   C     0.75000  -0.00000   0.47868   0.00000  Uiso   1.00
C309   C     0.75000  -0.00000   0.35520   0.00000  Uiso   1.00
C310   C     0.75000  -0.00000   0.64481   0.00000  Uiso   1.00
C311   C     0.50000   0.25000   0.35520   0.00000  Uiso   1.00
C312   C     0.50000   0.25000   0.64481   0.00000  Uiso   1.00
C313   C     0.50000   0.25000   0.85519   0.00000  Uiso   1.00
C314   C     0.50000   0.25000   0.14480   0.00000  Uiso   1.00
C315   C     0.75000  -0.00000   0.85519   0.00000  Uiso   1.00
C316   C     0.75000  -0.00000   0.14480   0.00000  Uiso   1.00
C317   C     0.67994   0.07006   0.25000   0.00000  Uiso   1.00
C318   C     0.78119   0.01089   0.04181   0.00000  Uiso   1.00
C319   C     0.82006   0.42994   0.75000   0.00000  Uiso   1.00
C320   C     0.92994   0.17994   0.25000   0.00000  Uiso   1.00
C321   C     0.57006   0.32006   0.75000   0.00000  Uiso   1.00
C322   C     0.82006   0.42994   0.25000   0.00000  Uiso   1.00
C323   C     0.67994   0.07006   0.75000   0.00000  Uiso   1.00
C324   C     0.57006   0.32006   0.25000   0.00000  Uiso   1.00
C325   C     0.92994   0.17994   0.75000   0.00000  Uiso   1.00
C326   C     0.67994   0.42994   0.75000   0.00000  Uiso   1.00
C327   C     0.82006   0.07006   0.25000   0.00000  Uiso   1.00
C328   C     0.92994   0.32006   0.75000   0.00000  Uiso   1.00
C329   C     0.71886   0.01103   0.95819   0.00000  Uiso   1.00
C330   C     0.57006   0.17994   0.25000   0.00000  Uiso   1.00
C331   C     0.82006   0.07006   0.75000   0.00000  Uiso   1.00
C332   C     0.67994   0.42994   0.25000   0.00000  Uiso   1.00
C333   C     0.57006   0.17994   0.75000   0.00000  Uiso   1.00
C334   C     0.92994   0.32006   0.25000   0.00000  Uiso   1.00
C335   C     0.61650   0.41022   0.23731   0.00000  Uiso   1.00
C336   C     0.88345   0.08984   0.76289   0.00000  Uiso   1.00
C337   C     0.58978   0.11649   0.23732   0.00000  Uiso   1.00
C338   C     0.89693   0.37022   0.78279   0.00000  Uiso   1.00
C339   C     0.88350   0.08978   0.23731   0.00000  Uiso   1.00
C340   C     0.51089   0.28119   0.04181   0.00000  Uiso   1.00
C341   C     0.61655   0.41017   0.76289   0.00000  Uiso   1.00
C342   C     0.91022   0.38350   0.23731   0.00000  Uiso   1.00
C343   C     0.60307   0.12978   0.78279   0.00000  Uiso   1.00
C344   C     0.62978   0.10307   0.78279   0.00000  Uiso   1.00
C345   C     0.88350   0.41022   0.23731   0.00000  Uiso   1.00
C346   C     0.58983   0.38345   0.76289   0.00000  Uiso   1.00
C347   C     0.91022   0.11650   0.23731   0.00000  Uiso   1.00
C348   C     0.87022   0.39693   0.78279   0.00000  Uiso   1.00
C349   C     0.61650   0.08978   0.23732   0.00000  Uiso   1.00
C350   C     0.91016   0.11655   0.76289   0.00000  Uiso   1.00
C351   C     0.51103   0.21885   0.95819   0.00000  Uiso   1.00
C352   C     0.58978   0.38350   0.23731   0.00000  Uiso   1.00
C353   C     0.86655   0.16016   0.73710   0.00000  Uiso   1.00
C354   C     0.63351   0.33978   0.26268   0.00000  Uiso   1.00
C355   C     0.85306   0.37977   0.71723   0.00000  Uiso   1.00
C356   C     0.66022   0.13350   0.26270   0.00000  Uiso   1.00
C357   C     0.63345   0.33984   0.73710   0.00000  Uiso   1.00
C358   C     0.86649   0.16022   0.26268   0.00000  Uiso   1.00
C359   C     0.64694   0.12023   0.71723   0.00000  Uiso   1.00
C360   C     0.83979   0.36650   0.26270   0.00000  Uiso   1.00
C361   C     0.86650   0.33979   0.26270   0.00000  Uiso   1.00
C362   C     0.96881   0.23910   0.54181   0.00000  Uiso   1.00
C363   C     0.62023   0.14694   0.71723   0.00000  Uiso   1.00
C364   C     0.83978   0.13351   0.26268   0.00000  Uiso   1.00
C365   C     0.66016   0.36655   0.73710   0.00000  Uiso   1.00
C366   C     0.63350   0.16022   0.26270   0.00000  Uiso   1.00
C367   C     0.87977   0.35306   0.71723   0.00000  Uiso   1.00
C368   C     0.66022   0.36649   0.26268   0.00000  Uiso   1.00
C369   C     0.83984   0.13345   0.73710   0.00000  Uiso   1.00
C370   C     0.59812   0.34812   0.25000   0.00000  Uiso   1.00
C371   C     0.90188   0.15188   0.75000   0.00000  Uiso   1.00
C372   C     0.65188   0.09812   0.25001   0.00000  Uiso   1.00
F373   F     0.60742   0.44441   0.22577   0.00000  Uiso   1.00
F374   F     0.89258   0.44441   0.22577   0.00000  Uiso   1.00
F375   F     0.55569   0.39249   0.77465   0.00000  Uiso   1.00
F376   F     0.94442   0.10742   0.22578   0.00000  Uiso   1.00
F377   F     0.86549   0.41731   0.81524   0.00000  Uiso   1.00
F378   F     0.60742   0.05558   0.22578   0.00000  Uiso   1.00
F379   F     0.94431   0.10752   0.77465   0.00000  Uiso   1.00
F380   F     0.55559   0.39258   0.22577   0.00000  Uiso   1.00
F381   F     0.85752   0.19430   0.72534   0.00000  Uiso   1.00
F382   F     0.64258   0.30558   0.27422   0.00000  Uiso   1.00
F383   F     0.83268   0.38450   0.68477   0.00000  Uiso   1.00
F384   F     0.89248   0.05569   0.77465   0.00000  Uiso   1.00
F385   F     0.69441   0.14258   0.27424   0.00000  Uiso   1.00
F386   F     0.64248   0.30570   0.72534   0.00000  Uiso   1.00
F387   F     0.85742   0.19442   0.27421   0.00000  Uiso   1.00
F388   F     0.66732   0.11550   0.68477   0.00000  Uiso   1.00
F389   F     0.80559   0.35743   0.27425   0.00000  Uiso   1.00
F390   F     0.85743   0.30559   0.27425   0.00000  Uiso   1.00
F391   F     0.61550   0.16732   0.68477   0.00000  Uiso   1.00
F392   F     0.80558   0.14258   0.27421   0.00000  Uiso   1.00
F393   F     0.69430   0.35752   0.72534   0.00000  Uiso   1.00
F394   F     0.64258   0.19441   0.27424   0.00000  Uiso   1.00
F395   F     0.55558   0.10742   0.22578   0.00000  Uiso   1.00
F396   F     0.88450   0.33268   0.68477   0.00000  Uiso   1.00
F397   F     0.69442   0.35742   0.27422   0.00000  Uiso   1.00
F398   F     0.80570   0.14248   0.72534   0.00000  Uiso   1.00
F399   F     0.91731   0.36549   0.81525   0.00000  Uiso   1.00
F400   F     0.89258   0.05558   0.22578   0.00000  Uiso   1.00
F401   F     0.60751   0.44431   0.77465   0.00000  Uiso   1.00
F402   F     0.94441   0.39258   0.22577   0.00000  Uiso   1.00
F403   F     0.58269   0.13451   0.81525   0.00000  Uiso   1.00
F404   F     0.63451   0.08269   0.81525   0.00000  Uiso   1.00
H405   H     0.69461   0.47996   0.02673   0.00000  Uiso   1.00
H406   H     0.55532   0.22978   0.47326   0.00000  Uiso   1.00
H407   H     0.72994   0.44462   0.52674   0.00000  Uiso   1.00
H408   H     0.72978   0.05532   0.47326   0.00000  Uiso   1.00
H409   H     0.55538   0.27006   0.52674   0.00000  Uiso   1.00
H410   H     0.94468   0.27022   0.47326   0.00000  Uiso   1.00
H411   H     0.77006   0.05538   0.52674   0.00000  Uiso   1.00
H412   H     0.77022   0.44468   0.47326   0.00000  Uiso   1.00
H413   H     0.69438   0.48076   0.09727   0.00000  Uiso   1.00
H414   H     0.80553   0.48051   0.90272   0.00000  Uiso   1.00
H415   H     0.98076   0.19438   0.09727   0.00000  Uiso   1.00
H416   H     0.80530   0.47971   0.97326   0.00000  Uiso   1.00
H417   H     0.98051   0.30553   0.90272   0.00000  Uiso   1.00
H418   H     0.80562   0.01924   0.09727   0.00000  Uiso   1.00
H419   H     0.69447   0.01949   0.90272   0.00000  Uiso   1.00
H420   H     0.51924   0.30562   0.09727   0.00000  Uiso   1.00
H421   H     0.51949   0.19447   0.90272   0.00000  Uiso   1.00
H422   H     0.94438   0.23074   0.59727   0.00000  Uiso   1.00
H423   H     0.55556   0.23058   0.40273   0.00000  Uiso   1.00
H424   H     0.73074   0.44438   0.59727   0.00000  Uiso   1.00
H425   H     0.73058   0.05556   0.40273   0.00000  Uiso   1.00
H426   H     0.55562   0.26926   0.59727   0.00000  Uiso   1.00
H427   H     0.97996   0.19461   0.02673   0.00000  Uiso   1.00
H428   H     0.94444   0.26942   0.40273   0.00000  Uiso   1.00
H429   H     0.76926   0.05562   0.59727   0.00000  Uiso   1.00
H430   H     0.76942   0.44444   0.40273   0.00000  Uiso   1.00
H431   H     0.97971   0.30530   0.97326   0.00000  Uiso   1.00
H432   H     0.80539   0.02004   0.02673   0.00000  Uiso   1.00
H433   H     0.69470   0.02029   0.97326   0.00000  Uiso   1.00
H434   H     0.52004   0.30539   0.02673   0.00000  Uiso   1.00
H435   H     0.52029   0.19470   0.97326   0.00000  Uiso   1.00
H436   H     0.94462   0.22994   0.52674   0.00000  Uiso   1.00
O437   O     0.75000  -0.00000   0.25000   0.00000  Uiso   1.00
O438   O     0.75000   0.46964   0.66317   0.00000  Uiso   1.00
O439   O     0.96964   0.25000   0.33683   0.00000  Uiso   1.00
O440   O     0.53036   0.25000   0.66317   0.00000  Uiso   1.00
O441   O     0.50000   0.21964   0.83683   0.00000  Uiso   1.00
O442   O     0.50000   0.28036   0.16317   0.00000  Uiso   1.00
O443   O     0.78036  -0.00000   0.83683   0.00000  Uiso   1.00
O444   O     0.71964  -0.00000   0.16317   0.00000  Uiso   1.00
O445   O     0.50000   0.28036   0.83683   0.00000  Uiso   1.00
O446   O     0.50000   0.21964   0.16317   0.00000  Uiso   1.00
O447   O     0.71964  -0.00000   0.83683   0.00000  Uiso   1.00
O448   O     0.75000  -0.00000   0.75000   0.00000  Uiso   1.00
O449   O     0.78036  -0.00000   0.16317   0.00000  Uiso   1.00
O450   O     0.70726   0.07307   0.27282   0.00000  Uiso   1.00
O451   O     0.79275   0.42693   0.72718   0.00000  Uiso   1.00
O452   O     0.92693   0.20725   0.27282   0.00000  Uiso   1.00
O453   O     0.57307   0.29274   0.72718   0.00000  Uiso   1.00
O454   O     0.79275   0.42693   0.27282   0.00000  Uiso   1.00
O455   O     0.70726   0.07307   0.72718   0.00000  Uiso   1.00
O456   O     0.57307   0.29274   0.27282   0.00000  Uiso   1.00
O457   O     0.92693   0.20725   0.72718   0.00000  Uiso   1.00
O458   O     0.70726   0.42693   0.72718   0.00000  Uiso   1.00
O459   O     0.50000   0.25000   0.25000   0.00000  Uiso   1.00
O460   O     0.79275   0.07307   0.27282   0.00000  Uiso   1.00
O461   O     0.92693   0.29274   0.72718   0.00000  Uiso   1.00
O462   O     0.57307   0.20725   0.27282   0.00000  Uiso   1.00
O463   O     0.79275   0.07307   0.72718   0.00000  Uiso   1.00
O464   O     0.70726   0.42693   0.27282   0.00000  Uiso   1.00
O465   O     0.57307   0.20725   0.72718   0.00000  Uiso   1.00
O466   O     0.92693   0.29274   0.27282   0.00000  Uiso   1.00
O467   O     0.95726   0.32307   0.77282   0.00000  Uiso   1.00
O468   O     0.54275   0.17693   0.22718   0.00000  Uiso   1.00
O469   O     0.67693   0.45725   0.77282   0.00000  Uiso   1.00
O470   O     0.50000   0.25000   0.75000   0.00000  Uiso   1.00
O471   O     0.82307   0.04274   0.22718   0.00000  Uiso   1.00
O472   O     0.54275   0.17693   0.77282   0.00000  Uiso   1.00
O473   O     0.95726   0.32307   0.22718   0.00000  Uiso   1.00
O474   O     0.82307   0.04274   0.77282   0.00000  Uiso   1.00
O475   O     0.67693   0.45725   0.22718   0.00000  Uiso   1.00
O476   O     0.95726   0.17693   0.22718   0.00000  Uiso   1.00
O477   O     0.54275   0.32307   0.77282   0.00000  Uiso   1.00
O478   O     0.67693   0.04274   0.22718   0.00000  Uiso   1.00
O479   O     0.82307   0.45725   0.77282   0.00000  Uiso   1.00
O480   O     0.54275   0.32307   0.22718   0.00000  Uiso   1.00
O481   O     0.75000   0.46964   0.33683   0.00000  Uiso   1.00
O482   O     0.95726   0.17693   0.77282   0.00000  Uiso   1.00
O483   O     0.82307   0.45725   0.22718   0.00000  Uiso   1.00
O484   O     0.67693   0.04274   0.77282   0.00000  Uiso   1.00
O485   O     0.75000   0.03036   0.66317   0.00000  Uiso   1.00
O486   O     0.53036   0.25000   0.33683   0.00000  Uiso   1.00
O487   O     0.96964   0.25000   0.66317   0.00000  Uiso   1.00
O488   O     0.75000   0.03036   0.33683   0.00000  Uiso   1.00
Zn489  Zn    0.70660  -0.00000   0.21760   0.00000  Uiso   1.00
Zn490  Zn    0.54340   0.25000   0.28240   0.00000  Uiso   1.00
Zn491  Zn    0.75000   0.45660   0.71760   0.00000  Uiso   1.00
Zn492  Zn    0.75000   0.04340   0.28240   0.00000  Uiso   1.00
Zn493  Zn    0.54340   0.25000   0.71760   0.00000  Uiso   1.00
Zn494  Zn    0.95660   0.25000   0.28240   0.00000  Uiso   1.00
Zn495  Zn    0.75000   0.04340   0.71760   0.00000  Uiso   1.00
Zn496  Zn    0.75000   0.45660   0.28240   0.00000  Uiso   1.00
Zn497  Zn    0.79340  -0.00000   0.78240   0.00000  Uiso   1.00
Zn498  Zn    0.50000   0.20660   0.21760   0.00000  Uiso   1.00
Zn499  Zn    0.50000   0.29340   0.78240   0.00000  Uiso   1.00
Zn500  Zn    0.79340  -0.00000   0.21760   0.00000  Uiso   1.00
Zn501  Zn    0.70660  -0.00000   0.78240   0.00000  Uiso   1.00
Zn502  Zn    0.50000   0.29340   0.21760   0.00000  Uiso   1.00
Zn503  Zn    0.50000   0.20660   0.78240   0.00000  Uiso   1.00
Zn504  Zn    0.95660   0.25000   0.71760   0.00000  Uiso   1.00
C505   C     0.21881   0.98911   0.04181   0.00000  Uiso   1.00
C506   C     0.03116   0.73901   0.45819   0.00000  Uiso   1.00
C507   C     0.34811   0.90188   0.75001   0.00000  Uiso   1.00
C508   C     0.40188   0.65188   0.25000   0.00000  Uiso   1.00
C509   C     0.09812   0.84812   0.75000   0.00000  Uiso   1.00
C510   C     0.34812   0.90188   0.25001   0.00000  Uiso   1.00
C511   C     0.15189   0.59812   0.75001   0.00000  Uiso   1.00
C512   C     0.09812   0.65189   0.75001   0.00000  Uiso   1.00
C513   C     0.40188   0.84812   0.25001   0.00000  Uiso   1.00
C514   C     0.15188   0.90188   0.75000   0.00000  Uiso   1.00
C515   C     0.34812   0.59812   0.25000   0.00000  Uiso   1.00
C516   C     0.40188   0.84811   0.75001   0.00000  Uiso   1.00
C517   C     0.23910   0.96881   0.54181   0.00000  Uiso   1.00
C518   C     0.09812   0.65188   0.25001   0.00000  Uiso   1.00
C519   C     0.34812   0.59812   0.75000   0.00000  Uiso   1.00
C520   C     0.15188   0.90188   0.25000   0.00000  Uiso   1.00
C521   C     0.25000   0.50000   0.10245   0.00000  Uiso   1.00
C522   C     0.25000   0.50000   0.89754   0.00000  Uiso   1.00
C523   C     0.00000   0.75000   0.10245   0.00000  Uiso   1.00
C524   C     0.00000   0.75000   0.89754   0.00000  Uiso   1.00
C525   C     0.00000   0.75000   0.60246   0.00000  Uiso   1.00
C526   C     0.00000   0.75000   0.39754   0.00000  Uiso   1.00
C527   C     0.25000   0.50000   0.60246   0.00000  Uiso   1.00
C528   C     0.23901   0.53116   0.45819   0.00000  Uiso   1.00
C529   C     0.25000   0.50000   0.39754   0.00000  Uiso   1.00
C530   C     0.03119   0.76090   0.54181   0.00000  Uiso   1.00
C531   C     0.46884   0.76099   0.45819   0.00000  Uiso   1.00
C532   C     0.26090   0.53119   0.54181   0.00000  Uiso   1.00
C533   C     0.26099   0.96884   0.45819   0.00000  Uiso   1.00
C534   C     0.21872   0.98937   0.08208   0.00000  Uiso   1.00
C535   C     0.28123   0.98923   0.91791   0.00000  Uiso   1.00
C536   C     0.48937   0.71872   0.08208   0.00000  Uiso   1.00
C537   C     0.28115   0.98897   0.95819   0.00000  Uiso   1.00
C538   C     0.48923   0.78123   0.91791   0.00000  Uiso   1.00
C539   C     0.28128   0.51063   0.08208   0.00000  Uiso   1.00
C540   C     0.21877   0.51077   0.91791   0.00000  Uiso   1.00
C541   C     0.01063   0.78128   0.08208   0.00000  Uiso   1.00
C542   C     0.01077   0.71877   0.91791   0.00000  Uiso   1.00
C543   C     0.46873   0.73936   0.58209   0.00000  Uiso   1.00
C544   C     0.03124   0.73927   0.41791   0.00000  Uiso   1.00
C545   C     0.23936   0.96873   0.58209   0.00000  Uiso   1.00
C546   C     0.23927   0.53124   0.41791   0.00000  Uiso   1.00
C547   C     0.03127   0.76064   0.58209   0.00000  Uiso   1.00
C548   C     0.48911   0.71881   0.04181   0.00000  Uiso   1.00
C549   C     0.46876   0.76073   0.41791   0.00000  Uiso   1.00
C550   C     0.26064   0.53127   0.58209   0.00000  Uiso   1.00
C551   C     0.26073   0.96876   0.41791   0.00000  Uiso   1.00
C552   C     0.25000   0.50000   0.02131   0.00000  Uiso   1.00
C553   C     0.25000   0.50000   0.97868   0.00000  Uiso   1.00
C554   C     0.00000   0.75000   0.02131   0.00000  Uiso   1.00
C555   C     0.00000   0.75000   0.97868   0.00000  Uiso   1.00
C556   C     0.00000   0.75000   0.52132   0.00000  Uiso   1.00
C557   C     0.00000   0.75000   0.47868   0.00000  Uiso   1.00
C558   C     0.25000   0.50000   0.52132   0.00000  Uiso   1.00
C559   C     0.48897   0.78114   0.95819   0.00000  Uiso   1.00
C560   C     0.25000   0.50000   0.47868   0.00000  Uiso   1.00
C561   C     0.25000   0.50000   0.35520   0.00000  Uiso   1.00
C562   C     0.25000   0.50000   0.64481   0.00000  Uiso   1.00
C563   C     0.00000   0.75000   0.35520   0.00000  Uiso   1.00
C564   C     0.00000   0.75000   0.64481   0.00000  Uiso   1.00
C565   C     0.00000   0.75000   0.85519   0.00000  Uiso   1.00
C566   C     0.00000   0.75000   0.14480   0.00000  Uiso   1.00
C567   C     0.25000   0.50000   0.85519   0.00000  Uiso   1.00
C568   C     0.25000   0.50000   0.14480   0.00000  Uiso   1.00
C569   C     0.17994   0.57006   0.25000   0.00000  Uiso   1.00
C570   C     0.28119   0.51089   0.04181   0.00000  Uiso   1.00
C571   C     0.32006   0.92994   0.75000   0.00000  Uiso   1.00
C572   C     0.42994   0.67994   0.25000   0.00000  Uiso   1.00
C573   C     0.07006   0.82006   0.75000   0.00000  Uiso   1.00
C574   C     0.32006   0.92994   0.25000   0.00000  Uiso   1.00
C575   C     0.17994   0.57006   0.75000   0.00000  Uiso   1.00
C576   C     0.07006   0.82006   0.25000   0.00000  Uiso   1.00
C577   C     0.42994   0.67994   0.75000   0.00000  Uiso   1.00
C578   C     0.17994   0.92994   0.75000   0.00000  Uiso   1.00
C579   C     0.32006   0.57006   0.25000   0.00000  Uiso   1.00
C580   C     0.42994   0.82006   0.75000   0.00000  Uiso   1.00
C581   C     0.21886   0.51103   0.95819   0.00000  Uiso   1.00
C582   C     0.07006   0.67994   0.25000   0.00000  Uiso   1.00
C583   C     0.32006   0.57006   0.75000   0.00000  Uiso   1.00
C584   C     0.17994   0.92994   0.25000   0.00000  Uiso   1.00
C585   C     0.07006   0.67994   0.75000   0.00000  Uiso   1.00
C586   C     0.42994   0.82006   0.25000   0.00000  Uiso   1.00
C587   C     0.11650   0.91022   0.23731   0.00000  Uiso   1.00
C588   C     0.38345   0.58984   0.76289   0.00000  Uiso   1.00
C589   C     0.08978   0.61649   0.23732   0.00000  Uiso   1.00
C590   C     0.39693   0.87022   0.78279   0.00000  Uiso   1.00
C591   C     0.38350   0.58978   0.23731   0.00000  Uiso   1.00
C592   C     0.01089   0.78119   0.04181   0.00000  Uiso   1.00
C593   C     0.11655   0.91017   0.76289   0.00000  Uiso   1.00
C594   C     0.41022   0.88350   0.23731   0.00000  Uiso   1.00
C595   C     0.10307   0.62978   0.78279   0.00000  Uiso   1.00
C596   C     0.12978   0.60307   0.78279   0.00000  Uiso   1.00
C597   C     0.38350   0.91022   0.23731   0.00000  Uiso   1.00
C598   C     0.08983   0.88345   0.76289   0.00000  Uiso   1.00
C599   C     0.41022   0.61650   0.23731   0.00000  Uiso   1.00
C600   C     0.37022   0.89693   0.78279   0.00000  Uiso   1.00
C601   C     0.11650   0.58978   0.23732   0.00000  Uiso   1.00
C602   C     0.41016   0.61655   0.76289   0.00000  Uiso   1.00
C603   C     0.01103   0.71885   0.95819   0.00000  Uiso   1.00
C604   C     0.08978   0.88350   0.23731   0.00000  Uiso   1.00
C605   C     0.36655   0.66016   0.73710   0.00000  Uiso   1.00
C606   C     0.13351   0.83978   0.26268   0.00000  Uiso   1.00
C607   C     0.35306   0.87977   0.71723   0.00000  Uiso   1.00
C608   C     0.16022   0.63350   0.26270   0.00000  Uiso   1.00
C609   C     0.13345   0.83984   0.73710   0.00000  Uiso   1.00
C610   C     0.36649   0.66022   0.26268   0.00000  Uiso   1.00
C611   C     0.14694   0.62023   0.71723   0.00000  Uiso   1.00
C612   C     0.33979   0.86650   0.26270   0.00000  Uiso   1.00
C613   C     0.36650   0.83979   0.26270   0.00000  Uiso   1.00
C614   C     0.46881   0.73910   0.54181   0.00000  Uiso   1.00
C615   C     0.12023   0.64694   0.71723   0.00000  Uiso   1.00
C616   C     0.33978   0.63351   0.26268   0.00000  Uiso   1.00
C617   C     0.16016   0.86655   0.73710   0.00000  Uiso   1.00
C618   C     0.13350   0.66022   0.26270   0.00000  Uiso   1.00
C619   C     0.37977   0.85306   0.71723   0.00000  Uiso   1.00
C620   C     0.16022   0.86649   0.26268   0.00000  Uiso   1.00
C621   C     0.33984   0.63345   0.73710   0.00000  Uiso   1.00
C622   C     0.09812   0.84812   0.25000   0.00000  Uiso   1.00
C623   C     0.40188   0.65188   0.75000   0.00000  Uiso   1.00
C624   C     0.15188   0.59812   0.25001   0.00000  Uiso   1.00
F625   F     0.10742   0.94441   0.22577   0.00000  Uiso   1.00
F626   F     0.39258   0.94441   0.22577   0.00000  Uiso   1.00
F627   F     0.05569   0.89249   0.77465   0.00000  Uiso   1.00
F628   F     0.44442   0.60742   0.22578   0.00000  Uiso   1.00
F629   F     0.36549   0.91731   0.81524   0.00000  Uiso   1.00
F630   F     0.10742   0.55558   0.22578   0.00000  Uiso   1.00
F631   F     0.44431   0.60752   0.77465   0.00000  Uiso   1.00
F632   F     0.05559   0.89258   0.22577   0.00000  Uiso   1.00
F633   F     0.35752   0.69430   0.72534   0.00000  Uiso   1.00
F634   F     0.14258   0.80558   0.27422   0.00000  Uiso   1.00
F635   F     0.33268   0.88450   0.68477   0.00000  Uiso   1.00
F636   F     0.39248   0.55569   0.77465   0.00000  Uiso   1.00
F637   F     0.19441   0.64258   0.27424   0.00000  Uiso   1.00
F638   F     0.14248   0.80570   0.72534   0.00000  Uiso   1.00
F639   F     0.35742   0.69442   0.27421   0.00000  Uiso   1.00
F640   F     0.16732   0.61550   0.68477   0.00000  Uiso   1.00
F641   F     0.30559   0.85743   0.27425   0.00000  Uiso   1.00
F642   F     0.35743   0.80559   0.27425   0.00000  Uiso   1.00
F643   F     0.11550   0.66732   0.68477   0.00000  Uiso   1.00
F644   F     0.30558   0.64258   0.27421   0.00000  Uiso   1.00
F645   F     0.19430   0.85752   0.72534   0.00000  Uiso   1.00
F646   F     0.14258   0.69441   0.27424   0.00000  Uiso   1.00
F647   F     0.05558   0.60742   0.22578   0.00000  Uiso   1.00
F648   F     0.38450   0.83268   0.68477   0.00000  Uiso   1.00
F649   F     0.19442   0.85742   0.27422   0.00000  Uiso   1.00
F650   F     0.30570   0.64248   0.72534   0.00000  Uiso   1.00
F651   F     0.41731   0.86549   0.81525   0.00000  Uiso   1.00
F652   F     0.39258   0.55558   0.22578   0.00000  Uiso   1.00
F653   F     0.10751   0.94431   0.77465   0.00000  Uiso   1.00
F654   F     0.44441   0.89258   0.22577   0.00000  Uiso   1.00
F655   F     0.08269   0.63451   0.81525   0.00000  Uiso   1.00
F656   F     0.13451   0.58269   0.81525   0.00000  Uiso   1.00
H657   H     0.19461   0.97996   0.02673   0.00000  Uiso   1.00
H658   H     0.05532   0.72978   0.47326   0.00000  Uiso   1.00
H659   H     0.22994   0.94462   0.52674   0.00000  Uiso   1.00
H660   H     0.22978   0.55532   0.47326   0.00000  Uiso   1.00
H661   H     0.05538   0.77006   0.52674   0.00000  Uiso   1.00
H662   H     0.44468   0.77022   0.47326   0.00000  Uiso   1.00
H663   H     0.27006   0.55538   0.52674   0.00000  Uiso   1.00
H664   H     0.27022   0.94468   0.47326   0.00000  Uiso   1.00
H665   H     0.19438   0.98076   0.09727   0.00000  Uiso   1.00
H666   H     0.30553   0.98051   0.90272   0.00000  Uiso   1.00
H667   H     0.48076   0.69438   0.09727   0.00000  Uiso   1.00
H668   H     0.30530   0.97971   0.97326   0.00000  Uiso   1.00
H669   H     0.48051   0.80553   0.90272   0.00000  Uiso   1.00
H670   H     0.30562   0.51924   0.09727   0.00000  Uiso   1.00
H671   H     0.19447   0.51949   0.90272   0.00000  Uiso   1.00
H672   H     0.01924   0.80562   0.09727   0.00000  Uiso   1.00
H673   H     0.01949   0.69447   0.90272   0.00000  Uiso   1.00
H674   H     0.44438   0.73074   0.59727   0.00000  Uiso   1.00
H675   H     0.05556   0.73058   0.40273   0.00000  Uiso   1.00
H676   H     0.23074   0.94438   0.59727   0.00000  Uiso   1.00
H677   H     0.23058   0.55556   0.40273   0.00000  Uiso   1.00
H678   H     0.05562   0.76926   0.59727   0.00000  Uiso   1.00
H679   H     0.47996   0.69461   0.02673   0.00000  Uiso   1.00
H680   H     0.44444   0.76942   0.40273   0.00000  Uiso   1.00
H681   H     0.26926   0.55562   0.59727   0.00000  Uiso   1.00
H682   H     0.26942   0.94444   0.40273   0.00000  Uiso   1.00
H683   H     0.47971   0.80530   0.97326   0.00000  Uiso   1.00
H684   H     0.30539   0.52004   0.02673   0.00000  Uiso   1.00
H685   H     0.19470   0.52029   0.97326   0.00000  Uiso   1.00
H686   H     0.02004   0.80539   0.02673   0.00000  Uiso   1.00
H687   H     0.02029   0.69470   0.97326   0.00000  Uiso   1.00
H688   H     0.44462   0.72994   0.52674   0.00000  Uiso   1.00
O689   O     0.25000   0.50000   0.25000   0.00000  Uiso   1.00
O690   O     0.25000   0.96964   0.66317   0.00000  Uiso   1.00
O691   O     0.46964   0.75000   0.33683   0.00000  Uiso   1.00
O692   O     0.03036   0.75000   0.66317   0.00000  Uiso   1.00
O693   O     0.00000   0.71964   0.83683   0.00000  Uiso   1.00
O694   O     0.00000   0.78036   0.16317   0.00000  Uiso   1.00
O695   O     0.28036   0.50000   0.83683   0.00000  Uiso   1.00
O696   O     0.21964   0.50000   0.16317   0.00000  Uiso   1.00
O697   O     0.00000   0.78036   0.83683   0.00000  Uiso   1.00
O698   O     0.00000   0.71964   0.16317   0.00000  Uiso   1.00
O699   O     0.21964   0.50000   0.83683   0.00000  Uiso   1.00
O700   O     0.25000   0.50000   0.75000   0.00000  Uiso   1.00
O701   O     0.28036   0.50000   0.16317   0.00000  Uiso   1.00
O702   O     0.20726   0.57307   0.27282   0.00000  Uiso   1.00
O703   O     0.29275   0.92693   0.72718   0.00000  Uiso   1.00
O704   O     0.42693   0.70725   0.27282   0.00000  Uiso   1.00
O705   O     0.07307   0.79274   0.72718   0.00000  Uiso   1.00
O706   O     0.29275   0.92693   0.27282   0.00000  Uiso   1.00
O707   O     0.20726   0.57307   0.72718   0.00000  Uiso   1.00
O708   O     0.07307   0.79274   0.27282   0.00000  Uiso   1.00
O709   O     0.42693   0.70725   0.72718   0.00000  Uiso   1.00
O710   O     0.20726   0.92693   0.72718   0.00000  Uiso   1.00
O711   O     0.00000   0.75000   0.25000   0.00000  Uiso   1.00
O712   O     0.29275   0.57307   0.27282   0.00000  Uiso   1.00
O713   O     0.42693   0.79274   0.72718   0.00000  Uiso   1.00
O714   O     0.07307   0.70725   0.27282   0.00000  Uiso   1.00
O715   O     0.29275   0.57307   0.72718   0.00000  Uiso   1.00
O716   O     0.20726   0.92693   0.27282   0.00000  Uiso   1.00
O717   O     0.07307   0.70725   0.72718   0.00000  Uiso   1.00
O718   O     0.42693   0.79274   0.27282   0.00000  Uiso   1.00
O719   O     0.45726   0.82307   0.77282   0.00000  Uiso   1.00
O720   O     0.04275   0.67693   0.22718   0.00000  Uiso   1.00
O721   O     0.17693   0.95725   0.77282   0.00000  Uiso   1.00
O722   O     0.00000   0.75000   0.75000   0.00000  Uiso   1.00
O723   O     0.32307   0.54274   0.22718   0.00000  Uiso   1.00
O724   O     0.04275   0.67693   0.77282   0.00000  Uiso   1.00
O725   O     0.45726   0.82307   0.22718   0.00000  Uiso   1.00
O726   O     0.32307   0.54274   0.77282   0.00000  Uiso   1.00
O727   O     0.17693   0.95725   0.22718   0.00000  Uiso   1.00
O728   O     0.45726   0.67693   0.22718   0.00000  Uiso   1.00
O729   O     0.04275   0.82307   0.77282   0.00000  Uiso   1.00
O730   O     0.17693   0.54274   0.22718   0.00000  Uiso   1.00
O731   O     0.32307   0.95725   0.77282   0.00000  Uiso   1.00
O732   O     0.04275   0.82307   0.22718   0.00000  Uiso   1.00
O733   O     0.25000   0.96964   0.33683   0.00000  Uiso   1.00
O734   O     0.45726   0.67693   0.77282   0.00000  Uiso   1.00
O735   O     0.32307   0.95725   0.22718   0.00000  Uiso   1.00
O736   O     0.17693   0.54274   0.77282   0.00000  Uiso   1.00
O737   O     0.25000   0.53036   0.66317   0.00000  Uiso   1.00
O738   O     0.03036   0.75000   0.33683   0.00000  Uiso   1.00
O739   O     0.46964   0.75000   0.66317   0.00000  Uiso   1.00
O740   O     0.25000   0.53036   0.33683   0.00000  Uiso   1.00
Zn741  Zn    0.20660   0.50000   0.21760   0.00000  Uiso   1.00
Zn742  Zn    0.04340   0.75000   0.28240   0.00000  Uiso   1.00
Zn743  Zn    0.25000   0.95660   0.71760   0.00000  Uiso   1.00
Zn744  Zn    0.25000   0.54340   0.28240   0.00000  Uiso   1.00
Zn745  Zn    0.04340   0.75000   0.71760   0.00000  Uiso   1.00
Zn746  Zn    0.45660   0.75000   0.28240   0.00000  Uiso   1.00
Zn747  Zn    0.25000   0.54340   0.71760   0.00000  Uiso   1.00
Zn748  Zn    0.25000   0.95660   0.28240   0.00000  Uiso   1.00
Zn749  Zn    0.29340   0.50000   0.78240   0.00000  Uiso   1.00
Zn750  Zn    0.00000   0.70660   0.21760   0.00000  Uiso   1.00
Zn751  Zn    0.00000   0.79340   0.78240   0.00000  Uiso   1.00
Zn752  Zn    0.29340   0.50000   0.21760   0.00000  Uiso   1.00
Zn753  Zn    0.20660   0.50000   0.78240   0.00000  Uiso   1.00
Zn754  Zn    0.00000   0.79340   0.21760   0.00000  Uiso   1.00
Zn755  Zn    0.00000   0.70660   0.78240   0.00000  Uiso   1.00
Zn756  Zn    0.45660   0.75000   0.71760   0.00000  Uiso   1.00
C757   C     0.71881   0.98911   0.04181   0.00000  Uiso   1.00
C758   C     0.53116   0.73901   0.45819   0.00000  Uiso   1.00
C759   C     0.84811   0.90188   0.75001   0.00000  Uiso   1.00
C760   C     0.90188   0.65188   0.25000   0.00000  Uiso   1.00
C761   C     0.59812   0.84812   0.75000   0.00000  Uiso   1.00
C762   C     0.84812   0.90188   0.25001   0.00000  Uiso   1.00
C763   C     0.65189   0.59812   0.75001   0.00000  Uiso   1.00
C764   C     0.59812   0.65189   0.75001   0.00000  Uiso   1.00
C765   C     0.90188   0.84812   0.25001   0.00000  Uiso   1.00
C766   C     0.65188   0.90188   0.75000   0.00000  Uiso   1.00
C767   C     0.84812   0.59812   0.25000   0.00000  Uiso   1.00
C768   C     0.90188   0.84811   0.75001   0.00000  Uiso   1.00
C769   C     0.73910   0.96881   0.54181   0.00000  Uiso   1.00
C770   C     0.59812   0.65188   0.25001   0.00000  Uiso   1.00
C771   C     0.84812   0.59812   0.75000   0.00000  Uiso   1.00
C772   C     0.65188   0.90188   0.25000   0.00000  Uiso   1.00
C773   C     0.75000   0.50000   0.10245   0.00000  Uiso   1.00
C774   C     0.75000   0.50000   0.89754   0.00000  Uiso   1.00
C775   C     0.50000   0.75000   0.10245   0.00000  Uiso   1.00
C776   C     0.50000   0.75000   0.89754   0.00000  Uiso   1.00
C777   C     0.50000   0.75000   0.60246   0.00000  Uiso   1.00
C778   C     0.50000   0.75000   0.39754   0.00000  Uiso   1.00
C779   C     0.75000   0.50000   0.60246   0.00000  Uiso   1.00
C780   C     0.73901   0.53116   0.45819   0.00000  Uiso   1.00
C781   C     0.75000   0.50000   0.39754   0.00000  Uiso   1.00
C782   C     0.53119   0.76090   0.54181   0.00000  Uiso   1.00
C783   C     0.96884   0.76099   0.45819   0.00000  Uiso   1.00
C784   C     0.76090   0.53119   0.54181   0.00000  Uiso   1.00
C785   C     0.76099   0.96884   0.45819   0.00000  Uiso   1.00
C786   C     0.71872   0.98937   0.08208   0.00000  Uiso   1.00
C787   C     0.78123   0.98923   0.91791   0.00000  Uiso   1.00
C788   C     0.98937   0.71872   0.08208   0.00000  Uiso   1.00
C789   C     0.78115   0.98897   0.95819   0.00000  Uiso   1.00
C790   C     0.98923   0.78123   0.91791   0.00000  Uiso   1.00
C791   C     0.78128   0.51063   0.08208   0.00000  Uiso   1.00
C792   C     0.71877   0.51077   0.91791   0.00000  Uiso   1.00
C793   C     0.51063   0.78128   0.08208   0.00000  Uiso   1.00
C794   C     0.51077   0.71877   0.91791   0.00000  Uiso   1.00
C795   C     0.96873   0.73936   0.58209   0.00000  Uiso   1.00
C796   C     0.53124   0.73927   0.41791   0.00000  Uiso   1.00
C797   C     0.73936   0.96873   0.58209   0.00000  Uiso   1.00
C798   C     0.73927   0.53124   0.41791   0.00000  Uiso   1.00
C799   C     0.53127   0.76064   0.58209   0.00000  Uiso   1.00
C800   C     0.98911   0.71881   0.04181   0.00000  Uiso   1.00
C801   C     0.96876   0.76073   0.41791   0.00000  Uiso   1.00
C802   C     0.76064   0.53127   0.58209   0.00000  Uiso   1.00
C803   C     0.76073   0.96876   0.41791   0.00000  Uiso   1.00
C804   C     0.75000   0.50000   0.02131   0.00000  Uiso   1.00
C805   C     0.75000   0.50000   0.97868   0.00000  Uiso   1.00
C806   C     0.50000   0.75000   0.02131   0.00000  Uiso   1.00
C807   C     0.50000   0.75000   0.97868   0.00000  Uiso   1.00
C808   C     0.50000   0.75000   0.52132   0.00000  Uiso   1.00
C809   C     0.50000   0.75000   0.47868   0.00000  Uiso   1.00
C810   C     0.75000   0.50000   0.52132   0.00000  Uiso   1.00
C811   C     0.98897   0.78114   0.95819   0.00000  Uiso   1.00
C812   C     0.75000   0.50000   0.47868   0.00000  Uiso   1.00
C813   C     0.75000   0.50000   0.35520   0.00000  Uiso   1.00
C814   C     0.75000   0.50000   0.64481   0.00000  Uiso   1.00
C815   C     0.50000   0.75000   0.35520   0.00000  Uiso   1.00
C816   C     0.50000   0.75000   0.64481   0.00000  Uiso   1.00
C817   C     0.50000   0.75000   0.85519   0.00000  Uiso   1.00
C818   C     0.50000   0.75000   0.14480   0.00000  Uiso   1.00
C819   C     0.75000   0.50000   0.85519   0.00000  Uiso   1.00
C820   C     0.75000   0.50000   0.14480   0.00000  Uiso   1.00
C821   C     0.67994   0.57006   0.25000   0.00000  Uiso   1.00
C822   C     0.78119   0.51089   0.04181   0.00000  Uiso   1.00
C823   C     0.82006   0.92994   0.75000   0.00000  Uiso   1.00
C824   C     0.92994   0.67994   0.25000   0.00000  Uiso   1.00
C825   C     0.57006   0.82006   0.75000   0.00000  Uiso   1.00
C826   C     0.82006   0.92994   0.25000   0.00000  Uiso   1.00
C827   C     0.67994   0.57006   0.75000   0.00000  Uiso   1.00
C828   C     0.57006   0.82006   0.25000   0.00000  Uiso   1.00
C829   C     0.92994   0.67994   0.75000   0.00000  Uiso   1.00
C830   C     0.67994   0.92994   0.75000   0.00000  Uiso   1.00
C831   C     0.82006   0.57006   0.25000   0.00000  Uiso   1.00
C832   C     0.92994   0.82006   0.75000   0.00000  Uiso   1.00
C833   C     0.71886   0.51103   0.95819   0.00000  Uiso   1.00
C834   C     0.57006   0.67994   0.25000   0.00000  Uiso   1.00
C835   C     0.82006   0.57006   0.75000   0.00000  Uiso   1.00
C836   C     0.67994   0.92994   0.25000   0.00000  Uiso   1.00
C837   C     0.57006   0.67994   0.75000   0.00000  Uiso   1.00
C838   C     0.92994   0.82006   0.25000   0.00000  Uiso   1.00
C839   C     0.61650   0.91022   0.23731   0.00000  Uiso   1.00
C840   C     0.88345   0.58984   0.76289   0.00000  Uiso   1.00
C841   C     0.58978   0.61649   0.23732   0.00000  Uiso   1.00
C842   C     0.89693   0.87022   0.78279   0.00000  Uiso   1.00
C843   C     0.88350   0.58978   0.23731   0.00000  Uiso   1.00
C844   C     0.51089   0.78119   0.04181   0.00000  Uiso   1.00
C845   C     0.61655   0.91017   0.76289   0.00000  Uiso   1.00
C846   C     0.91022   0.88350   0.23731   0.00000  Uiso   1.00
C847   C     0.60307   0.62978   0.78279   0.00000  Uiso   1.00
C848   C     0.62978   0.60307   0.78279   0.00000  Uiso   1.00
C849   C     0.88350   0.91022   0.23731   0.00000  Uiso   1.00
C850   C     0.58983   0.88345   0.76289   0.00000  Uiso   1.00
C851   C     0.91022   0.61650   0.23731   0.00000  Uiso   1.00
C852   C     0.87022   0.89693   0.78279   0.00000  Uiso   1.00
C853   C     0.61650   0.58978   0.23732   0.00000  Uiso   1.00
C854   C     0.91016   0.61655   0.76289   0.00000  Uiso   1.00
C855   C     0.51103   0.71885   0.95819   0.00000  Uiso   1.00
C856   C     0.58978   0.88350   0.23731   0.00000  Uiso   1.00
C857   C     0.86655   0.66016   0.73710   0.00000  Uiso   1.00
C858   C     0.63351   0.83978   0.26268   0.00000  Uiso   1.00
C859   C     0.85306   0.87977   0.71723   0.00000  Uiso   1.00
C860   C     0.66022   0.63350   0.26270   0.00000  Uiso   1.00
C861   C     0.63345   0.83984   0.73710   0.00000  Uiso   1.00
C862   C     0.86649   0.66022   0.26268   0.00000  Uiso   1.00
C863   C     0.64694   0.62023   0.71723   0.00000  Uiso   1.00
C864   C     0.83979   0.86650   0.26270   0.00000  Uiso   1.00
C865   C     0.86650   0.83979   0.26270   0.00000  Uiso   1.00
C866   C     0.96881   0.73910   0.54181   0.00000  Uiso   1.00
C867   C     0.62023   0.64694   0.71723   0.00000  Uiso   1.00
C868   C     0.83978   0.63351   0.26268   0.00000  Uiso   1.00
C869   C     0.66016   0.86655   0.73710   0.00000  Uiso   1.00
C870   C     0.63350   0.66022   0.26270   0.00000  Uiso   1.00
C871   C     0.87977   0.85306   0.71723   0.00000  Uiso   1.00
C872   C     0.66022   0.86649   0.26268   0.00000  Uiso   1.00
C873   C     0.83984   0.63345   0.73710   0.00000  Uiso   1.00
C874   C     0.59812   0.84812   0.25000   0.00000  Uiso   1.00
C875   C     0.90188   0.65188   0.75000   0.00000  Uiso   1.00
C876   C     0.65188   0.59812   0.25001   0.00000  Uiso   1.00
F877   F     0.60742   0.94441   0.22577   0.00000  Uiso   1.00
F878   F     0.89258   0.94441   0.22577   0.00000  Uiso   1.00
F879   F     0.55569   0.89249   0.77465   0.00000  Uiso   1.00
F880   F     0.94442   0.60742   0.22578   0.00000  Uiso   1.00
F881   F     0.86549   0.91731   0.81524   0.00000  Uiso   1.00
F882   F     0.60742   0.55558   0.22578   0.00000  Uiso   1.00
F883   F     0.94431   0.60752   0.77465   0.00000  Uiso   1.00
F884   F     0.55559   0.89258   0.22577   0.00000  Uiso   1.00
F885   F     0.85752   0.69430   0.72534   0.00000  Uiso   1.00
F886   F     0.64258   0.80558   0.27422   0.00000  Uiso   1.00
F887   F     0.83268   0.88450   0.68477   0.00000  Uiso   1.00
F888   F     0.89248   0.55569   0.77465   0.00000  Uiso   1.00
F889   F     0.69441   0.64258   0.27424   0.00000  Uiso   1.00
F890   F     0.64248   0.80570   0.72534   0.00000  Uiso   1.00
F891   F     0.85742   0.69442   0.27421   0.00000  Uiso   1.00
F892   F     0.66732   0.61550   0.68477   0.00000  Uiso   1.00
F893   F     0.80559   0.85743   0.27425   0.00000  Uiso   1.00
F894   F     0.85743   0.80559   0.27425   0.00000  Uiso   1.00
F895   F     0.61550   0.66732   0.68477   0.00000  Uiso   1.00
F896   F     0.80558   0.64258   0.27421   0.00000  Uiso   1.00
F897   F     0.69430   0.85752   0.72534   0.00000  Uiso   1.00
F898   F     0.64258   0.69441   0.27424   0.00000  Uiso   1.00
F899   F     0.55558   0.60742   0.22578   0.00000  Uiso   1.00
F900   F     0.88450   0.83268   0.68477   0.00000  Uiso   1.00
F901   F     0.69442   0.85742   0.27422   0.00000  Uiso   1.00
F902   F     0.80570   0.64248   0.72534   0.00000  Uiso   1.00
F903   F     0.91731   0.86549   0.81525   0.00000  Uiso   1.00
F904   F     0.89258   0.55558   0.22578   0.00000  Uiso   1.00
F905   F     0.60751   0.94431   0.77465   0.00000  Uiso   1.00
F906   F     0.94441   0.89258   0.22577   0.00000  Uiso   1.00
F907   F     0.58269   0.63451   0.81525   0.00000  Uiso   1.00
F908   F     0.63451   0.58269   0.81525   0.00000  Uiso   1.00
H909   H     0.69461   0.97996   0.02673   0.00000  Uiso   1.00
H910   H     0.55532   0.72978   0.47326   0.00000  Uiso   1.00
H911   H     0.72994   0.94462   0.52674   0.00000  Uiso   1.00
H912   H     0.72978   0.55532   0.47326   0.00000  Uiso   1.00
H913   H     0.55538   0.77006   0.52674   0.00000  Uiso   1.00
H914   H     0.94468   0.77022   0.47326   0.00000  Uiso   1.00
H915   H     0.77006   0.55538   0.52674   0.00000  Uiso   1.00
H916   H     0.77022   0.94468   0.47326   0.00000  Uiso   1.00
H917   H     0.69438   0.98076   0.09727   0.00000  Uiso   1.00
H918   H     0.80553   0.98051   0.90272   0.00000  Uiso   1.00
H919   H     0.98076   0.69438   0.09727   0.00000  Uiso   1.00
H920   H     0.80530   0.97971   0.97326   0.00000  Uiso   1.00
H921   H     0.98051   0.80553   0.90272   0.00000  Uiso   1.00
H922   H     0.80562   0.51924   0.09727   0.00000  Uiso   1.00
H923   H     0.69447   0.51949   0.90272   0.00000  Uiso   1.00
H924   H     0.51924   0.80562   0.09727   0.00000  Uiso   1.00
H925   H     0.51949   0.69447   0.90272   0.00000  Uiso   1.00
H926   H     0.94438   0.73074   0.59727   0.00000  Uiso   1.00
H927   H     0.55556   0.73058   0.40273   0.00000  Uiso   1.00
H928   H     0.73074   0.94438   0.59727   0.00000  Uiso   1.00
H929   H     0.73058   0.55556   0.40273   0.00000  Uiso   1.00
H930   H     0.55562   0.76926   0.59727   0.00000  Uiso   1.00
H931   H     0.97996   0.69461   0.02673   0.00000  Uiso   1.00
H932   H     0.94444   0.76942   0.40273   0.00000  Uiso   1.00
H933   H     0.76926   0.55562   0.59727   0.00000  Uiso   1.00
H934   H     0.76942   0.94444   0.40273   0.00000  Uiso   1.00
H935   H     0.97971   0.80530   0.97326   0.00000  Uiso   1.00
H936   H     0.80539   0.52004   0.02673   0.00000  Uiso   1.00
H937   H     0.69470   0.52029   0.97326   0.00000  Uiso   1.00
H938   H     0.52004   0.80539   0.02673   0.00000  Uiso   1.00
H939   H     0.52029   0.69470   0.97326   0.00000  Uiso   1.00
H940   H     0.94462   0.72994   0.52674   0.00000  Uiso   1.00
O941   O     0.75000   0.50000   0.25000   0.00000  Uiso   1.00
O942   O     0.75000   0.96964   0.66317   0.00000  Uiso   1.00
O943   O     0.96964   0.75000   0.33683   0.00000  Uiso   1.00
O944   O     0.53036   0.75000   0.66317   0.00000  Uiso   1.00
O945   O     0.50000   0.71964   0.83683   0.00000  Uiso   1.00
O946   O     0.50000   0.78036   0.16317   0.00000  Uiso   1.00
O947   O     0.78036   0.50000   0.83683   0.00000  Uiso   1.00
O948   O     0.71964   0.50000   0.16317   0.00000  Uiso   1.00
O949   O     0.50000   0.78036   0.83683   0.00000  Uiso   1.00
O950   O     0.50000   0.71964   0.16317   0.00000  Uiso   1.00
O951   O     0.71964   0.50000   0.83683   0.00000  Uiso   1.00
O952   O     0.75000   0.50000   0.75000   0.00000  Uiso   1.00
O953   O     0.78036   0.50000   0.16317   0.00000  Uiso   1.00
O954   O     0.70726   0.57307   0.27282   0.00000  Uiso   1.00
O955   O     0.79275   0.92693   0.72718   0.00000  Uiso   1.00
O956   O     0.92693   0.70725   0.27282   0.00000  Uiso   1.00
O957   O     0.57307   0.79274   0.72718   0.00000  Uiso   1.00
O958   O     0.79275   0.92693   0.27282   0.00000  Uiso   1.00
O959   O     0.70726   0.57307   0.72718   0.00000  Uiso   1.00
O960   O     0.57307   0.79274   0.27282   0.00000  Uiso   1.00
O961   O     0.92693   0.70725   0.72718   0.00000  Uiso   1.00
O962   O     0.70726   0.92693   0.72718   0.00000  Uiso   1.00
O963   O     0.50000   0.75000   0.25000   0.00000  Uiso   1.00
O964   O     0.79275   0.57307   0.27282   0.00000  Uiso   1.00
O965   O     0.92693   0.79274   0.72718   0.00000  Uiso   1.00
O966   O     0.57307   0.70725   0.27282   0.00000  Uiso   1.00
O967   O     0.79275   0.57307   0.72718   0.00000  Uiso   1.00
O968   O     0.70726   0.92693   0.27282   0.00000  Uiso   1.00
O969   O     0.57307   0.70725   0.72718   0.00000  Uiso   1.00
O970   O     0.92693   0.79274   0.27282   0.00000  Uiso   1.00
O971   O     0.95726   0.82307   0.77282   0.00000  Uiso   1.00
O972   O     0.54275   0.67693   0.22718   0.00000  Uiso   1.00
O973   O     0.67693   0.95725   0.77282   0.00000  Uiso   1.00
O974   O     0.50000   0.75000   0.75000   0.00000  Uiso   1.00
O975   O     0.82307   0.54274   0.22718   0.00000  Uiso   1.00
O976   O     0.54275   0.67693   0.77282   0.00000  Uiso   1.00
O977   O     0.95726   0.82307   0.22718   0.00000  Uiso   1.00
O978   O     0.82307   0.54274   0.77282   0.00000  Uiso   1.00
O979   O     0.67693   0.95725   0.22718   0.00000  Uiso   1.00
O980   O     0.95726   0.67693   0.22718   0.00000  Uiso   1.00
O981   O     0.54275   0.82307   0.77282   0.00000  Uiso   1.00
O982   O     0.67693   0.54274   0.22718   0.00000  Uiso   1.00
O983   O     0.82307   0.95725   0.77282   0.00000  Uiso   1.00
O984   O     0.54275   0.82307   0.22718   0.00000  Uiso   1.00
O985   O     0.75000   0.96964   0.33683   0.00000  Uiso   1.00
O986   O     0.95726   0.67693   0.77282   0.00000  Uiso   1.00
O987   O     0.82307   0.95725   0.22718   0.00000  Uiso   1.00
O988   O     0.67693   0.54274   0.77282   0.00000  Uiso   1.00
O989   O     0.75000   0.53036   0.66317   0.00000  Uiso   1.00
O990   O     0.53036   0.75000   0.33683   0.00000  Uiso   1.00
O991   O     0.96964   0.75000   0.66317   0.00000  Uiso   1.00
O992   O     0.75000   0.53036   0.33683   0.00000  Uiso   1.00
Zn993  Zn    0.70660   0.50000   0.21760   0.00000  Uiso   1.00
Zn994  Zn    0.54340   0.75000   0.28240   0.00000  Uiso   1.00
Zn995  Zn    0.75000   0.95660   0.71760   0.00000  Uiso   1.00
Zn996  Zn    0.75000   0.54340   0.28240   0.00000  Uiso   1.00
Zn997  Zn    0.54340   0.75000   0.71760   0.00000  Uiso   1.00
Zn998  Zn    0.95660   0.75000   0.28240   0.00000  Uiso   1.00
Zn999  Zn    0.75000   0.54340   0.71760   0.00000  Uiso   1.00
Zn1000 Zn    0.75000   0.95660   0.28240   0.00000  Uiso   1.00
Zn1001 Zn    0.79340   0.50000   0.78240   0.00000  Uiso   1.00
Zn1002 Zn    0.50000   0.70660   0.21760   0.00000  Uiso   1.00
Zn1003 Zn    0.50000   0.79340   0.78240   0.00000  Uiso   1.00
Zn1004 Zn    0.79340   0.50000   0.21760   0.00000  Uiso   1.00
Zn1005 Zn    0.70660   0.50000   0.78240   0.00000  Uiso   1.00
Zn1006 Zn    0.50000   0.79340   0.21760   0.00000  Uiso   1.00
Zn1007 Zn    0.50000   0.70660   0.78240   0.00000  Uiso   1.00
Zn1008 Zn    0.95660   0.75000   0.71760   0.00000  Uiso   1.00
loop_
_geom_bond_atom_site_label_1
_geom_bond_atom_site_label_2
_geom_bond_distance
_geom_bond_site_symmetry_2
_ccdc_geom_bond_type
C1     H153    1.083   .     S
C1     C30     1.391   .     A
C1     C552    1.404   .     S
C2     C40     1.391   .     A
C2     H154    1.083   .     S
C2     C53     1.404   .     S
C3     C96     1.405   .     A
C3     C103    1.405   .     A
C3     C67     1.457   .     S
C4     C68     1.457   .     S
C4     C106    1.405   .     A
C4     C95     1.405   .     A
C5     C94     1.405   .     A
C5     C69     1.457   .     S
C5     C105    1.405   .     A
C6     C70     1.457   .     S
C6     C93     1.405   .     A
C6     C108    1.405   .     A
C7     C71     1.457   .     S
C7     C92     1.405   .     A
C7     C107    1.405   .     A
C8     C81     1.457   .     S
C8     C111    1.405   .     A
C8     C91     1.405   .     A
C9     C82     1.457   .     S
C9     C109    1.405   .     A
C9     C90     1.405   .     A
C10    C89     1.405   .     A
C10    C113    1.405   .     A
C10    C74     1.457   .     S
C11    C87     1.405   .     A
C11    C112    1.405   .     A
C11    C75     1.457   .     S
C12    C86     1.405   .     A
C12    C115    1.405   .     A
C12    C76     1.457   .     S
C13    C41     1.391   .     A
C13    H155    1.083   .     S
C13    C558    1.404   .     A
C14    C114    1.405   .     A
C14    C85     1.405   .     A
C14    C78     1.457   .     S
C15    C117    1.405   .     A
C15    C84     1.405   .     A
C15    C79     1.457   .     S
C16    C116    1.405   .     A
C16    C80     1.457   .     S
C16    C83     1.405   .     A
C17    C64     1.462   .     S
C17    C35     1.402   .     A
C17    C534    1.402   1_545 S
C18    C63     1.462   .     S
C18    C36     1.402   .     A
C18    C535    1.402   1_545 S
C19    C62     1.462   .     S
C19    C37     1.402   .     A
C19    C284    1.402   1_455 S
C20    C286    1.402   1_455 A
C20    C61     1.462   .     S
C20    C38     1.402   .     S
C21    C60     1.462   .     S
C21    C291    1.402   1_455 A
C21    C43     1.402   .     S
C22    C59     1.462   .     S
C22    C297    1.402   1_455 A
C22    C40     1.402   .     S
C23    C58     1.462   .     S
C23    C545    1.402   1_545 A
C23    C46     1.402   .     S
C24    C42     1.391   .     A
C24    H156    1.083   .     S
C24    C56     1.404   .     S
C25    C57     1.462   .     S
C25    C42     1.402   .     A
C25    C551    1.402   1_545 S
C26    H157    1.083   .     S
C26    C43     1.391   .     A
C26    C52     1.404   .     S
C27    H158    1.083   .     S
C27    C45     1.391   .     A
C27    C305    1.404   .     A
C28    C46     1.391   .     A
C28    H159    1.083   .     S
C28    C54     1.404   .     S
C29    C47     1.391   .     A
C29    H160    1.083   .     S
C29    C560    1.404   .     A
C30    H161    1.083   .     S
C30    C521    1.402   .     S
C31    C33     1.391   .     A
C31    H162    1.083   .     S
C31    C522    1.402   .     S
C32    H163    1.083   .     S
C32    C44     1.391   .     A
C32    C271    1.402   .     S
C33    H164    1.083   .     S
C33    C553    1.404   .     S
C34    H165    1.083   .     S
C34    C272    1.402   .     A
C34    C55     1.391   .     A
C35    H166    1.083   .     S
C35    C66     1.391   .     A
C36    C77     1.391   .     A
C36    H167    1.083   .     S
C37    C88     1.391   .     A
C37    H168    1.083   .     S
C38    C99     1.391   .     A
C38    H169    1.083   .     S
C39    H170    1.083   .     S
C39    C110    1.391   .     A
C39    C273    1.402   .     A
C40    H171    1.083   .     S
C41    H172    1.083   .     S
C41    C527    1.402   .     A
C42    H173    1.083   .     S
C43    H174    1.083   .     S
C44    H175    1.083   .     S
C44    C302    1.404   .     A
C45    H176    1.083   .     S
C45    C274    1.402   .     A
C46    H177    1.083   .     S
C47    H178    1.083   .     S
C47    C529    1.402   .     S
C48    C66     1.404   .     A
C48    C505    1.404   1_545 S
C48    C49     1.472   1_554 S
C49    C77     1.404   .     A
C49    C48     1.472   1_556 S
C49    C537    1.404   1_545 S
C50    C296    1.404   1_455 A
C50    C51     1.472   1_554 S
C50    C88     1.404   .     S
C51    C307    1.404   1_455 A
C51    C50     1.472   1_556 S
C51    C99     1.404   .     S
C52    C362    1.404   1_455 A
C52    C53     1.472   .     S
C53    C279    1.404   1_455 A
C54    C517    1.404   1_545 A
C54    C56     1.472   .     S
C55    C303    1.404   .     A
C55    H179    1.083   .     S
C56    C533    1.404   1_545 A
C57    O236    1.282   .     A
C57    O733    1.282   1_545 S
C58    O690    1.282   1_545 A
C58    O233    1.282   .     S
C59    O439    1.282   1_455 A
C59    O234    1.282   .     S
C60    O487    1.282   1_455 A
C60    O188    1.282   .     S
C61    O189    1.282   .     A
C61    O193    1.282   .     S
C62    O190    1.282   .     A
C62    O194    1.282   .     S
C63    O195    1.282   .     A
C63    O191    1.282   .     A
C64    O197    1.282   .     A
C64    O192    1.282   .     A
C65    O198    1.280   .     A
C65    C120    1.457   .     S
C65    O226    1.280   .     A
C66    H180    1.083   .     S
C67    O199    1.280   .     A
C67    O227    1.280   .     A
C68    O200    1.280   .     A
C68    O224    1.280   .     A
C69    O201    1.280   .     A
C69    O225    1.280   .     A
C70    O231    1.280   .     A
C70    O202    1.280   .     A
C71    O232    1.280   .     A
C71    O203    1.280   .     A
C72    O204    1.280   .     A
C72    O228    1.280   .     A
C72    C118    1.457   .     S
C73    C119    1.457   .     S
C73    O230    1.280   .     A
C73    O205    1.280   .     A
C74    O206    1.280   .     A
C74    O217    1.280   .     A
C75    O219    1.280   .     A
C75    O208    1.280   .     A
C76    O215    1.280   .     A
C76    O209    1.280   .     A
C77    H181    1.083   .     S
C78    O210    1.280   .     A
C78    O216    1.280   .     A
C79    O211    1.280   .     A
C79    O222    1.280   .     A
C80    O212    1.280   .     A
C80    O223    1.280   .     A
C81    O213    1.280   .     A
C81    O220    1.280   .     A
C82    O221    1.280   .     A
C82    O214    1.280   .     A
C83    F121    1.358   .     S
C83    C100    1.387   .     A
C84    C98     1.387   .     A
C84    F132    1.358   .     S
C85    F143    1.359   .     S
C85    C97     1.387   .     A
C86    F147    1.358   .     S
C86    C96     1.387   .     A
C87    C95     1.387   .     A
C87    F148    1.358   .     S
C88    H182    1.083   .     S
C89    C94     1.387   .     A
C89    F149    1.358   .     S
C90    F150    1.359   .     S
C90    C93     1.387   .     A
C91    C92     1.387   .     A
C91    F151    1.358   .     S
C92    F152    1.358   .     S
C93    F122    1.359   .     S
C94    F123    1.358   .     S
C95    F124    1.358   .     S
C96    F125    1.358   .     S
C97    F126    1.358   .     S
C97    C120    1.405   .     A
C98    C119    1.405   .     A
C98    F127    1.358   .     S
C99    H183    1.083   .     S
C100   C118    1.405   .     A
C100   F128    1.358   .     S
C101   C119    1.405   .     A
C101   C117    1.387   .     A
C101   F129    1.358   .     S
C102   C118    1.405   .     A
C102   C116    1.387   .     A
C102   F130    1.358   .     S
C103   C115    1.387   .     A
C103   F131    1.358   .     S
C104   F133    1.358   .     S
C104   C114    1.387   .     A
C104   C120    1.405   .     A
C105   C113    1.387   .     A
C105   F134    1.358   .     S
C106   C112    1.387   .     A
C106   F135    1.358   .     S
C107   F136    1.358   .     S
C107   C111    1.387   .     A
C108   F137    1.359   .     S
C108   C109    1.387   .     A
C109   F138    1.359   .     S
C110   C304    1.404   .     A
C110   H184    1.083   .     S
C111   F139    1.358   .     S
C112   F140    1.358   .     S
C113   F141    1.358   .     S
C114   F142    1.358   .     S
C115   F144    1.358   .     S
C116   F145    1.358   .     S
C117   F146    1.358   .     S
O185   Zn240   1.947   .     S
O185   Zn237   1.947   .     S
O185   Zn248   1.947   .     S
O185   Zn748   1.947   1_545 S
O186   C562    1.282   .     A
O186   Zn239   1.939   .     S
O187   C311    1.282   .     A
O187   Zn242   1.939   .     S
O188   Zn241   1.939   .     S
O189   Zn251   1.939   .     S
O190   Zn250   1.939   .     S
O191   Zn245   1.939   .     S
O192   Zn237   1.939   .     S
O193   Zn247   1.939   .     S
O194   Zn246   1.939   .     S
O195   Zn249   1.939   .     S
O196   Zn743   1.947   1_545 S
O196   Zn243   1.947   .     S
O196   Zn245   1.947   .     S
O196   Zn249   1.947   .     S
O197   Zn248   1.939   .     S
O198   Zn240   1.938   .     S
O199   Zn239   1.938   .     S
O200   Zn242   1.938   .     S
O201   Zn241   1.938   .     S
O202   Zn244   1.938   .     S
O203   Zn243   1.938   .     S
O204   Zn238   1.938   .     S
O205   Zn252   1.938   .     S
O206   Zn239   1.938   .     S
O207   Zn494   1.947   1_455 S
O207   Zn246   1.947   .     S
O207   Zn238   1.947   .     S
O207   Zn250   1.947   .     S
O208   Zn240   1.938   .     S
O209   Zn252   1.938   .     S
O210   Zn238   1.938   .     S
O211   Zn243   1.938   .     S
O212   Zn244   1.938   .     S
O213   Zn241   1.938   .     S
O214   Zn242   1.938   .     S
O215   Zn499   1.938   .     S
O216   Zn246   1.938   .     S
O217   Zn753   1.938   .     S
O218   Zn251   1.947   .     S
O218   Zn241   1.947   .     S
O218   Zn247   1.947   .     S
O218   Zn504   1.947   1_455 S
O219   Zn248   1.938   .     S
O220   Zn251   1.938   .     S
O221   Zn502   1.938   .     S
O222   Zn245   1.938   .     S
O223   Zn741   1.938   .     S
O224   Zn498   1.938   .     S
O225   Zn247   1.938   .     S
O226   Zn237   1.938   .     S
O227   Zn749   1.938   .     S
O228   Zn250   1.938   .     S
O229   Zn244   1.939   .     S
O229   C561    1.282   .     S
O230   Zn503   1.938   .     S
O231   Zn752   1.938   .     S
O232   Zn249   1.938   .     S
O233   Zn243   1.939   .     S
O234   Zn238   1.939   .     S
O235   C312    1.282   .     A
O235   Zn252   1.939   .     S
O236   Zn240   1.939   .     S
Zn237  O727    1.938   1_545 S
Zn239  O700    1.947   .     S
Zn242  O459    1.947   .     S
Zn244  O689    1.947   .     S
Zn245  O731    1.938   1_545 S
Zn246  O476    1.938   1_455 S
Zn247  O467    1.938   1_455 S
Zn248  O735    1.938   1_545 S
Zn249  O721    1.938   1_545 S
Zn250  O473    1.938   1_455 S
Zn251  O482    1.938   1_455 S
Zn252  O470    1.947   .     S
C253   H405    1.083   .     S
C253   C282    1.391   .     A
C253   C804    1.404   .     S
C254   C292    1.391   .     A
C254   H406    1.083   .     S
C254   C305    1.404   .     S
C255   C348    1.405   .     A
C255   C355    1.405   .     A
C255   C319    1.457   .     S
C256   C320    1.457   .     S
C256   C358    1.405   .     A
C256   C347    1.405   .     A
C257   C346    1.405   .     A
C257   C321    1.457   .     S
C257   C357    1.405   .     A
C258   C322    1.457   .     S
C258   C345    1.405   .     A
C258   C360    1.405   .     A
C259   C323    1.457   .     S
C259   C344    1.405   .     A
C259   C359    1.405   .     A
C260   C333    1.457   .     S
C260   C363    1.405   .     A
C260   C343    1.405   .     A
C261   C334    1.457   .     S
C261   C361    1.405   .     A
C261   C342    1.405   .     A
C262   C341    1.405   .     A
C262   C365    1.405   .     A
C262   C326    1.457   .     S
C263   C339    1.405   .     A
C263   C364    1.405   .     A
C263   C327    1.457   .     S
C264   C338    1.405   .     A
C264   C367    1.405   .     A
C264   C328    1.457   .     S
C265   C293    1.391   .     A
C265   H407    1.083   .     S
C265   C810    1.404   .     A
C266   C366    1.405   .     A
C266   C337    1.405   .     A
C266   C330    1.457   .     S
C267   C369    1.405   .     A
C267   C336    1.405   .     A
C267   C331    1.457   .     S
C268   C368    1.405   .     A
C268   C332    1.457   .     S
C268   C335    1.405   .     A
C269   C316    1.462   .     S
C269   C287    1.402   .     A
C269   C786    1.402   1_545 S
C270   C315    1.462   .     S
C270   C288    1.402   .     A
C270   C787    1.402   1_545 S
C271   C314    1.462   .     S
C271   C289    1.402   .     A
C272   C313    1.462   .     S
C272   C290    1.402   .     S
C273   C312    1.462   .     S
C273   C295    1.402   .     S
C274   C311    1.462   .     S
C274   C292    1.402   .     S
C275   C310    1.462   .     S
C275   C797    1.402   1_545 A
C275   C298    1.402   .     S
C276   C294    1.391   .     A
C276   H408    1.083   .     S
C276   C308    1.404   .     S
C277   C309    1.462   .     S
C277   C294    1.402   .     A
C277   C803    1.402   1_545 S
C278   H409    1.083   .     S
C278   C295    1.391   .     A
C278   C304    1.404   .     S
C279   H410    1.083   .     S
C279   C297    1.391   .     A
C279   C53     1.404   1_655 A
C280   C298    1.391   .     A
C280   H411    1.083   .     S
C280   C306    1.404   .     S
C281   C299    1.391   .     A
C281   H412    1.083   .     S
C281   C812    1.404   .     A
C282   H413    1.083   .     S
C282   C773    1.402   .     S
C283   C285    1.391   .     A
C283   H414    1.083   .     S
C283   C774    1.402   .     S
C284   H415    1.083   .     S
C284   C296    1.391   .     A
C284   C19     1.402   1_655 S
C285   H416    1.083   .     S
C285   C805    1.404   .     S
C286   H417    1.083   .     S
C286   C20     1.402   1_655 A
C286   C307    1.391   .     A
C287   H418    1.083   .     S
C287   C318    1.391   .     A
C288   C329    1.391   .     A
C288   H419    1.083   .     S
C289   C340    1.391   .     A
C289   H420    1.083   .     S
C290   C351    1.391   .     A
C290   H421    1.083   .     S
C291   H422    1.083   .     S
C291   C362    1.391   .     A
C291   C21     1.402   1_655 A
C292   H423    1.083   .     S
C293   H424    1.083   .     S
C293   C779    1.402   .     A
C294   H425    1.083   .     S
C295   H426    1.083   .     S
C296   H427    1.083   .     S
C296   C50     1.404   1_655 A
C297   H428    1.083   .     S
C297   C22     1.402   1_655 A
C298   H429    1.083   .     S
C299   H430    1.083   .     S
C299   C781    1.402   .     S
C300   C318    1.404   .     A
C300   C757    1.404   1_545 S
C300   C301    1.472   1_554 S
C301   C329    1.404   .     A
C301   C300    1.472   1_556 S
C301   C789    1.404   1_545 S
C302   C303    1.472   1_554 S
C302   C340    1.404   .     S
C303   C302    1.472   1_556 S
C303   C351    1.404   .     S
C304   C305    1.472   .     S
C306   C769    1.404   1_545 A
C306   C308    1.472   .     S
C307   C51     1.404   1_655 A
C307   H431    1.083   .     S
C308   C785    1.404   1_545 A
C309   O488    1.282   .     A
C309   O985    1.282   1_545 S
C310   O942    1.282   1_545 A
C310   O485    1.282   .     S
C311   O486    1.282   .     S
C312   O440    1.282   .     S
C313   O441    1.282   .     A
C313   O445    1.282   .     S
C314   O442    1.282   .     A
C314   O446    1.282   .     S
C315   O447    1.282   .     A
C315   O443    1.282   .     A
C316   O449    1.282   .     A
C316   O444    1.282   .     A
C317   O450    1.280   .     A
C317   C372    1.457   .     S
C317   O478    1.280   .     A
C318   H432    1.083   .     S
C319   O451    1.280   .     A
C319   O479    1.280   .     A
C320   O452    1.280   .     A
C320   O476    1.280   .     A
C321   O453    1.280   .     A
C321   O477    1.280   .     A
C322   O483    1.280   .     A
C322   O454    1.280   .     A
C323   O484    1.280   .     A
C323   O455    1.280   .     A
C324   O456    1.280   .     A
C324   O480    1.280   .     A
C324   C370    1.457   .     S
C325   C371    1.457   .     S
C325   O482    1.280   .     A
C325   O457    1.280   .     A
C326   O458    1.280   .     A
C326   O469    1.280   .     A
C327   O471    1.280   .     A
C327   O460    1.280   .     A
C328   O467    1.280   .     A
C328   O461    1.280   .     A
C329   H433    1.083   .     S
C330   O462    1.280   .     A
C330   O468    1.280   .     A
C331   O463    1.280   .     A
C331   O474    1.280   .     A
C332   O464    1.280   .     A
C332   O475    1.280   .     A
C333   O465    1.280   .     A
C333   O472    1.280   .     A
C334   O473    1.280   .     A
C334   O466    1.280   .     A
C335   F373    1.358   .     S
C335   C352    1.387   .     A
C336   C350    1.387   .     A
C336   F384    1.358   .     S
C337   F395    1.359   .     S
C337   C349    1.387   .     A
C338   F399    1.358   .     S
C338   C348    1.387   .     A
C339   C347    1.387   .     A
C339   F400    1.358   .     S
C340   H434    1.083   .     S
C341   C346    1.387   .     A
C341   F401    1.358   .     S
C342   F402    1.359   .     S
C342   C345    1.387   .     A
C343   C344    1.387   .     A
C343   F403    1.358   .     S
C344   F404    1.358   .     S
C345   F374    1.359   .     S
C346   F375    1.358   .     S
C347   F376    1.358   .     S
C348   F377    1.358   .     S
C349   F378    1.358   .     S
C349   C372    1.405   .     A
C350   C371    1.405   .     A
C350   F379    1.358   .     S
C351   H435    1.083   .     S
C352   C370    1.405   .     A
C352   F380    1.358   .     S
C353   C371    1.405   .     A
C353   C369    1.387   .     A
C353   F381    1.358   .     S
C354   C370    1.405   .     A
C354   C368    1.387   .     A
C354   F382    1.358   .     S
C355   C367    1.387   .     A
C355   F383    1.358   .     S
C356   F385    1.358   .     S
C356   C366    1.387   .     A
C356   C372    1.405   .     A
C357   C365    1.387   .     A
C357   F386    1.358   .     S
C358   C364    1.387   .     A
C358   F387    1.358   .     S
C359   F388    1.358   .     S
C359   C363    1.387   .     A
C360   F389    1.359   .     S
C360   C361    1.387   .     A
C361   F390    1.359   .     S
C362   C52     1.404   1_655 A
C362   H436    1.083   .     S
C363   F391    1.358   .     S
C364   F392    1.358   .     S
C365   F393    1.358   .     S
C366   F394    1.358   .     S
C367   F396    1.358   .     S
C368   F397    1.358   .     S
C369   F398    1.358   .     S
O437   Zn492   1.947   .     S
O437   Zn489   1.947   .     S
O437   Zn500   1.947   .     S
O437   Zn1000  1.947   1_545 S
O438   C814    1.282   .     A
O438   Zn491   1.939   .     S
O439   C59     1.282   1_655 A
O439   Zn494   1.939   .     S
O440   Zn493   1.939   .     S
O441   Zn503   1.939   .     S
O442   Zn502   1.939   .     S
O443   Zn497   1.939   .     S
O444   Zn489   1.939   .     S
O445   Zn499   1.939   .     S
O446   Zn498   1.939   .     S
O447   Zn501   1.939   .     S
O448   Zn995   1.947   1_545 S
O448   Zn495   1.947   .     S
O448   Zn497   1.947   .     S
O448   Zn501   1.947   .     S
O449   Zn500   1.939   .     S
O450   Zn492   1.938   .     S
O451   Zn491   1.938   .     S
O452   Zn494   1.938   .     S
O453   Zn493   1.938   .     S
O454   Zn496   1.938   .     S
O455   Zn495   1.938   .     S
O456   Zn490   1.938   .     S
O457   Zn504   1.938   .     S
O458   Zn491   1.938   .     S
O459   Zn498   1.947   .     S
O459   Zn490   1.947   .     S
O459   Zn502   1.947   .     S
O460   Zn492   1.938   .     S
O461   Zn504   1.938   .     S
O462   Zn490   1.938   .     S
O463   Zn495   1.938   .     S
O464   Zn496   1.938   .     S
O465   Zn493   1.938   .     S
O466   Zn494   1.938   .     S
O467   Zn247   1.938   1_655 S
O468   Zn498   1.938   .     S
O469   Zn1005  1.938   .     S
O470   Zn503   1.947   .     S
O470   Zn493   1.947   .     S
O470   Zn499   1.947   .     S
O471   Zn500   1.938   .     S
O472   Zn503   1.938   .     S
O473   Zn250   1.938   1_655 S
O474   Zn497   1.938   .     S
O475   Zn993   1.938   .     S
O476   Zn246   1.938   1_655 S
O477   Zn499   1.938   .     S
O478   Zn489   1.938   .     S
O479   Zn1001  1.938   .     S
O480   Zn502   1.938   .     S
O481   Zn496   1.939   .     S
O481   C813    1.282   .     S
O482   Zn251   1.938   1_655 S
O483   Zn1004  1.938   .     S
O484   Zn501   1.938   .     S
O485   Zn495   1.939   .     S
O486   Zn490   1.939   .     S
O487   C60     1.282   1_655 A
O487   Zn504   1.939   .     S
O488   Zn492   1.939   .     S
Zn489  O979    1.938   1_545 S
Zn491  O952    1.947   .     S
Zn494  O207    1.947   1_655 S
Zn496  O941    1.947   .     S
Zn497  O983    1.938   1_545 S
Zn500  O987    1.938   1_545 S
Zn501  O973    1.938   1_545 S
Zn504  O218    1.947   1_655 S
C505   H657    1.083   .     S
C505   C534    1.391   .     A
C505   C48     1.404   1_565 S
C506   C544    1.391   .     A
C506   H658    1.083   .     S
C506   C557    1.404   .     S
C507   C600    1.405   .     A
C507   C607    1.405   .     A
C507   C571    1.457   .     S
C508   C572    1.457   .     S
C508   C610    1.405   .     A
C508   C599    1.405   .     A
C509   C598    1.405   .     A
C509   C573    1.457   .     S
C509   C609    1.405   .     A
C510   C574    1.457   .     S
C510   C597    1.405   .     A
C510   C612    1.405   .     A
C511   C575    1.457   .     S
C511   C596    1.405   .     A
C511   C611    1.405   .     A
C512   C585    1.457   .     S
C512   C615    1.405   .     A
C512   C595    1.405   .     A
C513   C586    1.457   .     S
C513   C613    1.405   .     A
C513   C594    1.405   .     A
C514   C593    1.405   .     A
C514   C617    1.405   .     A
C514   C578    1.457   .     S
C515   C591    1.405   .     A
C515   C616    1.405   .     A
C515   C579    1.457   .     S
C516   C590    1.405   .     A
C516   C619    1.405   .     A
C516   C580    1.457   .     S
C517   C545    1.391   .     A
C517   H659    1.083   .     S
C517   C54     1.404   1_565 A
C518   C618    1.405   .     A
C518   C589    1.405   .     A
C518   C582    1.457   .     S
C519   C621    1.405   .     A
C519   C588    1.405   .     A
C519   C583    1.457   .     S
C520   C620    1.405   .     A
C520   C584    1.457   .     S
C520   C587    1.405   .     A
C521   C568    1.462   .     S
C521   C539    1.402   .     A
C522   C567    1.462   .     S
C522   C540    1.402   .     A
C523   C566    1.462   .     S
C523   C541    1.402   .     A
C523   C788    1.402   1_455 S
C524   C790    1.402   1_455 A
C524   C565    1.462   .     S
C524   C542    1.402   .     S
C525   C564    1.462   .     S
C525   C795    1.402   1_455 A
C525   C547    1.402   .     S
C526   C563    1.462   .     S
C526   C801    1.402   1_455 A
C526   C544    1.402   .     S
C527   C562    1.462   .     S
C527   C550    1.402   .     S
C528   C546    1.391   .     A
C528   H660    1.083   .     S
C528   C560    1.404   .     S
C529   C561    1.462   .     S
C529   C546    1.402   .     A
C530   H661    1.083   .     S
C530   C547    1.391   .     A
C530   C556    1.404   .     S
C531   H662    1.083   .     S
C531   C549    1.391   .     A
C531   C809    1.404   .     A
C532   C550    1.391   .     A
C532   H663    1.083   .     S
C532   C558    1.404   .     S
C533   C551    1.391   .     A
C533   H664    1.083   .     S
C533   C56     1.404   1_565 A
C534   H665    1.083   .     S
C534   C17     1.402   1_565 S
C535   C537    1.391   .     A
C535   H666    1.083   .     S
C535   C18     1.402   1_565 S
C536   H667    1.083   .     S
C536   C548    1.391   .     A
C536   C775    1.402   .     S
C537   H668    1.083   .     S
C537   C49     1.404   1_565 S
C538   H669    1.083   .     S
C538   C776    1.402   .     A
C538   C559    1.391   .     A
C539   H670    1.083   .     S
C539   C570    1.391   .     A
C540   C581    1.391   .     A
C540   H671    1.083   .     S
C541   C592    1.391   .     A
C541   H672    1.083   .     S
C542   C603    1.391   .     A
C542   H673    1.083   .     S
C543   H674    1.083   .     S
C543   C614    1.391   .     A
C543   C777    1.402   .     A
C544   H675    1.083   .     S
C545   H676    1.083   .     S
C545   C23     1.402   1_565 A
C546   H677    1.083   .     S
C547   H678    1.083   .     S
C548   H679    1.083   .     S
C548   C806    1.404   .     A
C549   H680    1.083   .     S
C549   C778    1.402   .     A
C550   H681    1.083   .     S
C551   H682    1.083   .     S
C551   C25     1.402   1_565 S
C552   C570    1.404   .     A
C552   C553    1.472   1_554 S
C553   C581    1.404   .     A
C553   C552    1.472   1_556 S
C554   C800    1.404   1_455 A
C554   C555    1.472   1_554 S
C554   C592    1.404   .     S
C555   C811    1.404   1_455 A
C555   C554    1.472   1_556 S
C555   C603    1.404   .     S
C556   C866    1.404   1_455 A
C556   C557    1.472   .     S
C557   C783    1.404   1_455 A
C558   C560    1.472   .     S
C559   C807    1.404   .     A
C559   H683    1.083   .     S
C561   O740    1.282   .     A
C562   O737    1.282   .     S
C563   O943    1.282   1_455 A
C563   O738    1.282   .     S
C564   O991    1.282   1_455 A
C564   O692    1.282   .     S
C565   O693    1.282   .     A
C565   O697    1.282   .     S
C566   O694    1.282   .     A
C566   O698    1.282   .     S
C567   O699    1.282   .     A
C567   O695    1.282   .     A
C568   O701    1.282   .     A
C568   O696    1.282   .     A
C569   O702    1.280   .     A
C569   C624    1.457   .     S
C569   O730    1.280   .     A
C570   H684    1.083   .     S
C571   O703    1.280   .     A
C571   O731    1.280   .     A
C572   O704    1.280   .     A
C572   O728    1.280   .     A
C573   O705    1.280   .     A
C573   O729    1.280   .     A
C574   O735    1.280   .     A
C574   O706    1.280   .     A
C575   O736    1.280   .     A
C575   O707    1.280   .     A
C576   O708    1.280   .     A
C576   O732    1.280   .     A
C576   C622    1.457   .     S
C577   C623    1.457   .     S
C577   O734    1.280   .     A
C577   O709    1.280   .     A
C578   O710    1.280   .     A
C578   O721    1.280   .     A
C579   O723    1.280   .     A
C579   O712    1.280   .     A
C580   O719    1.280   .     A
C580   O713    1.280   .     A
C581   H685    1.083   .     S
C582   O714    1.280   .     A
C582   O720    1.280   .     A
C583   O715    1.280   .     A
C583   O726    1.280   .     A
C584   O716    1.280   .     A
C584   O727    1.280   .     A
C585   O717    1.280   .     A
C585   O724    1.280   .     A
C586   O725    1.280   .     A
C586   O718    1.280   .     A
C587   F625    1.358   .     S
C587   C604    1.387   .     A
C588   C602    1.387   .     A
C588   F636    1.358   .     S
C589   F647    1.359   .     S
C589   C601    1.387   .     A
C590   F651    1.358   .     S
C590   C600    1.387   .     A
C591   C599    1.387   .     A
C591   F652    1.358   .     S
C592   H686    1.083   .     S
C593   C598    1.387   .     A
C593   F653    1.358   .     S
C594   F654    1.359   .     S
C594   C597    1.387   .     A
C595   C596    1.387   .     A
C595   F655    1.358   .     S
C596   F656    1.358   .     S
C597   F626    1.359   .     S
C598   F627    1.358   .     S
C599   F628    1.358   .     S
C600   F629    1.358   .     S
C601   F630    1.358   .     S
C601   C624    1.405   .     A
C602   C623    1.405   .     A
C602   F631    1.358   .     S
C603   H687    1.083   .     S
C604   C622    1.405   .     A
C604   F632    1.358   .     S
C605   C623    1.405   .     A
C605   C621    1.387   .     A
C605   F633    1.358   .     S
C606   C622    1.405   .     A
C606   C620    1.387   .     A
C606   F634    1.358   .     S
C607   C619    1.387   .     A
C607   F635    1.358   .     S
C608   F637    1.358   .     S
C608   C618    1.387   .     A
C608   C624    1.405   .     A
C609   C617    1.387   .     A
C609   F638    1.358   .     S
C610   C616    1.387   .     A
C610   F639    1.358   .     S
C611   F640    1.358   .     S
C611   C615    1.387   .     A
C612   F641    1.359   .     S
C612   C613    1.387   .     A
C613   F642    1.359   .     S
C614   C808    1.404   .     A
C614   H688    1.083   .     S
C615   F643    1.358   .     S
C616   F644    1.358   .     S
C617   F645    1.358   .     S
C618   F646    1.358   .     S
C619   F648    1.358   .     S
C620   F649    1.358   .     S
C621   F650    1.358   .     S
O689   Zn744   1.947   .     S
O689   Zn741   1.947   .     S
O689   Zn752   1.947   .     S
O690   C58     1.282   1_565 A
O690   Zn743   1.939   .     S
O691   C815    1.282   .     A
O691   Zn746   1.939   .     S
O692   Zn745   1.939   .     S
O693   Zn755   1.939   .     S
O694   Zn754   1.939   .     S
O695   Zn749   1.939   .     S
O696   Zn741   1.939   .     S
O697   Zn751   1.939   .     S
O698   Zn750   1.939   .     S
O699   Zn753   1.939   .     S
O700   Zn747   1.947   .     S
O700   Zn749   1.947   .     S
O700   Zn753   1.947   .     S
O701   Zn752   1.939   .     S
O702   Zn744   1.938   .     S
O703   Zn743   1.938   .     S
O704   Zn746   1.938   .     S
O705   Zn745   1.938   .     S
O706   Zn748   1.938   .     S
O707   Zn747   1.938   .     S
O708   Zn742   1.938   .     S
O709   Zn756   1.938   .     S
O710   Zn743   1.938   .     S
O711   Zn998   1.947   1_455 S
O711   Zn750   1.947   .     S
O711   Zn742   1.947   .     S
O711   Zn754   1.947   .     S
O712   Zn744   1.938   .     S
O713   Zn756   1.938   .     S
O714   Zn742   1.938   .     S
O715   Zn747   1.938   .     S
O716   Zn748   1.938   .     S
O717   Zn745   1.938   .     S
O718   Zn746   1.938   .     S
O719   Zn1003  1.938   .     S
O720   Zn750   1.938   .     S
O721   Zn249   1.938   1_565 S
O722   Zn755   1.947   .     S
O722   Zn745   1.947   .     S
O722   Zn751   1.947   .     S
O722   Zn1008  1.947   1_455 S
O723   Zn752   1.938   .     S
O724   Zn755   1.938   .     S
O725   Zn1006  1.938   .     S
O726   Zn749   1.938   .     S
O727   Zn237   1.938   1_565 S
O728   Zn1002  1.938   .     S
O729   Zn751   1.938   .     S
O730   Zn741   1.938   .     S
O731   Zn245   1.938   1_565 S
O732   Zn754   1.938   .     S
O733   Zn748   1.939   .     S
O733   C57     1.282   1_565 S
O734   Zn1007  1.938   .     S
O735   Zn248   1.938   1_565 S
O736   Zn753   1.938   .     S
O737   Zn747   1.939   .     S
O738   Zn742   1.939   .     S
O739   C816    1.282   .     A
O739   Zn756   1.939   .     S
O740   Zn744   1.939   .     S
Zn743  O196    1.947   1_565 S
Zn746  O963    1.947   .     S
Zn748  O185    1.947   1_565 S
Zn750  O980    1.938   1_455 S
Zn751  O971    1.938   1_455 S
Zn754  O977    1.938   1_455 S
Zn755  O986    1.938   1_455 S
Zn756  O974    1.947   .     S
C757   H909    1.083   .     S
C757   C786    1.391   .     A
C757   C300    1.404   1_565 S
C758   C796    1.391   .     A
C758   H910    1.083   .     S
C758   C809    1.404   .     S
C759   C852    1.405   .     A
C759   C859    1.405   .     A
C759   C823    1.457   .     S
C760   C824    1.457   .     S
C760   C862    1.405   .     A
C760   C851    1.405   .     A
C761   C850    1.405   .     A
C761   C825    1.457   .     S
C761   C861    1.405   .     A
C762   C826    1.457   .     S
C762   C849    1.405   .     A
C762   C864    1.405   .     A
C763   C827    1.457   .     S
C763   C848    1.405   .     A
C763   C863    1.405   .     A
C764   C837    1.457   .     S
C764   C867    1.405   .     A
C764   C847    1.405   .     A
C765   C838    1.457   .     S
C765   C865    1.405   .     A
C765   C846    1.405   .     A
C766   C845    1.405   .     A
C766   C869    1.405   .     A
C766   C830    1.457   .     S
C767   C843    1.405   .     A
C767   C868    1.405   .     A
C767   C831    1.457   .     S
C768   C842    1.405   .     A
C768   C871    1.405   .     A
C768   C832    1.457   .     S
C769   C797    1.391   .     A
C769   H911    1.083   .     S
C769   C306    1.404   1_565 A
C770   C870    1.405   .     A
C770   C841    1.405   .     A
C770   C834    1.457   .     S
C771   C873    1.405   .     A
C771   C840    1.405   .     A
C771   C835    1.457   .     S
C772   C872    1.405   .     A
C772   C836    1.457   .     S
C772   C839    1.405   .     A
C773   C820    1.462   .     S
C773   C791    1.402   .     A
C774   C819    1.462   .     S
C774   C792    1.402   .     A
C775   C818    1.462   .     S
C775   C793    1.402   .     A
C776   C817    1.462   .     S
C776   C794    1.402   .     S
C777   C816    1.462   .     S
C777   C799    1.402   .     S
C778   C815    1.462   .     S
C778   C796    1.402   .     S
C779   C814    1.462   .     S
C779   C802    1.402   .     S
C780   C798    1.391   .     A
C780   H912    1.083   .     S
C780   C812    1.404   .     S
C781   C813    1.462   .     S
C781   C798    1.402   .     A
C782   H913    1.083   .     S
C782   C799    1.391   .     A
C782   C808    1.404   .     S
C783   H914    1.083   .     S
C783   C801    1.391   .     A
C783   C557    1.404   1_655 A
C784   C802    1.391   .     A
C784   H915    1.083   .     S
C784   C810    1.404   .     S
C785   C803    1.391   .     A
C785   H916    1.083   .     S
C785   C308    1.404   1_565 A
C786   H917    1.083   .     S
C786   C269    1.402   1_565 S
C787   C789    1.391   .     A
C787   H918    1.083   .     S
C787   C270    1.402   1_565 S
C788   H919    1.083   .     S
C788   C800    1.391   .     A
C788   C523    1.402   1_655 S
C789   H920    1.083   .     S
C789   C301    1.404   1_565 S
C790   H921    1.083   .     S
C790   C524    1.402   1_655 A
C790   C811    1.391   .     A
C791   H922    1.083   .     S
C791   C822    1.391   .     A
C792   C833    1.391   .     A
C792   H923    1.083   .     S
C793   C844    1.391   .     A
C793   H924    1.083   .     S
C794   C855    1.391   .     A
C794   H925    1.083   .     S
C795   H926    1.083   .     S
C795   C866    1.391   .     A
C795   C525    1.402   1_655 A
C796   H927    1.083   .     S
C797   H928    1.083   .     S
C797   C275    1.402   1_565 A
C798   H929    1.083   .     S
C799   H930    1.083   .     S
C800   H931    1.083   .     S
C800   C554    1.404   1_655 A
C801   H932    1.083   .     S
C801   C526    1.402   1_655 A
C802   H933    1.083   .     S
C803   H934    1.083   .     S
C803   C277    1.402   1_565 S
C804   C822    1.404   .     A
C804   C805    1.472   1_554 S
C805   C833    1.404   .     A
C805   C804    1.472   1_556 S
C806   C807    1.472   1_554 S
C806   C844    1.404   .     S
C807   C806    1.472   1_556 S
C807   C855    1.404   .     S
C808   C809    1.472   .     S
C810   C812    1.472   .     S
C811   C555    1.404   1_655 A
C811   H935    1.083   .     S
C813   O992    1.282   .     A
C814   O989    1.282   .     S
C815   O990    1.282   .     S
C816   O944    1.282   .     S
C817   O945    1.282   .     A
C817   O949    1.282   .     S
C818   O946    1.282   .     A
C818   O950    1.282   .     S
C819   O951    1.282   .     A
C819   O947    1.282   .     A
C820   O953    1.282   .     A
C820   O948    1.282   .     A
C821   O954    1.280   .     A
C821   C876    1.457   .     S
C821   O982    1.280   .     A
C822   H936    1.083   .     S
C823   O955    1.280   .     A
C823   O983    1.280   .     A
C824   O956    1.280   .     A
C824   O980    1.280   .     A
C825   O957    1.280   .     A
C825   O981    1.280   .     A
C826   O987    1.280   .     A
C826   O958    1.280   .     A
C827   O988    1.280   .     A
C827   O959    1.280   .     A
C828   O960    1.280   .     A
C828   O984    1.280   .     A
C828   C874    1.457   .     S
C829   C875    1.457   .     S
C829   O986    1.280   .     A
C829   O961    1.280   .     A
C830   O962    1.280   .     A
C830   O973    1.280   .     A
C831   O975    1.280   .     A
C831   O964    1.280   .     A
C832   O971    1.280   .     A
C832   O965    1.280   .     A
C833   H937    1.083   .     S
C834   O966    1.280   .     A
C834   O972    1.280   .     A
C835   O967    1.280   .     A
C835   O978    1.280   .     A
C836   O968    1.280   .     A
C836   O979    1.280   .     A
C837   O969    1.280   .     A
C837   O976    1.280   .     A
C838   O977    1.280   .     A
C838   O970    1.280   .     A
C839   F877    1.358   .     S
C839   C856    1.387   .     A
C840   C854    1.387   .     A
C840   F888    1.358   .     S
C841   F899    1.359   .     S
C841   C853    1.387   .     A
C842   F903    1.358   .     S
C842   C852    1.387   .     A
C843   C851    1.387   .     A
C843   F904    1.358   .     S
C844   H938    1.083   .     S
C845   C850    1.387   .     A
C845   F905    1.358   .     S
C846   F906    1.359   .     S
C846   C849    1.387   .     A
C847   C848    1.387   .     A
C847   F907    1.358   .     S
C848   F908    1.358   .     S
C849   F878    1.359   .     S
C850   F879    1.358   .     S
C851   F880    1.358   .     S
C852   F881    1.358   .     S
C853   F882    1.358   .     S
C853   C876    1.405   .     A
C854   C875    1.405   .     A
C854   F883    1.358   .     S
C855   H939    1.083   .     S
C856   C874    1.405   .     A
C856   F884    1.358   .     S
C857   C875    1.405   .     A
C857   C873    1.387   .     A
C857   F885    1.358   .     S
C858   C874    1.405   .     A
C858   C872    1.387   .     A
C858   F886    1.358   .     S
C859   C871    1.387   .     A
C859   F887    1.358   .     S
C860   F889    1.358   .     S
C860   C870    1.387   .     A
C860   C876    1.405   .     A
C861   C869    1.387   .     A
C861   F890    1.358   .     S
C862   C868    1.387   .     A
C862   F891    1.358   .     S
C863   F892    1.358   .     S
C863   C867    1.387   .     A
C864   F893    1.359   .     S
C864   C865    1.387   .     A
C865   F894    1.359   .     S
C866   C556    1.404   1_655 A
C866   H940    1.083   .     S
C867   F895    1.358   .     S
C868   F896    1.358   .     S
C869   F897    1.358   .     S
C870   F898    1.358   .     S
C871   F900    1.358   .     S
C872   F901    1.358   .     S
C873   F902    1.358   .     S
O941   Zn996   1.947   .     S
O941   Zn993   1.947   .     S
O941   Zn1004  1.947   .     S
O942   C310    1.282   1_565 A
O942   Zn995   1.939   .     S
O943   C563    1.282   1_655 A
O943   Zn998   1.939   .     S
O944   Zn997   1.939   .     S
O945   Zn1007  1.939   .     S
O946   Zn1006  1.939   .     S
O947   Zn1001  1.939   .     S
O948   Zn993   1.939   .     S
O949   Zn1003  1.939   .     S
O950   Zn1002  1.939   .     S
O951   Zn1005  1.939   .     S
O952   Zn999   1.947   .     S
O952   Zn1001  1.947   .     S
O952   Zn1005  1.947   .     S
O953   Zn1004  1.939   .     S
O954   Zn996   1.938   .     S
O955   Zn995   1.938   .     S
O956   Zn998   1.938   .     S
O957   Zn997   1.938   .     S
O958   Zn1000  1.938   .     S
O959   Zn999   1.938   .     S
O960   Zn994   1.938   .     S
O961   Zn1008  1.938   .     S
O962   Zn995   1.938   .     S
O963   Zn1002  1.947   .     S
O963   Zn994   1.947   .     S
O963   Zn1006  1.947   .     S
O964   Zn996   1.938   .     S
O965   Zn1008  1.938   .     S
O966   Zn994   1.938   .     S
O967   Zn999   1.938   .     S
O968   Zn1000  1.938   .     S
O969   Zn997   1.938   .     S
O970   Zn998   1.938   .     S
O971   Zn751   1.938   1_655 S
O972   Zn1002  1.938   .     S
O973   Zn501   1.938   1_565 S
O974   Zn1007  1.947   .     S
O974   Zn997   1.947   .     S
O974   Zn1003  1.947   .     S
O975   Zn1004  1.938   .     S
O976   Zn1007  1.938   .     S
O977   Zn754   1.938   1_655 S
O978   Zn1001  1.938   .     S
O979   Zn489   1.938   1_565 S
O980   Zn750   1.938   1_655 S
O981   Zn1003  1.938   .     S
O982   Zn993   1.938   .     S
O983   Zn497   1.938   1_565 S
O984   Zn1006  1.938   .     S
O985   Zn1000  1.939   .     S
O985   C309    1.282   1_565 S
O986   Zn755   1.938   1_655 S
O987   Zn500   1.938   1_565 S
O988   Zn1005  1.938   .     S
O989   Zn999   1.939   .     S
O990   Zn994   1.939   .     S
O991   C564    1.282   1_655 A
O991   Zn1008  1.939   .     S
O992   Zn996   1.939   .     S
Zn995  O448    1.947   1_565 S
Zn998  O711    1.947   1_655 S
Zn1000 O437    1.947   1_565 S
Zn1008 O722    1.947   1_655 S
