data_str_m1_o10_o16_pcu_sym.183
_audit_creation_date              2020-01-03
_audit_creation_method            'Materials Studio'
_symmetry_space_group_name_H-M    'P1'
_symmetry_Int_Tables_number       1
_symmetry_cell_setting            triclinic
loop_
_symmetry_equiv_pos_as_xyz
  x,y,z
_cell_length_a                    32.5510
_cell_length_b                    32.4538
_cell_length_c                    31.0580
_cell_angle_alpha                 96.0930
_cell_angle_beta                  74.7397
_cell_angle_gamma                 97.8469
loop_
_atom_site_label
_atom_site_type_symbol
_atom_site_fract_x
_atom_site_fract_y
_atom_site_fract_z
_atom_site_U_iso_or_equiv
_atom_site_adp_type
_atom_site_occupancy
C1     C     0.05298   0.15983   0.25982   0.00000  Uiso   1.00
C2     C     0.18207   0.16942   0.05827   0.00000  Uiso   1.00
C3     C     0.21014   0.10361   0.05848   0.00000  Uiso   1.00
C4     C     0.28070   0.17390   0.24061   0.00000  Uiso   1.00
C5     C     0.14748   0.19871   0.41934   0.00000  Uiso   1.00
C6     C     0.32591   0.17834   0.24027   0.00000  Uiso   1.00
C7     C     0.00726   0.15529   0.26538   0.00000  Uiso   1.00
C8     C     0.17698   0.32148   0.23290   0.00000  Uiso   1.00
C9     C     0.15321   0.01208   0.26485   0.00000  Uiso   1.00
C10    C     0.15607   0.05602   0.26071   0.00000  Uiso   1.00
C11    C     0.17603   0.27774   0.23964   0.00000  Uiso   1.00
C12    C     0.11426   0.23780   0.48831   0.00000  Uiso   1.00
C13    C     0.18563   0.14804   0.12946   0.00000  Uiso   1.00
C14    C     0.15010   0.18609   0.37098   0.00000  Uiso   1.00
C15    C     0.21015   0.09464   0.01310   0.00000  Uiso   1.00
C16    C     0.19408   0.14048   0.08107   0.00000  Uiso   1.00
C17    C     0.11738   0.22606   0.44293   0.00000  Uiso   1.00
C18    C     0.25695   0.09268   0.10037   0.00000  Uiso   1.00
C19    C     0.29700   0.06992   0.08177   0.00000  Uiso   1.00
C20    C     0.32610   0.08816   0.03920   0.00000  Uiso   1.00
C21    C     0.32604   0.11390   0.32628   0.00000  Uiso   1.00
C22    C     0.01738   0.07555   0.31776   0.00000  Uiso   1.00
C23    C     0.13173   0.21463   0.01315   0.00000  Uiso   1.00
C24    C     0.02981   0.06639   0.35956   0.00000  Uiso   1.00
C25    C     0.18148   0.33212   0.15990   0.00000  Uiso   1.00
C26    C     0.20372   0.30242   0.12195   0.00000  Uiso   1.00
C27    C     0.18516   0.30044   0.08143   0.00000  Uiso   1.00
C28    C     0.20079   0.07000   0.38845   0.00000  Uiso   1.00
C29    C     0.20081   0.02259   0.38244   0.00000  Uiso   1.00
C30    C     0.24435   0.00978   0.35636   0.00000  Uiso   1.00
C31    C     0.25280   0.04248   0.48203   0.00000  Uiso   1.00
C32    C     0.04759   0.22494   0.43736   0.00000  Uiso   1.00
C33    C     0.04016   0.17725   0.42863   0.00000  Uiso   1.00
C34    C     0.16210   0.18652   0.49081   0.00000  Uiso   1.00
C35    C     0.32601   0.16127   0.44310   0.00000  Uiso   1.00
C36    C     0.08366   0.19098   0.07658   0.00000  Uiso   1.00
C37    C     0.04080   0.20678   0.07831   0.00000  Uiso   1.00
C38    C     0.00440   0.18848   0.11544   0.00000  Uiso   1.00
C39    C     0.11009   0.30748   0.00358   0.00000  Uiso   1.00
C40    C     0.08053   0.00623   0.02915   0.00000  Uiso   1.00
C41    C     0.10388   0.05030   0.02834   0.00000  Uiso   1.00
C42    C     0.25251   0.20765   0.38213   0.00000  Uiso   1.00
C43    C     0.17249   0.18180   0.44324   0.00000  Uiso   1.00
C44    C     0.18135   0.16117   0.01336   0.00000  Uiso   1.00
C45    C     0.19940   0.12508   0.48974   0.00000  Uiso   1.00
C46    C     0.20877   0.12184   0.44280   0.00000  Uiso   1.00
C47    C     0.20552   0.15667   0.42171   0.00000  Uiso   1.00
H48    H     0.13429   0.00002   0.29622   0.00000  Uiso   1.00
H49    H     0.01635   0.11359   0.04769   0.00000  Uiso   1.00
H50    H     0.29590   0.10700   0.35237   0.00000  Uiso   1.00
H51    H     0.01063   0.14131   0.34057   0.00000  Uiso   1.00
H52    H     0.33060   0.04801   0.30696   0.00000  Uiso   1.00
H53    H     0.04704   0.08041   0.29064   0.00000  Uiso   1.00
H54    H     0.05199   0.09265   0.36935   0.00000  Uiso   1.00
H55    H     0.04634   0.03775   0.35254   0.00000  Uiso   1.00
H56    H     0.00094   0.06142   0.38775   0.00000  Uiso   1.00
H57    H     0.18287   0.02963   0.14693   0.00000  Uiso   1.00
H58    H     0.14668   0.32031   0.17093   0.00000  Uiso   1.00
H59    H     0.17410   0.19857   0.07651   0.00000  Uiso   1.00
H60    H     0.23858   0.31299   0.11184   0.00000  Uiso   1.00
H61    H     0.19942   0.27061   0.13371   0.00000  Uiso   1.00
H62    H     0.15002   0.29141   0.09131   0.00000  Uiso   1.00
H63    H     0.20021   0.27706   0.05537   0.00000  Uiso   1.00
H64    H     0.19150   0.33118   0.06702   0.00000  Uiso   1.00
H65    H     0.21365   0.08345   0.35545   0.00000  Uiso   1.00
H66    H     0.16647   0.07593   0.40111   0.00000  Uiso   1.00
H67    H     0.19149   0.00953   0.41575   0.00000  Uiso   1.00
H68    H     0.17658   0.00903   0.36393   0.00000  Uiso   1.00
H69    H     0.26917   0.02230   0.37433   0.00000  Uiso   1.00
H70    H     0.01429   0.20163   0.22022   0.00000  Uiso   1.00
H71    H     0.24278   0.30856   0.35279   0.00000  Uiso   1.00
H72    H     0.25332   0.02153   0.32244   0.00000  Uiso   1.00
H73    H     0.27664   0.06732   0.46508   0.00000  Uiso   1.00
H74    H     0.25361   0.01478   0.45776   0.00000  Uiso   1.00
H75    H     0.26161   0.03283   0.01115   0.00000  Uiso   1.00
H76    H     0.02843   0.23924   0.41936   0.00000  Uiso   1.00
H77    H     0.03477   0.23406   0.47338   0.00000  Uiso   1.00
H78    H     0.05253   0.16861   0.39244   0.00000  Uiso   1.00
H79    H     0.05740   0.16166   0.44764   0.00000  Uiso   1.00
H80    H     0.31278   0.16974   0.47926   0.00000  Uiso   1.00
H81    H     0.24564   0.08883   0.13687   0.00000  Uiso   1.00
H82    H     0.32189   0.12688   0.43719   0.00000  Uiso   1.00
H83    H     0.30798   0.17455   0.42327   0.00000  Uiso   1.00
H84    H     0.08503   0.18650   0.11114   0.00000  Uiso   1.00
H85    H     0.08583   0.15967   0.05794   0.00000  Uiso   1.00
H86    H     0.04346   0.24127   0.08470   0.00000  Uiso   1.00
H87    H     0.03277   0.19842   0.04560   0.00000  Uiso   1.00
H88    H     0.00407   0.15426   0.11508   0.00000  Uiso   1.00
H89    H     0.30659   0.19559   0.11142   0.00000  Uiso   1.00
H90    H     0.00848   0.20293   0.14817   0.00000  Uiso   1.00
H91    H     0.11925   0.31332   0.46739   0.00000  Uiso   1.00
H92    H     0.26641   0.12668   0.09656   0.00000  Uiso   1.00
H93    H     0.13947   0.31110   0.01624   0.00000  Uiso   1.00
H94    H     0.05304   0.00503   0.01394   0.00000  Uiso   1.00
H95    H     0.06778   0.33172   0.06456   0.00000  Uiso   1.00
H96    H     0.12896   0.05259   0.04698   0.00000  Uiso   1.00
H97    H     0.08095   0.07295   0.04501   0.00000  Uiso   1.00
H98    H     0.11866   0.05851   0.49335   0.00000  Uiso   1.00
H99    H     0.25903   0.21998   0.41485   0.00000  Uiso   1.00
H100   H     0.23073   0.22688   0.37320   0.00000  Uiso   1.00
H101   H     0.28342   0.21093   0.35631   0.00000  Uiso   1.00
H102   H     0.31566   0.07250   0.10740   0.00000  Uiso   1.00
H103   H     0.28738   0.03620   0.07501   0.00000  Uiso   1.00
H104   H     0.30745   0.10127   0.01989   0.00000  Uiso   1.00
H105   H     0.01064   0.06361   0.01762   0.00000  Uiso   1.00
O106   O     0.16667   0.16667   0.25000   0.00000  Uiso   1.00
O107   O     0.15451   0.12637   0.15459   0.00000  Uiso   1.00
O108   O     0.12940   0.20391   0.34968   0.00000  Uiso   1.00
O109   O     0.20824   0.17759   0.14606   0.00000  Uiso   1.00
O110   O     0.17451   0.15880   0.34968   0.00000  Uiso   1.00
O111   O     0.22339   0.07467   0.08036   0.00000  Uiso   1.00
O112   O     0.31464   0.12176   0.28708   0.00000  Uiso   1.00
O113   O     0.20334   0.00463   0.19438   0.00000  Uiso   1.00
O114   O     0.22636   0.08755   0.41794   0.00000  Uiso   1.00
O115   O     0.21082   0.05380   0.49453   0.00000  Uiso   1.00
O116   O     0.09111   0.24153   0.42122   0.00000  Uiso   1.00
O117   O     0.17930   0.08019   0.28214   0.00000  Uiso   1.00
O118   O     0.11859   0.22077   0.05922   0.00000  Uiso   1.00
O119   O     0.08783   0.26736   0.01047   0.00000  Uiso   1.00
O120   O     0.23582   0.16508   0.38185   0.00000  Uiso   1.00
O121   O     0.14632   0.26085   0.27014   0.00000  Uiso   1.00
O122   O     0.07412   0.13291   0.23413   0.00000  Uiso   1.00
O123   O     0.26693   0.19272   0.21361   0.00000  Uiso   1.00
O124   O     0.07071   0.18878   0.28213   0.00000  Uiso   1.00
O125   O     0.25491   0.15226   0.27014   0.00000  Uiso   1.00
O126   O     0.13760   0.06944   0.23413   0.00000  Uiso   1.00
O127   O     0.20345   0.25620   0.21361   0.00000  Uiso   1.00
Zn128  Zn    0.19338   0.13994   0.28734   0.00000  Uiso   1.00
Zn129  Zn    0.13379   0.12458   0.21876   0.00000  Uiso   1.00
Zn130  Zn    0.21056   0.19775   0.20657   0.00000  Uiso   1.00
Zn131  Zn    0.12893   0.20439   0.28734   0.00000  Uiso   1.00
C132   C     0.38632   0.15983   0.25982   0.00000  Uiso   1.00
C133   C     0.51540   0.16942   0.05827   0.00000  Uiso   1.00
C134   C     0.54347   0.10361   0.05848   0.00000  Uiso   1.00
C135   C     0.61403   0.17390   0.24061   0.00000  Uiso   1.00
C136   C     0.48081   0.19871   0.41934   0.00000  Uiso   1.00
C137   C     0.65924   0.17834   0.24027   0.00000  Uiso   1.00
C138   C     0.34059   0.15529   0.26538   0.00000  Uiso   1.00
C139   C     0.51032   0.32148   0.23290   0.00000  Uiso   1.00
C140   C     0.48655   0.01208   0.26485   0.00000  Uiso   1.00
C141   C     0.48940   0.05602   0.26071   0.00000  Uiso   1.00
C142   C     0.50936   0.27774   0.23964   0.00000  Uiso   1.00
C143   C     0.44759   0.23780   0.48831   0.00000  Uiso   1.00
C144   C     0.51897   0.14804   0.12946   0.00000  Uiso   1.00
C145   C     0.48343   0.18609   0.37098   0.00000  Uiso   1.00
C146   C     0.54349   0.09464   0.01310   0.00000  Uiso   1.00
C147   C     0.52741   0.14048   0.08107   0.00000  Uiso   1.00
C148   C     0.45071   0.22606   0.44293   0.00000  Uiso   1.00
C149   C     0.59028   0.09268   0.10037   0.00000  Uiso   1.00
C150   C     0.63033   0.06992   0.08177   0.00000  Uiso   1.00
C151   C     0.65944   0.08816   0.03920   0.00000  Uiso   1.00
C152   C     0.65937   0.11390   0.32628   0.00000  Uiso   1.00
C153   C     0.35071   0.07555   0.31776   0.00000  Uiso   1.00
C154   C     0.46507   0.21463   0.01315   0.00000  Uiso   1.00
C155   C     0.36314   0.06639   0.35956   0.00000  Uiso   1.00
C156   C     0.51481   0.33212   0.15990   0.00000  Uiso   1.00
C157   C     0.53705   0.30242   0.12195   0.00000  Uiso   1.00
C158   C     0.51850   0.30044   0.08143   0.00000  Uiso   1.00
C159   C     0.53412   0.07000   0.38845   0.00000  Uiso   1.00
C160   C     0.53414   0.02259   0.38244   0.00000  Uiso   1.00
C161   C     0.57768   0.00978   0.35636   0.00000  Uiso   1.00
C162   C     0.58613   0.04248   0.48203   0.00000  Uiso   1.00
C163   C     0.38092   0.22494   0.43736   0.00000  Uiso   1.00
C164   C     0.37349   0.17725   0.42863   0.00000  Uiso   1.00
C165   C     0.49543   0.18652   0.49081   0.00000  Uiso   1.00
C166   C     0.65935   0.16127   0.44310   0.00000  Uiso   1.00
C167   C     0.41699   0.19098   0.07658   0.00000  Uiso   1.00
C168   C     0.37414   0.20678   0.07831   0.00000  Uiso   1.00
C169   C     0.33773   0.18848   0.11544   0.00000  Uiso   1.00
C170   C     0.44343   0.30748   0.00358   0.00000  Uiso   1.00
C171   C     0.41386   0.00623   0.02915   0.00000  Uiso   1.00
C172   C     0.43721   0.05030   0.02834   0.00000  Uiso   1.00
C173   C     0.58585   0.20765   0.38213   0.00000  Uiso   1.00
C174   C     0.50582   0.18180   0.44324   0.00000  Uiso   1.00
C175   C     0.51469   0.16117   0.01336   0.00000  Uiso   1.00
C176   C     0.53273   0.12508   0.48974   0.00000  Uiso   1.00
C177   C     0.54210   0.12184   0.44280   0.00000  Uiso   1.00
C178   C     0.53885   0.15667   0.42171   0.00000  Uiso   1.00
H179   H     0.46763   0.00002   0.29622   0.00000  Uiso   1.00
H180   H     0.34969   0.11359   0.04769   0.00000  Uiso   1.00
H181   H     0.62924   0.10700   0.35237   0.00000  Uiso   1.00
H182   H     0.34396   0.14131   0.34057   0.00000  Uiso   1.00
H183   H     0.66393   0.04801   0.30696   0.00000  Uiso   1.00
H184   H     0.38037   0.08041   0.29064   0.00000  Uiso   1.00
H185   H     0.38533   0.09265   0.36935   0.00000  Uiso   1.00
H186   H     0.37967   0.03775   0.35254   0.00000  Uiso   1.00
H187   H     0.33427   0.06142   0.38775   0.00000  Uiso   1.00
H188   H     0.51621   0.02963   0.14693   0.00000  Uiso   1.00
H189   H     0.48002   0.32031   0.17093   0.00000  Uiso   1.00
H190   H     0.50744   0.19857   0.07651   0.00000  Uiso   1.00
H191   H     0.57191   0.31299   0.11184   0.00000  Uiso   1.00
H192   H     0.53275   0.27061   0.13371   0.00000  Uiso   1.00
H193   H     0.48335   0.29141   0.09131   0.00000  Uiso   1.00
H194   H     0.53355   0.27706   0.05537   0.00000  Uiso   1.00
H195   H     0.52484   0.33118   0.06702   0.00000  Uiso   1.00
H196   H     0.54699   0.08345   0.35545   0.00000  Uiso   1.00
H197   H     0.49980   0.07593   0.40111   0.00000  Uiso   1.00
H198   H     0.52483   0.00953   0.41575   0.00000  Uiso   1.00
H199   H     0.50992   0.00903   0.36393   0.00000  Uiso   1.00
H200   H     0.60250   0.02230   0.37433   0.00000  Uiso   1.00
H201   H     0.34762   0.20163   0.22022   0.00000  Uiso   1.00
H202   H     0.57611   0.30856   0.35279   0.00000  Uiso   1.00
H203   H     0.58666   0.02153   0.32244   0.00000  Uiso   1.00
H204   H     0.60997   0.06732   0.46508   0.00000  Uiso   1.00
H205   H     0.58694   0.01478   0.45776   0.00000  Uiso   1.00
H206   H     0.59494   0.03283   0.01115   0.00000  Uiso   1.00
H207   H     0.36176   0.23924   0.41936   0.00000  Uiso   1.00
H208   H     0.36810   0.23406   0.47338   0.00000  Uiso   1.00
H209   H     0.38586   0.16861   0.39244   0.00000  Uiso   1.00
H210   H     0.39073   0.16166   0.44764   0.00000  Uiso   1.00
H211   H     0.64612   0.16974   0.47926   0.00000  Uiso   1.00
H212   H     0.57897   0.08883   0.13687   0.00000  Uiso   1.00
H213   H     0.65522   0.12688   0.43719   0.00000  Uiso   1.00
H214   H     0.64131   0.17455   0.42327   0.00000  Uiso   1.00
H215   H     0.41836   0.18650   0.11114   0.00000  Uiso   1.00
H216   H     0.41917   0.15967   0.05794   0.00000  Uiso   1.00
H217   H     0.37679   0.24127   0.08470   0.00000  Uiso   1.00
H218   H     0.36611   0.19842   0.04560   0.00000  Uiso   1.00
H219   H     0.33741   0.15426   0.11508   0.00000  Uiso   1.00
H220   H     0.63993   0.19559   0.11142   0.00000  Uiso   1.00
H221   H     0.34182   0.20293   0.14817   0.00000  Uiso   1.00
H222   H     0.45258   0.31332   0.46739   0.00000  Uiso   1.00
H223   H     0.59974   0.12668   0.09656   0.00000  Uiso   1.00
H224   H     0.47280   0.31110   0.01624   0.00000  Uiso   1.00
H225   H     0.38637   0.00503   0.01394   0.00000  Uiso   1.00
H226   H     0.40111   0.33172   0.06456   0.00000  Uiso   1.00
H227   H     0.46230   0.05259   0.04698   0.00000  Uiso   1.00
H228   H     0.41429   0.07295   0.04501   0.00000  Uiso   1.00
H229   H     0.45199   0.05851   0.49335   0.00000  Uiso   1.00
H230   H     0.59237   0.21998   0.41485   0.00000  Uiso   1.00
H231   H     0.56406   0.22688   0.37320   0.00000  Uiso   1.00
H232   H     0.61676   0.21093   0.35631   0.00000  Uiso   1.00
H233   H     0.64899   0.07250   0.10740   0.00000  Uiso   1.00
H234   H     0.62071   0.03620   0.07501   0.00000  Uiso   1.00
H235   H     0.64078   0.10127   0.01989   0.00000  Uiso   1.00
H236   H     0.34397   0.06361   0.01762   0.00000  Uiso   1.00
O237   O     0.50000   0.16667   0.25000   0.00000  Uiso   1.00
O238   O     0.48784   0.12637   0.15459   0.00000  Uiso   1.00
O239   O     0.46274   0.20391   0.34968   0.00000  Uiso   1.00
O240   O     0.54157   0.17759   0.14606   0.00000  Uiso   1.00
O241   O     0.50785   0.15880   0.34968   0.00000  Uiso   1.00
O242   O     0.55672   0.07467   0.08036   0.00000  Uiso   1.00
O243   O     0.64798   0.12176   0.28708   0.00000  Uiso   1.00
O244   O     0.53667   0.00463   0.19438   0.00000  Uiso   1.00
O245   O     0.55969   0.08755   0.41794   0.00000  Uiso   1.00
O246   O     0.54416   0.05380   0.49453   0.00000  Uiso   1.00
O247   O     0.42444   0.24153   0.42122   0.00000  Uiso   1.00
O248   O     0.51264   0.08019   0.28214   0.00000  Uiso   1.00
O249   O     0.45192   0.22077   0.05922   0.00000  Uiso   1.00
O250   O     0.42116   0.26736   0.01047   0.00000  Uiso   1.00
O251   O     0.56915   0.16508   0.38185   0.00000  Uiso   1.00
O252   O     0.47965   0.26085   0.27014   0.00000  Uiso   1.00
O253   O     0.40745   0.13291   0.23413   0.00000  Uiso   1.00
O254   O     0.60026   0.19272   0.21361   0.00000  Uiso   1.00
O255   O     0.40405   0.18878   0.28213   0.00000  Uiso   1.00
O256   O     0.58824   0.15226   0.27014   0.00000  Uiso   1.00
O257   O     0.47093   0.06944   0.23413   0.00000  Uiso   1.00
O258   O     0.53678   0.25620   0.21361   0.00000  Uiso   1.00
Zn259  Zn    0.52672   0.13994   0.28734   0.00000  Uiso   1.00
Zn260  Zn    0.46713   0.12458   0.21876   0.00000  Uiso   1.00
Zn261  Zn    0.54389   0.19775   0.20657   0.00000  Uiso   1.00
Zn262  Zn    0.46226   0.20439   0.28734   0.00000  Uiso   1.00
C263   C     0.71965   0.15983   0.25982   0.00000  Uiso   1.00
C264   C     0.84873   0.16942   0.05827   0.00000  Uiso   1.00
C265   C     0.87681   0.10361   0.05848   0.00000  Uiso   1.00
C266   C     0.94736   0.17390   0.24061   0.00000  Uiso   1.00
C267   C     0.81414   0.19871   0.41934   0.00000  Uiso   1.00
C268   C     0.99258   0.17834   0.24027   0.00000  Uiso   1.00
C269   C     0.67392   0.15529   0.26538   0.00000  Uiso   1.00
C270   C     0.84365   0.32148   0.23290   0.00000  Uiso   1.00
C271   C     0.81988   0.01208   0.26485   0.00000  Uiso   1.00
C272   C     0.82274   0.05602   0.26071   0.00000  Uiso   1.00
C273   C     0.84270   0.27774   0.23964   0.00000  Uiso   1.00
C274   C     0.78092   0.23780   0.48831   0.00000  Uiso   1.00
C275   C     0.85230   0.14804   0.12946   0.00000  Uiso   1.00
C276   C     0.81677   0.18609   0.37098   0.00000  Uiso   1.00
C277   C     0.87682   0.09464   0.01310   0.00000  Uiso   1.00
C278   C     0.86074   0.14048   0.08107   0.00000  Uiso   1.00
C279   C     0.78404   0.22606   0.44293   0.00000  Uiso   1.00
C280   C     0.92362   0.09268   0.10037   0.00000  Uiso   1.00
C281   C     0.96366   0.06992   0.08177   0.00000  Uiso   1.00
C282   C     0.99277   0.08816   0.03920   0.00000  Uiso   1.00
C283   C     0.99270   0.11390   0.32628   0.00000  Uiso   1.00
C284   C     0.68404   0.07555   0.31776   0.00000  Uiso   1.00
C285   C     0.79840   0.21463   0.01315   0.00000  Uiso   1.00
C286   C     0.69648   0.06639   0.35956   0.00000  Uiso   1.00
C287   C     0.84815   0.33212   0.15990   0.00000  Uiso   1.00
C288   C     0.87038   0.30242   0.12195   0.00000  Uiso   1.00
C289   C     0.85183   0.30044   0.08143   0.00000  Uiso   1.00
C290   C     0.86745   0.07000   0.38845   0.00000  Uiso   1.00
C291   C     0.86747   0.02259   0.38244   0.00000  Uiso   1.00
C292   C     0.91101   0.00978   0.35636   0.00000  Uiso   1.00
C293   C     0.91946   0.04248   0.48203   0.00000  Uiso   1.00
C294   C     0.71425   0.22494   0.43736   0.00000  Uiso   1.00
C295   C     0.70682   0.17725   0.42863   0.00000  Uiso   1.00
C296   C     0.82877   0.18652   0.49081   0.00000  Uiso   1.00
C297   C     0.99268   0.16127   0.44310   0.00000  Uiso   1.00
C298   C     0.75033   0.19098   0.07658   0.00000  Uiso   1.00
C299   C     0.70747   0.20678   0.07831   0.00000  Uiso   1.00
C300   C     0.67106   0.18848   0.11544   0.00000  Uiso   1.00
C301   C     0.77676   0.30748   0.00358   0.00000  Uiso   1.00
C302   C     0.74720   0.00623   0.02915   0.00000  Uiso   1.00
C303   C     0.77055   0.05030   0.02834   0.00000  Uiso   1.00
C304   C     0.91918   0.20765   0.38213   0.00000  Uiso   1.00
C305   C     0.83915   0.18180   0.44324   0.00000  Uiso   1.00
C306   C     0.84802   0.16117   0.01336   0.00000  Uiso   1.00
C307   C     0.86606   0.12508   0.48974   0.00000  Uiso   1.00
C308   C     0.87543   0.12184   0.44280   0.00000  Uiso   1.00
C309   C     0.87219   0.15667   0.42171   0.00000  Uiso   1.00
H310   H     0.80096   0.00002   0.29622   0.00000  Uiso   1.00
H311   H     0.68302   0.11359   0.04769   0.00000  Uiso   1.00
H312   H     0.96257   0.10700   0.35237   0.00000  Uiso   1.00
H313   H     0.67729   0.14131   0.34057   0.00000  Uiso   1.00
H314   H     0.99727   0.04801   0.30696   0.00000  Uiso   1.00
H315   H     0.71371   0.08041   0.29064   0.00000  Uiso   1.00
H316   H     0.71866   0.09265   0.36935   0.00000  Uiso   1.00
H317   H     0.71301   0.03775   0.35254   0.00000  Uiso   1.00
H318   H     0.66760   0.06142   0.38775   0.00000  Uiso   1.00
H319   H     0.84954   0.02963   0.14693   0.00000  Uiso   1.00
H320   H     0.81335   0.32031   0.17093   0.00000  Uiso   1.00
H321   H     0.84077   0.19857   0.07651   0.00000  Uiso   1.00
H322   H     0.90525   0.31299   0.11184   0.00000  Uiso   1.00
H323   H     0.86608   0.27061   0.13371   0.00000  Uiso   1.00
H324   H     0.81669   0.29141   0.09131   0.00000  Uiso   1.00
H325   H     0.86688   0.27706   0.05537   0.00000  Uiso   1.00
H326   H     0.85817   0.33118   0.06702   0.00000  Uiso   1.00
H327   H     0.88032   0.08345   0.35545   0.00000  Uiso   1.00
H328   H     0.83313   0.07593   0.40111   0.00000  Uiso   1.00
H329   H     0.85816   0.00953   0.41575   0.00000  Uiso   1.00
H330   H     0.84325   0.00903   0.36393   0.00000  Uiso   1.00
H331   H     0.93584   0.02230   0.37433   0.00000  Uiso   1.00
H332   H     0.68095   0.20163   0.22022   0.00000  Uiso   1.00
H333   H     0.90944   0.30856   0.35279   0.00000  Uiso   1.00
H334   H     0.91999   0.02153   0.32244   0.00000  Uiso   1.00
H335   H     0.94331   0.06732   0.46508   0.00000  Uiso   1.00
H336   H     0.92028   0.01478   0.45776   0.00000  Uiso   1.00
H337   H     0.92827   0.03283   0.01115   0.00000  Uiso   1.00
H338   H     0.69509   0.23924   0.41936   0.00000  Uiso   1.00
H339   H     0.70143   0.23406   0.47338   0.00000  Uiso   1.00
H340   H     0.71920   0.16861   0.39244   0.00000  Uiso   1.00
H341   H     0.72407   0.16166   0.44764   0.00000  Uiso   1.00
H342   H     0.97945   0.16974   0.47926   0.00000  Uiso   1.00
H343   H     0.91230   0.08883   0.13687   0.00000  Uiso   1.00
H344   H     0.98855   0.12688   0.43719   0.00000  Uiso   1.00
H345   H     0.97465   0.17455   0.42327   0.00000  Uiso   1.00
H346   H     0.75169   0.18650   0.11114   0.00000  Uiso   1.00
H347   H     0.75250   0.15967   0.05794   0.00000  Uiso   1.00
H348   H     0.71013   0.24127   0.08470   0.00000  Uiso   1.00
H349   H     0.69944   0.19842   0.04560   0.00000  Uiso   1.00
H350   H     0.67074   0.15426   0.11508   0.00000  Uiso   1.00
H351   H     0.97326   0.19559   0.11142   0.00000  Uiso   1.00
H352   H     0.67515   0.20293   0.14817   0.00000  Uiso   1.00
H353   H     0.78591   0.31332   0.46739   0.00000  Uiso   1.00
H354   H     0.93308   0.12668   0.09656   0.00000  Uiso   1.00
H355   H     0.80613   0.31110   0.01624   0.00000  Uiso   1.00
H356   H     0.71970   0.00503   0.01394   0.00000  Uiso   1.00
H357   H     0.73445   0.33172   0.06456   0.00000  Uiso   1.00
H358   H     0.79563   0.05259   0.04698   0.00000  Uiso   1.00
H359   H     0.74762   0.07295   0.04501   0.00000  Uiso   1.00
H360   H     0.78532   0.05851   0.49335   0.00000  Uiso   1.00
H361   H     0.92570   0.21998   0.41485   0.00000  Uiso   1.00
H362   H     0.89739   0.22688   0.37320   0.00000  Uiso   1.00
H363   H     0.95009   0.21093   0.35631   0.00000  Uiso   1.00
H364   H     0.98233   0.07250   0.10740   0.00000  Uiso   1.00
H365   H     0.95404   0.03620   0.07501   0.00000  Uiso   1.00
H366   H     0.97411   0.10127   0.01989   0.00000  Uiso   1.00
H367   H     0.67731   0.06361   0.01762   0.00000  Uiso   1.00
O368   O     0.83333   0.16667   0.25000   0.00000  Uiso   1.00
O369   O     0.82118   0.12637   0.15459   0.00000  Uiso   1.00
O370   O     0.79607   0.20391   0.34968   0.00000  Uiso   1.00
O371   O     0.87491   0.17759   0.14606   0.00000  Uiso   1.00
O372   O     0.84118   0.15880   0.34968   0.00000  Uiso   1.00
O373   O     0.89005   0.07467   0.08036   0.00000  Uiso   1.00
O374   O     0.98131   0.12176   0.28708   0.00000  Uiso   1.00
O375   O     0.87001   0.00463   0.19438   0.00000  Uiso   1.00
O376   O     0.89302   0.08755   0.41794   0.00000  Uiso   1.00
O377   O     0.87749   0.05380   0.49453   0.00000  Uiso   1.00
O378   O     0.75777   0.24153   0.42122   0.00000  Uiso   1.00
O379   O     0.84597   0.08019   0.28214   0.00000  Uiso   1.00
O380   O     0.78526   0.22077   0.05922   0.00000  Uiso   1.00
O381   O     0.75449   0.26736   0.01047   0.00000  Uiso   1.00
O382   O     0.90248   0.16508   0.38185   0.00000  Uiso   1.00
O383   O     0.81298   0.26085   0.27014   0.00000  Uiso   1.00
O384   O     0.74078   0.13291   0.23413   0.00000  Uiso   1.00
O385   O     0.93360   0.19272   0.21361   0.00000  Uiso   1.00
O386   O     0.73738   0.18878   0.28213   0.00000  Uiso   1.00
O387   O     0.92158   0.15226   0.27014   0.00000  Uiso   1.00
O388   O     0.80426   0.06944   0.23413   0.00000  Uiso   1.00
O389   O     0.87012   0.25620   0.21361   0.00000  Uiso   1.00
Zn390  Zn    0.86005   0.13994   0.28734   0.00000  Uiso   1.00
Zn391  Zn    0.80046   0.12458   0.21876   0.00000  Uiso   1.00
Zn392  Zn    0.87723   0.19775   0.20657   0.00000  Uiso   1.00
Zn393  Zn    0.79560   0.20439   0.28734   0.00000  Uiso   1.00
C394   C     0.05298   0.49316   0.25982   0.00000  Uiso   1.00
C395   C     0.18207   0.50275   0.05827   0.00000  Uiso   1.00
C396   C     0.21014   0.43694   0.05848   0.00000  Uiso   1.00
C397   C     0.28070   0.50723   0.24061   0.00000  Uiso   1.00
C398   C     0.14748   0.53204   0.41934   0.00000  Uiso   1.00
C399   C     0.32591   0.51167   0.24027   0.00000  Uiso   1.00
C400   C     0.00726   0.48862   0.26538   0.00000  Uiso   1.00
C401   C     0.17698   0.65481   0.23290   0.00000  Uiso   1.00
C402   C     0.15321   0.34541   0.26485   0.00000  Uiso   1.00
C403   C     0.15607   0.38935   0.26071   0.00000  Uiso   1.00
C404   C     0.17603   0.61108   0.23964   0.00000  Uiso   1.00
C405   C     0.11426   0.57113   0.48831   0.00000  Uiso   1.00
C406   C     0.18563   0.48137   0.12946   0.00000  Uiso   1.00
C407   C     0.15010   0.51942   0.37098   0.00000  Uiso   1.00
C408   C     0.21015   0.42797   0.01310   0.00000  Uiso   1.00
C409   C     0.19408   0.47381   0.08107   0.00000  Uiso   1.00
C410   C     0.11738   0.55939   0.44293   0.00000  Uiso   1.00
C411   C     0.25695   0.42601   0.10037   0.00000  Uiso   1.00
C412   C     0.29700   0.40325   0.08177   0.00000  Uiso   1.00
C413   C     0.32610   0.42149   0.03920   0.00000  Uiso   1.00
C414   C     0.32604   0.44723   0.32628   0.00000  Uiso   1.00
C415   C     0.01738   0.40889   0.31776   0.00000  Uiso   1.00
C416   C     0.13173   0.54797   0.01315   0.00000  Uiso   1.00
C417   C     0.02981   0.39973   0.35956   0.00000  Uiso   1.00
C418   C     0.18148   0.66545   0.15990   0.00000  Uiso   1.00
C419   C     0.20372   0.63576   0.12195   0.00000  Uiso   1.00
C420   C     0.18516   0.63377   0.08143   0.00000  Uiso   1.00
C421   C     0.20079   0.40333   0.38845   0.00000  Uiso   1.00
C422   C     0.20081   0.35592   0.38244   0.00000  Uiso   1.00
C423   C     0.24435   0.34311   0.35636   0.00000  Uiso   1.00
C424   C     0.25280   0.37582   0.48203   0.00000  Uiso   1.00
C425   C     0.04759   0.55827   0.43736   0.00000  Uiso   1.00
C426   C     0.04016   0.51058   0.42863   0.00000  Uiso   1.00
C427   C     0.16210   0.51986   0.49081   0.00000  Uiso   1.00
C428   C     0.32601   0.49461   0.44310   0.00000  Uiso   1.00
C429   C     0.08366   0.52431   0.07658   0.00000  Uiso   1.00
C430   C     0.04080   0.54011   0.07831   0.00000  Uiso   1.00
C431   C     0.00440   0.52181   0.11544   0.00000  Uiso   1.00
C432   C     0.11009   0.64081   0.00358   0.00000  Uiso   1.00
C433   C     0.08053   0.33957   0.02915   0.00000  Uiso   1.00
C434   C     0.10388   0.38363   0.02834   0.00000  Uiso   1.00
C435   C     0.25251   0.54098   0.38213   0.00000  Uiso   1.00
C436   C     0.17249   0.51513   0.44324   0.00000  Uiso   1.00
C437   C     0.18135   0.49450   0.01336   0.00000  Uiso   1.00
C438   C     0.19940   0.45842   0.48974   0.00000  Uiso   1.00
C439   C     0.20877   0.45518   0.44280   0.00000  Uiso   1.00
C440   C     0.20552   0.49000   0.42171   0.00000  Uiso   1.00
H441   H     0.13429   0.33335   0.29622   0.00000  Uiso   1.00
H442   H     0.01635   0.44692   0.04769   0.00000  Uiso   1.00
H443   H     0.29590   0.44034   0.35237   0.00000  Uiso   1.00
H444   H     0.01063   0.47464   0.34057   0.00000  Uiso   1.00
H445   H     0.33060   0.38135   0.30696   0.00000  Uiso   1.00
H446   H     0.04704   0.41374   0.29064   0.00000  Uiso   1.00
H447   H     0.05199   0.42599   0.36935   0.00000  Uiso   1.00
H448   H     0.04634   0.37108   0.35254   0.00000  Uiso   1.00
H449   H     0.00094   0.39475   0.38775   0.00000  Uiso   1.00
H450   H     0.18287   0.36297   0.14693   0.00000  Uiso   1.00
H451   H     0.14668   0.65365   0.17093   0.00000  Uiso   1.00
H452   H     0.17410   0.53190   0.07651   0.00000  Uiso   1.00
H453   H     0.23858   0.64632   0.11184   0.00000  Uiso   1.00
H454   H     0.19942   0.60395   0.13371   0.00000  Uiso   1.00
H455   H     0.15002   0.62474   0.09131   0.00000  Uiso   1.00
H456   H     0.20021   0.61039   0.05537   0.00000  Uiso   1.00
H457   H     0.19150   0.66452   0.06702   0.00000  Uiso   1.00
H458   H     0.21365   0.41678   0.35545   0.00000  Uiso   1.00
H459   H     0.16647   0.40927   0.40111   0.00000  Uiso   1.00
H460   H     0.19149   0.34286   0.41575   0.00000  Uiso   1.00
H461   H     0.17658   0.34236   0.36393   0.00000  Uiso   1.00
H462   H     0.26917   0.35563   0.37433   0.00000  Uiso   1.00
H463   H     0.01429   0.53496   0.22022   0.00000  Uiso   1.00
H464   H     0.24278   0.64190   0.35279   0.00000  Uiso   1.00
H465   H     0.25332   0.35486   0.32244   0.00000  Uiso   1.00
H466   H     0.27664   0.40065   0.46508   0.00000  Uiso   1.00
H467   H     0.25361   0.34812   0.45776   0.00000  Uiso   1.00
H468   H     0.26161   0.36616   0.01115   0.00000  Uiso   1.00
H469   H     0.02843   0.57257   0.41936   0.00000  Uiso   1.00
H470   H     0.03477   0.56739   0.47338   0.00000  Uiso   1.00
H471   H     0.05253   0.50194   0.39244   0.00000  Uiso   1.00
H472   H     0.05740   0.49499   0.44764   0.00000  Uiso   1.00
H473   H     0.31278   0.50307   0.47926   0.00000  Uiso   1.00
H474   H     0.24564   0.42216   0.13687   0.00000  Uiso   1.00
H475   H     0.32189   0.46021   0.43719   0.00000  Uiso   1.00
H476   H     0.30798   0.50788   0.42327   0.00000  Uiso   1.00
H477   H     0.08503   0.51984   0.11114   0.00000  Uiso   1.00
H478   H     0.08583   0.49300   0.05794   0.00000  Uiso   1.00
H479   H     0.04346   0.57460   0.08470   0.00000  Uiso   1.00
H480   H     0.03277   0.53176   0.04560   0.00000  Uiso   1.00
H481   H     0.00407   0.48759   0.11508   0.00000  Uiso   1.00
H482   H     0.30659   0.52892   0.11142   0.00000  Uiso   1.00
H483   H     0.00848   0.53626   0.14817   0.00000  Uiso   1.00
H484   H     0.11925   0.64665   0.46739   0.00000  Uiso   1.00
H485   H     0.26641   0.46001   0.09656   0.00000  Uiso   1.00
H486   H     0.13947   0.64444   0.01624   0.00000  Uiso   1.00
H487   H     0.05304   0.33836   0.01394   0.00000  Uiso   1.00
H488   H     0.06778   0.66505   0.06456   0.00000  Uiso   1.00
H489   H     0.12896   0.38592   0.04698   0.00000  Uiso   1.00
H490   H     0.08095   0.40628   0.04501   0.00000  Uiso   1.00
H491   H     0.11866   0.39184   0.49335   0.00000  Uiso   1.00
H492   H     0.25903   0.55331   0.41485   0.00000  Uiso   1.00
H493   H     0.23073   0.56021   0.37320   0.00000  Uiso   1.00
H494   H     0.28342   0.54427   0.35631   0.00000  Uiso   1.00
H495   H     0.31566   0.40583   0.10740   0.00000  Uiso   1.00
H496   H     0.28738   0.36953   0.07501   0.00000  Uiso   1.00
H497   H     0.30745   0.43460   0.01989   0.00000  Uiso   1.00
H498   H     0.01064   0.39694   0.01762   0.00000  Uiso   1.00
O499   O     0.16667   0.50000   0.25000   0.00000  Uiso   1.00
O500   O     0.15451   0.45970   0.15459   0.00000  Uiso   1.00
O501   O     0.12940   0.53724   0.34968   0.00000  Uiso   1.00
O502   O     0.20824   0.51092   0.14606   0.00000  Uiso   1.00
O503   O     0.17451   0.49213   0.34968   0.00000  Uiso   1.00
O504   O     0.22339   0.40800   0.08036   0.00000  Uiso   1.00
O505   O     0.31464   0.45509   0.28708   0.00000  Uiso   1.00
O506   O     0.20334   0.33797   0.19438   0.00000  Uiso   1.00
O507   O     0.22636   0.42088   0.41794   0.00000  Uiso   1.00
O508   O     0.21082   0.38713   0.49453   0.00000  Uiso   1.00
O509   O     0.09111   0.57486   0.42122   0.00000  Uiso   1.00
O510   O     0.17930   0.41352   0.28214   0.00000  Uiso   1.00
O511   O     0.11859   0.55410   0.05922   0.00000  Uiso   1.00
O512   O     0.08783   0.60070   0.01047   0.00000  Uiso   1.00
O513   O     0.23582   0.49841   0.38185   0.00000  Uiso   1.00
O514   O     0.14632   0.59418   0.27014   0.00000  Uiso   1.00
O515   O     0.07412   0.46625   0.23413   0.00000  Uiso   1.00
O516   O     0.26693   0.52605   0.21361   0.00000  Uiso   1.00
O517   O     0.07071   0.52211   0.28213   0.00000  Uiso   1.00
O518   O     0.25491   0.48559   0.27014   0.00000  Uiso   1.00
O519   O     0.13760   0.40277   0.23413   0.00000  Uiso   1.00
O520   O     0.20345   0.58953   0.21361   0.00000  Uiso   1.00
Zn521  Zn    0.19338   0.47327   0.28734   0.00000  Uiso   1.00
Zn522  Zn    0.13379   0.45791   0.21876   0.00000  Uiso   1.00
Zn523  Zn    0.21056   0.53109   0.20657   0.00000  Uiso   1.00
Zn524  Zn    0.12893   0.53773   0.28734   0.00000  Uiso   1.00
C525   C     0.38632   0.49316   0.25982   0.00000  Uiso   1.00
C526   C     0.51540   0.50275   0.05827   0.00000  Uiso   1.00
C527   C     0.54347   0.43694   0.05848   0.00000  Uiso   1.00
C528   C     0.61403   0.50723   0.24061   0.00000  Uiso   1.00
C529   C     0.48081   0.53204   0.41934   0.00000  Uiso   1.00
C530   C     0.65924   0.51167   0.24027   0.00000  Uiso   1.00
C531   C     0.34059   0.48862   0.26538   0.00000  Uiso   1.00
C532   C     0.51032   0.65481   0.23290   0.00000  Uiso   1.00
C533   C     0.48655   0.34541   0.26485   0.00000  Uiso   1.00
C534   C     0.48940   0.38935   0.26071   0.00000  Uiso   1.00
C535   C     0.50936   0.61108   0.23964   0.00000  Uiso   1.00
C536   C     0.44759   0.57113   0.48831   0.00000  Uiso   1.00
C537   C     0.51897   0.48137   0.12946   0.00000  Uiso   1.00
C538   C     0.48343   0.51942   0.37098   0.00000  Uiso   1.00
C539   C     0.54349   0.42797   0.01310   0.00000  Uiso   1.00
C540   C     0.52741   0.47381   0.08107   0.00000  Uiso   1.00
C541   C     0.45071   0.55939   0.44293   0.00000  Uiso   1.00
C542   C     0.59028   0.42601   0.10037   0.00000  Uiso   1.00
C543   C     0.63033   0.40325   0.08177   0.00000  Uiso   1.00
C544   C     0.65944   0.42149   0.03920   0.00000  Uiso   1.00
C545   C     0.65937   0.44723   0.32628   0.00000  Uiso   1.00
C546   C     0.35071   0.40889   0.31776   0.00000  Uiso   1.00
C547   C     0.46507   0.54797   0.01315   0.00000  Uiso   1.00
C548   C     0.36314   0.39973   0.35956   0.00000  Uiso   1.00
C549   C     0.51481   0.66545   0.15990   0.00000  Uiso   1.00
C550   C     0.53705   0.63576   0.12195   0.00000  Uiso   1.00
C551   C     0.51850   0.63377   0.08143   0.00000  Uiso   1.00
C552   C     0.53412   0.40333   0.38845   0.00000  Uiso   1.00
C553   C     0.53414   0.35592   0.38244   0.00000  Uiso   1.00
C554   C     0.57768   0.34311   0.35636   0.00000  Uiso   1.00
C555   C     0.58613   0.37582   0.48203   0.00000  Uiso   1.00
C556   C     0.38092   0.55827   0.43736   0.00000  Uiso   1.00
C557   C     0.37349   0.51058   0.42863   0.00000  Uiso   1.00
C558   C     0.49543   0.51986   0.49081   0.00000  Uiso   1.00
C559   C     0.65935   0.49461   0.44310   0.00000  Uiso   1.00
C560   C     0.41699   0.52431   0.07658   0.00000  Uiso   1.00
C561   C     0.37414   0.54011   0.07831   0.00000  Uiso   1.00
C562   C     0.33773   0.52181   0.11544   0.00000  Uiso   1.00
C563   C     0.44343   0.64081   0.00358   0.00000  Uiso   1.00
C564   C     0.41386   0.33957   0.02915   0.00000  Uiso   1.00
C565   C     0.43721   0.38363   0.02834   0.00000  Uiso   1.00
C566   C     0.58585   0.54098   0.38213   0.00000  Uiso   1.00
C567   C     0.50582   0.51513   0.44324   0.00000  Uiso   1.00
C568   C     0.51469   0.49450   0.01336   0.00000  Uiso   1.00
C569   C     0.53273   0.45842   0.48974   0.00000  Uiso   1.00
C570   C     0.54210   0.45518   0.44280   0.00000  Uiso   1.00
C571   C     0.53885   0.49000   0.42171   0.00000  Uiso   1.00
H572   H     0.46763   0.33335   0.29622   0.00000  Uiso   1.00
H573   H     0.34969   0.44692   0.04769   0.00000  Uiso   1.00
H574   H     0.62924   0.44034   0.35237   0.00000  Uiso   1.00
H575   H     0.34396   0.47464   0.34057   0.00000  Uiso   1.00
H576   H     0.66393   0.38135   0.30696   0.00000  Uiso   1.00
H577   H     0.38037   0.41374   0.29064   0.00000  Uiso   1.00
H578   H     0.38533   0.42599   0.36935   0.00000  Uiso   1.00
H579   H     0.37967   0.37108   0.35254   0.00000  Uiso   1.00
H580   H     0.33427   0.39475   0.38775   0.00000  Uiso   1.00
H581   H     0.51621   0.36297   0.14693   0.00000  Uiso   1.00
H582   H     0.48002   0.65365   0.17093   0.00000  Uiso   1.00
H583   H     0.50744   0.53190   0.07651   0.00000  Uiso   1.00
H584   H     0.57191   0.64632   0.11184   0.00000  Uiso   1.00
H585   H     0.53275   0.60395   0.13371   0.00000  Uiso   1.00
H586   H     0.48335   0.62474   0.09131   0.00000  Uiso   1.00
H587   H     0.53355   0.61039   0.05537   0.00000  Uiso   1.00
H588   H     0.52484   0.66452   0.06702   0.00000  Uiso   1.00
H589   H     0.54699   0.41678   0.35545   0.00000  Uiso   1.00
H590   H     0.49980   0.40927   0.40111   0.00000  Uiso   1.00
H591   H     0.52483   0.34286   0.41575   0.00000  Uiso   1.00
H592   H     0.50992   0.34236   0.36393   0.00000  Uiso   1.00
H593   H     0.60250   0.35563   0.37433   0.00000  Uiso   1.00
H594   H     0.34762   0.53496   0.22022   0.00000  Uiso   1.00
H595   H     0.57611   0.64190   0.35279   0.00000  Uiso   1.00
H596   H     0.58666   0.35486   0.32244   0.00000  Uiso   1.00
H597   H     0.60997   0.40065   0.46508   0.00000  Uiso   1.00
H598   H     0.58694   0.34812   0.45776   0.00000  Uiso   1.00
H599   H     0.59494   0.36616   0.01115   0.00000  Uiso   1.00
H600   H     0.36176   0.57257   0.41936   0.00000  Uiso   1.00
H601   H     0.36810   0.56739   0.47338   0.00000  Uiso   1.00
H602   H     0.38586   0.50194   0.39244   0.00000  Uiso   1.00
H603   H     0.39073   0.49499   0.44764   0.00000  Uiso   1.00
H604   H     0.64612   0.50307   0.47926   0.00000  Uiso   1.00
H605   H     0.57897   0.42216   0.13687   0.00000  Uiso   1.00
H606   H     0.65522   0.46021   0.43719   0.00000  Uiso   1.00
H607   H     0.64131   0.50788   0.42327   0.00000  Uiso   1.00
H608   H     0.41836   0.51984   0.11114   0.00000  Uiso   1.00
H609   H     0.41917   0.49300   0.05794   0.00000  Uiso   1.00
H610   H     0.37679   0.57460   0.08470   0.00000  Uiso   1.00
H611   H     0.36611   0.53176   0.04560   0.00000  Uiso   1.00
H612   H     0.33741   0.48759   0.11508   0.00000  Uiso   1.00
H613   H     0.63993   0.52892   0.11142   0.00000  Uiso   1.00
H614   H     0.34182   0.53626   0.14817   0.00000  Uiso   1.00
H615   H     0.45258   0.64665   0.46739   0.00000  Uiso   1.00
H616   H     0.59974   0.46001   0.09656   0.00000  Uiso   1.00
H617   H     0.47280   0.64444   0.01624   0.00000  Uiso   1.00
H618   H     0.38637   0.33836   0.01394   0.00000  Uiso   1.00
H619   H     0.40111   0.66505   0.06456   0.00000  Uiso   1.00
H620   H     0.46230   0.38592   0.04698   0.00000  Uiso   1.00
H621   H     0.41429   0.40628   0.04501   0.00000  Uiso   1.00
H622   H     0.45199   0.39184   0.49335   0.00000  Uiso   1.00
H623   H     0.59237   0.55331   0.41485   0.00000  Uiso   1.00
H624   H     0.56406   0.56021   0.37320   0.00000  Uiso   1.00
H625   H     0.61676   0.54427   0.35631   0.00000  Uiso   1.00
H626   H     0.64899   0.40583   0.10740   0.00000  Uiso   1.00
H627   H     0.62071   0.36953   0.07501   0.00000  Uiso   1.00
H628   H     0.64078   0.43460   0.01989   0.00000  Uiso   1.00
H629   H     0.34397   0.39694   0.01762   0.00000  Uiso   1.00
O630   O     0.50000   0.50000   0.25000   0.00000  Uiso   1.00
O631   O     0.48784   0.45970   0.15459   0.00000  Uiso   1.00
O632   O     0.46274   0.53724   0.34968   0.00000  Uiso   1.00
O633   O     0.54157   0.51092   0.14606   0.00000  Uiso   1.00
O634   O     0.50785   0.49213   0.34968   0.00000  Uiso   1.00
O635   O     0.55672   0.40800   0.08036   0.00000  Uiso   1.00
O636   O     0.64798   0.45509   0.28708   0.00000  Uiso   1.00
O637   O     0.53667   0.33797   0.19438   0.00000  Uiso   1.00
O638   O     0.55969   0.42088   0.41794   0.00000  Uiso   1.00
O639   O     0.54416   0.38713   0.49453   0.00000  Uiso   1.00
O640   O     0.42444   0.57486   0.42122   0.00000  Uiso   1.00
O641   O     0.51264   0.41352   0.28214   0.00000  Uiso   1.00
O642   O     0.45192   0.55410   0.05922   0.00000  Uiso   1.00
O643   O     0.42116   0.60070   0.01047   0.00000  Uiso   1.00
O644   O     0.56915   0.49841   0.38185   0.00000  Uiso   1.00
O645   O     0.47965   0.59418   0.27014   0.00000  Uiso   1.00
O646   O     0.40745   0.46625   0.23413   0.00000  Uiso   1.00
O647   O     0.60026   0.52605   0.21361   0.00000  Uiso   1.00
O648   O     0.40405   0.52211   0.28213   0.00000  Uiso   1.00
O649   O     0.58824   0.48559   0.27014   0.00000  Uiso   1.00
O650   O     0.47093   0.40277   0.23413   0.00000  Uiso   1.00
O651   O     0.53678   0.58953   0.21361   0.00000  Uiso   1.00
Zn652  Zn    0.52672   0.47327   0.28734   0.00000  Uiso   1.00
Zn653  Zn    0.46713   0.45791   0.21876   0.00000  Uiso   1.00
Zn654  Zn    0.54389   0.53109   0.20657   0.00000  Uiso   1.00
Zn655  Zn    0.46226   0.53773   0.28734   0.00000  Uiso   1.00
C656   C     0.71965   0.49316   0.25982   0.00000  Uiso   1.00
C657   C     0.84873   0.50275   0.05827   0.00000  Uiso   1.00
C658   C     0.87681   0.43694   0.05848   0.00000  Uiso   1.00
C659   C     0.94736   0.50723   0.24061   0.00000  Uiso   1.00
C660   C     0.81414   0.53204   0.41934   0.00000  Uiso   1.00
C661   C     0.99258   0.51167   0.24027   0.00000  Uiso   1.00
C662   C     0.67392   0.48862   0.26538   0.00000  Uiso   1.00
C663   C     0.84365   0.65481   0.23290   0.00000  Uiso   1.00
C664   C     0.81988   0.34541   0.26485   0.00000  Uiso   1.00
C665   C     0.82274   0.38935   0.26071   0.00000  Uiso   1.00
C666   C     0.84270   0.61108   0.23964   0.00000  Uiso   1.00
C667   C     0.78092   0.57113   0.48831   0.00000  Uiso   1.00
C668   C     0.85230   0.48137   0.12946   0.00000  Uiso   1.00
C669   C     0.81677   0.51942   0.37098   0.00000  Uiso   1.00
C670   C     0.87682   0.42797   0.01310   0.00000  Uiso   1.00
C671   C     0.86074   0.47381   0.08107   0.00000  Uiso   1.00
C672   C     0.78404   0.55939   0.44293   0.00000  Uiso   1.00
C673   C     0.92362   0.42601   0.10037   0.00000  Uiso   1.00
C674   C     0.96366   0.40325   0.08177   0.00000  Uiso   1.00
C675   C     0.99277   0.42149   0.03920   0.00000  Uiso   1.00
C676   C     0.99270   0.44723   0.32628   0.00000  Uiso   1.00
C677   C     0.68404   0.40889   0.31776   0.00000  Uiso   1.00
C678   C     0.79840   0.54797   0.01315   0.00000  Uiso   1.00
C679   C     0.69648   0.39973   0.35956   0.00000  Uiso   1.00
C680   C     0.84815   0.66545   0.15990   0.00000  Uiso   1.00
C681   C     0.87038   0.63576   0.12195   0.00000  Uiso   1.00
C682   C     0.85183   0.63377   0.08143   0.00000  Uiso   1.00
C683   C     0.86745   0.40333   0.38845   0.00000  Uiso   1.00
C684   C     0.86747   0.35592   0.38244   0.00000  Uiso   1.00
C685   C     0.91101   0.34311   0.35636   0.00000  Uiso   1.00
C686   C     0.91946   0.37582   0.48203   0.00000  Uiso   1.00
C687   C     0.71425   0.55827   0.43736   0.00000  Uiso   1.00
C688   C     0.70682   0.51058   0.42863   0.00000  Uiso   1.00
C689   C     0.82877   0.51986   0.49081   0.00000  Uiso   1.00
C690   C     0.99268   0.49461   0.44310   0.00000  Uiso   1.00
C691   C     0.75033   0.52431   0.07658   0.00000  Uiso   1.00
C692   C     0.70747   0.54011   0.07831   0.00000  Uiso   1.00
C693   C     0.67106   0.52181   0.11544   0.00000  Uiso   1.00
C694   C     0.77676   0.64081   0.00358   0.00000  Uiso   1.00
C695   C     0.74720   0.33957   0.02915   0.00000  Uiso   1.00
C696   C     0.77055   0.38363   0.02834   0.00000  Uiso   1.00
C697   C     0.91918   0.54098   0.38213   0.00000  Uiso   1.00
C698   C     0.83915   0.51513   0.44324   0.00000  Uiso   1.00
C699   C     0.84802   0.49450   0.01336   0.00000  Uiso   1.00
C700   C     0.86606   0.45842   0.48974   0.00000  Uiso   1.00
C701   C     0.87543   0.45518   0.44280   0.00000  Uiso   1.00
C702   C     0.87219   0.49000   0.42171   0.00000  Uiso   1.00
H703   H     0.80096   0.33335   0.29622   0.00000  Uiso   1.00
H704   H     0.68302   0.44692   0.04769   0.00000  Uiso   1.00
H705   H     0.96257   0.44034   0.35237   0.00000  Uiso   1.00
H706   H     0.67729   0.47464   0.34057   0.00000  Uiso   1.00
H707   H     0.99727   0.38135   0.30696   0.00000  Uiso   1.00
H708   H     0.71371   0.41374   0.29064   0.00000  Uiso   1.00
H709   H     0.71866   0.42599   0.36935   0.00000  Uiso   1.00
H710   H     0.71301   0.37108   0.35254   0.00000  Uiso   1.00
H711   H     0.66760   0.39475   0.38775   0.00000  Uiso   1.00
H712   H     0.84954   0.36297   0.14693   0.00000  Uiso   1.00
H713   H     0.81335   0.65365   0.17093   0.00000  Uiso   1.00
H714   H     0.84077   0.53190   0.07651   0.00000  Uiso   1.00
H715   H     0.90525   0.64632   0.11184   0.00000  Uiso   1.00
H716   H     0.86608   0.60395   0.13371   0.00000  Uiso   1.00
H717   H     0.81669   0.62474   0.09131   0.00000  Uiso   1.00
H718   H     0.86688   0.61039   0.05537   0.00000  Uiso   1.00
H719   H     0.85817   0.66452   0.06702   0.00000  Uiso   1.00
H720   H     0.88032   0.41678   0.35545   0.00000  Uiso   1.00
H721   H     0.83313   0.40927   0.40111   0.00000  Uiso   1.00
H722   H     0.85816   0.34286   0.41575   0.00000  Uiso   1.00
H723   H     0.84325   0.34236   0.36393   0.00000  Uiso   1.00
H724   H     0.93584   0.35563   0.37433   0.00000  Uiso   1.00
H725   H     0.68095   0.53496   0.22022   0.00000  Uiso   1.00
H726   H     0.90944   0.64190   0.35279   0.00000  Uiso   1.00
H727   H     0.91999   0.35486   0.32244   0.00000  Uiso   1.00
H728   H     0.94331   0.40065   0.46508   0.00000  Uiso   1.00
H729   H     0.92028   0.34812   0.45776   0.00000  Uiso   1.00
H730   H     0.92827   0.36616   0.01115   0.00000  Uiso   1.00
H731   H     0.69509   0.57257   0.41936   0.00000  Uiso   1.00
H732   H     0.70143   0.56739   0.47338   0.00000  Uiso   1.00
H733   H     0.71920   0.50194   0.39244   0.00000  Uiso   1.00
H734   H     0.72407   0.49499   0.44764   0.00000  Uiso   1.00
H735   H     0.97945   0.50307   0.47926   0.00000  Uiso   1.00
H736   H     0.91230   0.42216   0.13687   0.00000  Uiso   1.00
H737   H     0.98855   0.46021   0.43719   0.00000  Uiso   1.00
H738   H     0.97465   0.50788   0.42327   0.00000  Uiso   1.00
H739   H     0.75169   0.51984   0.11114   0.00000  Uiso   1.00
H740   H     0.75250   0.49300   0.05794   0.00000  Uiso   1.00
H741   H     0.71013   0.57460   0.08470   0.00000  Uiso   1.00
H742   H     0.69944   0.53176   0.04560   0.00000  Uiso   1.00
H743   H     0.67074   0.48759   0.11508   0.00000  Uiso   1.00
H744   H     0.97326   0.52892   0.11142   0.00000  Uiso   1.00
H745   H     0.67515   0.53626   0.14817   0.00000  Uiso   1.00
H746   H     0.78591   0.64665   0.46739   0.00000  Uiso   1.00
H747   H     0.93308   0.46001   0.09656   0.00000  Uiso   1.00
H748   H     0.80613   0.64444   0.01624   0.00000  Uiso   1.00
H749   H     0.71970   0.33836   0.01394   0.00000  Uiso   1.00
H750   H     0.73445   0.66505   0.06456   0.00000  Uiso   1.00
H751   H     0.79563   0.38592   0.04698   0.00000  Uiso   1.00
H752   H     0.74762   0.40628   0.04501   0.00000  Uiso   1.00
H753   H     0.78532   0.39184   0.49335   0.00000  Uiso   1.00
H754   H     0.92570   0.55331   0.41485   0.00000  Uiso   1.00
H755   H     0.89739   0.56021   0.37320   0.00000  Uiso   1.00
H756   H     0.95009   0.54427   0.35631   0.00000  Uiso   1.00
H757   H     0.98233   0.40583   0.10740   0.00000  Uiso   1.00
H758   H     0.95404   0.36953   0.07501   0.00000  Uiso   1.00
H759   H     0.97411   0.43460   0.01989   0.00000  Uiso   1.00
H760   H     0.67731   0.39694   0.01762   0.00000  Uiso   1.00
O761   O     0.83333   0.50000   0.25000   0.00000  Uiso   1.00
O762   O     0.82118   0.45970   0.15459   0.00000  Uiso   1.00
O763   O     0.79607   0.53724   0.34968   0.00000  Uiso   1.00
O764   O     0.87491   0.51092   0.14606   0.00000  Uiso   1.00
O765   O     0.84118   0.49213   0.34968   0.00000  Uiso   1.00
O766   O     0.89005   0.40800   0.08036   0.00000  Uiso   1.00
O767   O     0.98131   0.45509   0.28708   0.00000  Uiso   1.00
O768   O     0.87001   0.33797   0.19438   0.00000  Uiso   1.00
O769   O     0.89302   0.42088   0.41794   0.00000  Uiso   1.00
O770   O     0.87749   0.38713   0.49453   0.00000  Uiso   1.00
O771   O     0.75777   0.57486   0.42122   0.00000  Uiso   1.00
O772   O     0.84597   0.41352   0.28214   0.00000  Uiso   1.00
O773   O     0.78526   0.55410   0.05922   0.00000  Uiso   1.00
O774   O     0.75449   0.60070   0.01047   0.00000  Uiso   1.00
O775   O     0.90248   0.49841   0.38185   0.00000  Uiso   1.00
O776   O     0.81298   0.59418   0.27014   0.00000  Uiso   1.00
O777   O     0.74078   0.46625   0.23413   0.00000  Uiso   1.00
O778   O     0.93360   0.52605   0.21361   0.00000  Uiso   1.00
O779   O     0.73738   0.52211   0.28213   0.00000  Uiso   1.00
O780   O     0.92158   0.48559   0.27014   0.00000  Uiso   1.00
O781   O     0.80426   0.40277   0.23413   0.00000  Uiso   1.00
O782   O     0.87012   0.58953   0.21361   0.00000  Uiso   1.00
Zn783  Zn    0.86005   0.47327   0.28734   0.00000  Uiso   1.00
Zn784  Zn    0.80046   0.45791   0.21876   0.00000  Uiso   1.00
Zn785  Zn    0.87723   0.53109   0.20657   0.00000  Uiso   1.00
Zn786  Zn    0.79560   0.53773   0.28734   0.00000  Uiso   1.00
C787   C     0.05298   0.82649   0.25982   0.00000  Uiso   1.00
C788   C     0.18207   0.83609   0.05827   0.00000  Uiso   1.00
C789   C     0.21014   0.77027   0.05848   0.00000  Uiso   1.00
C790   C     0.28070   0.84057   0.24061   0.00000  Uiso   1.00
C791   C     0.14748   0.86537   0.41934   0.00000  Uiso   1.00
C792   C     0.32591   0.84501   0.24027   0.00000  Uiso   1.00
C793   C     0.00726   0.82195   0.26538   0.00000  Uiso   1.00
C794   C     0.17698   0.98814   0.23290   0.00000  Uiso   1.00
C795   C     0.15321   0.67874   0.26485   0.00000  Uiso   1.00
C796   C     0.15607   0.72268   0.26071   0.00000  Uiso   1.00
C797   C     0.17603   0.94441   0.23964   0.00000  Uiso   1.00
C798   C     0.11426   0.90447   0.48831   0.00000  Uiso   1.00
C799   C     0.18563   0.81471   0.12946   0.00000  Uiso   1.00
C800   C     0.15010   0.85276   0.37098   0.00000  Uiso   1.00
C801   C     0.21015   0.76130   0.01310   0.00000  Uiso   1.00
C802   C     0.19408   0.80715   0.08107   0.00000  Uiso   1.00
C803   C     0.11738   0.89273   0.44293   0.00000  Uiso   1.00
C804   C     0.25695   0.75934   0.10037   0.00000  Uiso   1.00
C805   C     0.29700   0.73658   0.08177   0.00000  Uiso   1.00
C806   C     0.32610   0.75482   0.03920   0.00000  Uiso   1.00
C807   C     0.32604   0.78056   0.32628   0.00000  Uiso   1.00
C808   C     0.01738   0.74222   0.31776   0.00000  Uiso   1.00
C809   C     0.13173   0.88130   0.01315   0.00000  Uiso   1.00
C810   C     0.02981   0.73306   0.35956   0.00000  Uiso   1.00
C811   C     0.18148   0.99879   0.15990   0.00000  Uiso   1.00
C812   C     0.20372   0.96909   0.12195   0.00000  Uiso   1.00
C813   C     0.18516   0.96711   0.08143   0.00000  Uiso   1.00
C814   C     0.20079   0.73666   0.38845   0.00000  Uiso   1.00
C815   C     0.20081   0.68925   0.38244   0.00000  Uiso   1.00
C816   C     0.24435   0.67644   0.35636   0.00000  Uiso   1.00
C817   C     0.25280   0.70915   0.48203   0.00000  Uiso   1.00
C818   C     0.04759   0.89161   0.43736   0.00000  Uiso   1.00
C819   C     0.04016   0.84391   0.42863   0.00000  Uiso   1.00
C820   C     0.16210   0.85319   0.49081   0.00000  Uiso   1.00
C821   C     0.32601   0.82794   0.44310   0.00000  Uiso   1.00
C822   C     0.08366   0.85764   0.07658   0.00000  Uiso   1.00
C823   C     0.04080   0.87344   0.07831   0.00000  Uiso   1.00
C824   C     0.00440   0.85515   0.11544   0.00000  Uiso   1.00
C825   C     0.11009   0.97415   0.00358   0.00000  Uiso   1.00
C826   C     0.08053   0.67290   0.02915   0.00000  Uiso   1.00
C827   C     0.10388   0.71696   0.02834   0.00000  Uiso   1.00
C828   C     0.25251   0.87431   0.38213   0.00000  Uiso   1.00
C829   C     0.17249   0.84846   0.44324   0.00000  Uiso   1.00
C830   C     0.18135   0.82783   0.01336   0.00000  Uiso   1.00
C831   C     0.19940   0.79175   0.48974   0.00000  Uiso   1.00
C832   C     0.20877   0.78851   0.44280   0.00000  Uiso   1.00
C833   C     0.20552   0.82334   0.42171   0.00000  Uiso   1.00
H834   H     0.13429   0.66668   0.29622   0.00000  Uiso   1.00
H835   H     0.01635   0.78025   0.04769   0.00000  Uiso   1.00
H836   H     0.29590   0.77367   0.35237   0.00000  Uiso   1.00
H837   H     0.01063   0.80798   0.34057   0.00000  Uiso   1.00
H838   H     0.33060   0.71468   0.30696   0.00000  Uiso   1.00
H839   H     0.04704   0.74707   0.29064   0.00000  Uiso   1.00
H840   H     0.05199   0.75932   0.36935   0.00000  Uiso   1.00
H841   H     0.04634   0.70441   0.35254   0.00000  Uiso   1.00
H842   H     0.00094   0.72809   0.38775   0.00000  Uiso   1.00
H843   H     0.18287   0.69630   0.14693   0.00000  Uiso   1.00
H844   H     0.14668   0.98698   0.17093   0.00000  Uiso   1.00
H845   H     0.17410   0.86524   0.07651   0.00000  Uiso   1.00
H846   H     0.23858   0.97965   0.11184   0.00000  Uiso   1.00
H847   H     0.19942   0.93728   0.13371   0.00000  Uiso   1.00
H848   H     0.15002   0.95808   0.09131   0.00000  Uiso   1.00
H849   H     0.20021   0.94372   0.05537   0.00000  Uiso   1.00
H850   H     0.19150   0.99785   0.06702   0.00000  Uiso   1.00
H851   H     0.21365   0.75012   0.35545   0.00000  Uiso   1.00
H852   H     0.16647   0.74260   0.40111   0.00000  Uiso   1.00
H853   H     0.19149   0.67619   0.41575   0.00000  Uiso   1.00
H854   H     0.17658   0.67570   0.36393   0.00000  Uiso   1.00
H855   H     0.26917   0.68896   0.37433   0.00000  Uiso   1.00
H856   H     0.01429   0.86829   0.22022   0.00000  Uiso   1.00
H857   H     0.24278   0.97523   0.35279   0.00000  Uiso   1.00
H858   H     0.25332   0.68820   0.32244   0.00000  Uiso   1.00
H859   H     0.27664   0.73398   0.46508   0.00000  Uiso   1.00
H860   H     0.25361   0.68145   0.45776   0.00000  Uiso   1.00
H861   H     0.26161   0.69949   0.01115   0.00000  Uiso   1.00
H862   H     0.02843   0.90591   0.41936   0.00000  Uiso   1.00
H863   H     0.03477   0.90073   0.47338   0.00000  Uiso   1.00
H864   H     0.05253   0.83527   0.39244   0.00000  Uiso   1.00
H865   H     0.05740   0.82833   0.44764   0.00000  Uiso   1.00
H866   H     0.31278   0.83640   0.47926   0.00000  Uiso   1.00
H867   H     0.24564   0.75550   0.13687   0.00000  Uiso   1.00
H868   H     0.32189   0.79355   0.43719   0.00000  Uiso   1.00
H869   H     0.30798   0.84122   0.42327   0.00000  Uiso   1.00
H870   H     0.08503   0.85317   0.11114   0.00000  Uiso   1.00
H871   H     0.08583   0.82633   0.05794   0.00000  Uiso   1.00
H872   H     0.04346   0.90793   0.08470   0.00000  Uiso   1.00
H873   H     0.03277   0.86509   0.04560   0.00000  Uiso   1.00
H874   H     0.00407   0.82092   0.11508   0.00000  Uiso   1.00
H875   H     0.30659   0.86226   0.11142   0.00000  Uiso   1.00
H876   H     0.00848   0.86959   0.14817   0.00000  Uiso   1.00
H877   H     0.11925   0.97999   0.46739   0.00000  Uiso   1.00
H878   H     0.26641   0.79334   0.09656   0.00000  Uiso   1.00
H879   H     0.13947   0.97777   0.01624   0.00000  Uiso   1.00
H880   H     0.05304   0.67170   0.01394   0.00000  Uiso   1.00
H881   H     0.06778   0.99838   0.06456   0.00000  Uiso   1.00
H882   H     0.12896   0.71925   0.04698   0.00000  Uiso   1.00
H883   H     0.08095   0.73962   0.04501   0.00000  Uiso   1.00
H884   H     0.11866   0.72517   0.49335   0.00000  Uiso   1.00
H885   H     0.25903   0.88665   0.41485   0.00000  Uiso   1.00
H886   H     0.23073   0.89355   0.37320   0.00000  Uiso   1.00
H887   H     0.28342   0.87760   0.35631   0.00000  Uiso   1.00
H888   H     0.31566   0.73916   0.10740   0.00000  Uiso   1.00
H889   H     0.28738   0.70286   0.07501   0.00000  Uiso   1.00
H890   H     0.30745   0.76794   0.01989   0.00000  Uiso   1.00
H891   H     0.01064   0.73027   0.01762   0.00000  Uiso   1.00
O892   O     0.16667   0.83333   0.25000   0.00000  Uiso   1.00
O893   O     0.15451   0.79304   0.15459   0.00000  Uiso   1.00
O894   O     0.12940   0.87058   0.34968   0.00000  Uiso   1.00
O895   O     0.20824   0.84425   0.14606   0.00000  Uiso   1.00
O896   O     0.17451   0.82546   0.34968   0.00000  Uiso   1.00
O897   O     0.22339   0.74134   0.08036   0.00000  Uiso   1.00
O898   O     0.31464   0.78843   0.28708   0.00000  Uiso   1.00
O899   O     0.20334   0.67130   0.19438   0.00000  Uiso   1.00
O900   O     0.22636   0.75421   0.41794   0.00000  Uiso   1.00
O901   O     0.21082   0.72047   0.49453   0.00000  Uiso   1.00
O902   O     0.09111   0.90820   0.42122   0.00000  Uiso   1.00
O903   O     0.17930   0.74686   0.28214   0.00000  Uiso   1.00
O904   O     0.11859   0.88744   0.05922   0.00000  Uiso   1.00
O905   O     0.08783   0.93403   0.01047   0.00000  Uiso   1.00
O906   O     0.23582   0.83175   0.38185   0.00000  Uiso   1.00
O907   O     0.14632   0.92751   0.27014   0.00000  Uiso   1.00
O908   O     0.07412   0.79958   0.23413   0.00000  Uiso   1.00
O909   O     0.26693   0.85939   0.21361   0.00000  Uiso   1.00
O910   O     0.07071   0.85544   0.28213   0.00000  Uiso   1.00
O911   O     0.25491   0.81892   0.27014   0.00000  Uiso   1.00
O912   O     0.13760   0.73610   0.23413   0.00000  Uiso   1.00
O913   O     0.20345   0.92286   0.21361   0.00000  Uiso   1.00
Zn914  Zn    0.19338   0.80661   0.28734   0.00000  Uiso   1.00
Zn915  Zn    0.13379   0.79124   0.21876   0.00000  Uiso   1.00
Zn916  Zn    0.21056   0.86442   0.20657   0.00000  Uiso   1.00
Zn917  Zn    0.12893   0.87106   0.28734   0.00000  Uiso   1.00
C918   C     0.38632   0.82649   0.25982   0.00000  Uiso   1.00
C919   C     0.51540   0.83609   0.05827   0.00000  Uiso   1.00
C920   C     0.54347   0.77027   0.05848   0.00000  Uiso   1.00
C921   C     0.61403   0.84057   0.24061   0.00000  Uiso   1.00
C922   C     0.48081   0.86537   0.41934   0.00000  Uiso   1.00
C923   C     0.65924   0.84501   0.24027   0.00000  Uiso   1.00
C924   C     0.34059   0.82195   0.26538   0.00000  Uiso   1.00
C925   C     0.51032   0.98814   0.23290   0.00000  Uiso   1.00
C926   C     0.48655   0.67874   0.26485   0.00000  Uiso   1.00
C927   C     0.48940   0.72268   0.26071   0.00000  Uiso   1.00
C928   C     0.50936   0.94441   0.23964   0.00000  Uiso   1.00
C929   C     0.44759   0.90447   0.48831   0.00000  Uiso   1.00
C930   C     0.51897   0.81471   0.12946   0.00000  Uiso   1.00
C931   C     0.48343   0.85276   0.37098   0.00000  Uiso   1.00
C932   C     0.54349   0.76130   0.01310   0.00000  Uiso   1.00
C933   C     0.52741   0.80715   0.08107   0.00000  Uiso   1.00
C934   C     0.45071   0.89273   0.44293   0.00000  Uiso   1.00
C935   C     0.59028   0.75934   0.10037   0.00000  Uiso   1.00
C936   C     0.63033   0.73658   0.08177   0.00000  Uiso   1.00
C937   C     0.65944   0.75482   0.03920   0.00000  Uiso   1.00
C938   C     0.65937   0.78056   0.32628   0.00000  Uiso   1.00
C939   C     0.35071   0.74222   0.31776   0.00000  Uiso   1.00
C940   C     0.46507   0.88130   0.01315   0.00000  Uiso   1.00
C941   C     0.36314   0.73306   0.35956   0.00000  Uiso   1.00
C942   C     0.51481   0.99879   0.15990   0.00000  Uiso   1.00
C943   C     0.53705   0.96909   0.12195   0.00000  Uiso   1.00
C944   C     0.51850   0.96711   0.08143   0.00000  Uiso   1.00
C945   C     0.53412   0.73666   0.38845   0.00000  Uiso   1.00
C946   C     0.53414   0.68925   0.38244   0.00000  Uiso   1.00
C947   C     0.57768   0.67644   0.35636   0.00000  Uiso   1.00
C948   C     0.58613   0.70915   0.48203   0.00000  Uiso   1.00
C949   C     0.38092   0.89161   0.43736   0.00000  Uiso   1.00
C950   C     0.37349   0.84391   0.42863   0.00000  Uiso   1.00
C951   C     0.49543   0.85319   0.49081   0.00000  Uiso   1.00
C952   C     0.65935   0.82794   0.44310   0.00000  Uiso   1.00
C953   C     0.41699   0.85764   0.07658   0.00000  Uiso   1.00
C954   C     0.37414   0.87344   0.07831   0.00000  Uiso   1.00
C955   C     0.33773   0.85515   0.11544   0.00000  Uiso   1.00
C956   C     0.44343   0.97415   0.00358   0.00000  Uiso   1.00
C957   C     0.41386   0.67290   0.02915   0.00000  Uiso   1.00
C958   C     0.43721   0.71696   0.02834   0.00000  Uiso   1.00
C959   C     0.58585   0.87431   0.38213   0.00000  Uiso   1.00
C960   C     0.50582   0.84846   0.44324   0.00000  Uiso   1.00
C961   C     0.51469   0.82783   0.01336   0.00000  Uiso   1.00
C962   C     0.53273   0.79175   0.48974   0.00000  Uiso   1.00
C963   C     0.54210   0.78851   0.44280   0.00000  Uiso   1.00
C964   C     0.53885   0.82334   0.42171   0.00000  Uiso   1.00
H965   H     0.46763   0.66668   0.29622   0.00000  Uiso   1.00
H966   H     0.34969   0.78025   0.04769   0.00000  Uiso   1.00
H967   H     0.62924   0.77367   0.35237   0.00000  Uiso   1.00
H968   H     0.34396   0.80798   0.34057   0.00000  Uiso   1.00
H969   H     0.66393   0.71468   0.30696   0.00000  Uiso   1.00
H970   H     0.38037   0.74707   0.29064   0.00000  Uiso   1.00
H971   H     0.38533   0.75932   0.36935   0.00000  Uiso   1.00
H972   H     0.37967   0.70441   0.35254   0.00000  Uiso   1.00
H973   H     0.33427   0.72809   0.38775   0.00000  Uiso   1.00
H974   H     0.51621   0.69630   0.14693   0.00000  Uiso   1.00
H975   H     0.48002   0.98698   0.17093   0.00000  Uiso   1.00
H976   H     0.50744   0.86524   0.07651   0.00000  Uiso   1.00
H977   H     0.57191   0.97965   0.11184   0.00000  Uiso   1.00
H978   H     0.53275   0.93728   0.13371   0.00000  Uiso   1.00
H979   H     0.48335   0.95808   0.09131   0.00000  Uiso   1.00
H980   H     0.53355   0.94372   0.05537   0.00000  Uiso   1.00
H981   H     0.52484   0.99785   0.06702   0.00000  Uiso   1.00
H982   H     0.54699   0.75012   0.35545   0.00000  Uiso   1.00
H983   H     0.49980   0.74260   0.40111   0.00000  Uiso   1.00
H984   H     0.52483   0.67619   0.41575   0.00000  Uiso   1.00
H985   H     0.50992   0.67570   0.36393   0.00000  Uiso   1.00
H986   H     0.60250   0.68896   0.37433   0.00000  Uiso   1.00
H987   H     0.34762   0.86829   0.22022   0.00000  Uiso   1.00
H988   H     0.57611   0.97523   0.35279   0.00000  Uiso   1.00
H989   H     0.58666   0.68820   0.32244   0.00000  Uiso   1.00
H990   H     0.60997   0.73398   0.46508   0.00000  Uiso   1.00
H991   H     0.58694   0.68145   0.45776   0.00000  Uiso   1.00
H992   H     0.59494   0.69949   0.01115   0.00000  Uiso   1.00
H993   H     0.36176   0.90591   0.41936   0.00000  Uiso   1.00
H994   H     0.36810   0.90073   0.47338   0.00000  Uiso   1.00
H995   H     0.38586   0.83527   0.39244   0.00000  Uiso   1.00
H996   H     0.39073   0.82833   0.44764   0.00000  Uiso   1.00
H997   H     0.64612   0.83640   0.47926   0.00000  Uiso   1.00
H998   H     0.57897   0.75550   0.13687   0.00000  Uiso   1.00
H999   H     0.65522   0.79355   0.43719   0.00000  Uiso   1.00
H1000  H     0.64131   0.84122   0.42327   0.00000  Uiso   1.00
H1001  H     0.41836   0.85317   0.11114   0.00000  Uiso   1.00
H1002  H     0.41917   0.82633   0.05794   0.00000  Uiso   1.00
H1003  H     0.37679   0.90793   0.08470   0.00000  Uiso   1.00
H1004  H     0.36611   0.86509   0.04560   0.00000  Uiso   1.00
H1005  H     0.33741   0.82092   0.11508   0.00000  Uiso   1.00
H1006  H     0.63993   0.86226   0.11142   0.00000  Uiso   1.00
H1007  H     0.34182   0.86959   0.14817   0.00000  Uiso   1.00
H1008  H     0.45258   0.97999   0.46739   0.00000  Uiso   1.00
H1009  H     0.59974   0.79334   0.09656   0.00000  Uiso   1.00
H1010  H     0.47280   0.97777   0.01624   0.00000  Uiso   1.00
H1011  H     0.38637   0.67170   0.01394   0.00000  Uiso   1.00
H1012  H     0.40111   0.99838   0.06456   0.00000  Uiso   1.00
H1013  H     0.46230   0.71925   0.04698   0.00000  Uiso   1.00
H1014  H     0.41429   0.73962   0.04501   0.00000  Uiso   1.00
H1015  H     0.45199   0.72517   0.49335   0.00000  Uiso   1.00
H1016  H     0.59237   0.88665   0.41485   0.00000  Uiso   1.00
H1017  H     0.56406   0.89355   0.37320   0.00000  Uiso   1.00
H1018  H     0.61676   0.87760   0.35631   0.00000  Uiso   1.00
H1019  H     0.64899   0.73916   0.10740   0.00000  Uiso   1.00
H1020  H     0.62071   0.70286   0.07501   0.00000  Uiso   1.00
H1021  H     0.64078   0.76794   0.01989   0.00000  Uiso   1.00
H1022  H     0.34397   0.73027   0.01762   0.00000  Uiso   1.00
O1023  O     0.50000   0.83333   0.25000   0.00000  Uiso   1.00
O1024  O     0.48784   0.79304   0.15459   0.00000  Uiso   1.00
O1025  O     0.46274   0.87058   0.34968   0.00000  Uiso   1.00
O1026  O     0.54157   0.84425   0.14606   0.00000  Uiso   1.00
O1027  O     0.50785   0.82546   0.34968   0.00000  Uiso   1.00
O1028  O     0.55672   0.74134   0.08036   0.00000  Uiso   1.00
O1029  O     0.64798   0.78843   0.28708   0.00000  Uiso   1.00
O1030  O     0.53667   0.67130   0.19438   0.00000  Uiso   1.00
O1031  O     0.55969   0.75421   0.41794   0.00000  Uiso   1.00
O1032  O     0.54416   0.72047   0.49453   0.00000  Uiso   1.00
O1033  O     0.42444   0.90820   0.42122   0.00000  Uiso   1.00
O1034  O     0.51264   0.74686   0.28214   0.00000  Uiso   1.00
O1035  O     0.45192   0.88744   0.05922   0.00000  Uiso   1.00
O1036  O     0.42116   0.93403   0.01047   0.00000  Uiso   1.00
O1037  O     0.56915   0.83175   0.38185   0.00000  Uiso   1.00
O1038  O     0.47965   0.92751   0.27014   0.00000  Uiso   1.00
O1039  O     0.40745   0.79958   0.23413   0.00000  Uiso   1.00
O1040  O     0.60026   0.85939   0.21361   0.00000  Uiso   1.00
O1041  O     0.40405   0.85544   0.28213   0.00000  Uiso   1.00
O1042  O     0.58824   0.81892   0.27014   0.00000  Uiso   1.00
O1043  O     0.47093   0.73610   0.23413   0.00000  Uiso   1.00
O1044  O     0.53678   0.92286   0.21361   0.00000  Uiso   1.00
Zn1045 Zn    0.52672   0.80661   0.28734   0.00000  Uiso   1.00
Zn1046 Zn    0.46713   0.79124   0.21876   0.00000  Uiso   1.00
Zn1047 Zn    0.54389   0.86442   0.20657   0.00000  Uiso   1.00
Zn1048 Zn    0.46226   0.87106   0.28734   0.00000  Uiso   1.00
C1049  C     0.71965   0.82649   0.25982   0.00000  Uiso   1.00
C1050  C     0.84873   0.83609   0.05827   0.00000  Uiso   1.00
C1051  C     0.87681   0.77027   0.05848   0.00000  Uiso   1.00
C1052  C     0.94736   0.84057   0.24061   0.00000  Uiso   1.00
C1053  C     0.81414   0.86537   0.41934   0.00000  Uiso   1.00
C1054  C     0.99258   0.84501   0.24027   0.00000  Uiso   1.00
C1055  C     0.67392   0.82195   0.26538   0.00000  Uiso   1.00
C1056  C     0.84365   0.98814   0.23290   0.00000  Uiso   1.00
C1057  C     0.81988   0.67874   0.26485   0.00000  Uiso   1.00
C1058  C     0.82274   0.72268   0.26071   0.00000  Uiso   1.00
C1059  C     0.84270   0.94441   0.23964   0.00000  Uiso   1.00
C1060  C     0.78092   0.90447   0.48831   0.00000  Uiso   1.00
C1061  C     0.85230   0.81471   0.12946   0.00000  Uiso   1.00
C1062  C     0.81677   0.85276   0.37098   0.00000  Uiso   1.00
C1063  C     0.87682   0.76130   0.01310   0.00000  Uiso   1.00
C1064  C     0.86074   0.80715   0.08107   0.00000  Uiso   1.00
C1065  C     0.78404   0.89273   0.44293   0.00000  Uiso   1.00
C1066  C     0.92362   0.75934   0.10037   0.00000  Uiso   1.00
C1067  C     0.96366   0.73658   0.08177   0.00000  Uiso   1.00
C1068  C     0.99277   0.75482   0.03920   0.00000  Uiso   1.00
C1069  C     0.99270   0.78056   0.32628   0.00000  Uiso   1.00
C1070  C     0.68404   0.74222   0.31776   0.00000  Uiso   1.00
C1071  C     0.79840   0.88130   0.01315   0.00000  Uiso   1.00
C1072  C     0.69648   0.73306   0.35956   0.00000  Uiso   1.00
C1073  C     0.84815   0.99879   0.15990   0.00000  Uiso   1.00
C1074  C     0.87038   0.96909   0.12195   0.00000  Uiso   1.00
C1075  C     0.85183   0.96711   0.08143   0.00000  Uiso   1.00
C1076  C     0.86745   0.73666   0.38845   0.00000  Uiso   1.00
C1077  C     0.86747   0.68925   0.38244   0.00000  Uiso   1.00
C1078  C     0.91101   0.67644   0.35636   0.00000  Uiso   1.00
C1079  C     0.91946   0.70915   0.48203   0.00000  Uiso   1.00
C1080  C     0.71425   0.89161   0.43736   0.00000  Uiso   1.00
C1081  C     0.70682   0.84391   0.42863   0.00000  Uiso   1.00
C1082  C     0.82877   0.85319   0.49081   0.00000  Uiso   1.00
C1083  C     0.99268   0.82794   0.44310   0.00000  Uiso   1.00
C1084  C     0.75033   0.85764   0.07658   0.00000  Uiso   1.00
C1085  C     0.70747   0.87344   0.07831   0.00000  Uiso   1.00
C1086  C     0.67106   0.85515   0.11544   0.00000  Uiso   1.00
C1087  C     0.77676   0.97415   0.00358   0.00000  Uiso   1.00
C1088  C     0.74720   0.67290   0.02915   0.00000  Uiso   1.00
C1089  C     0.77055   0.71696   0.02834   0.00000  Uiso   1.00
C1090  C     0.91918   0.87431   0.38213   0.00000  Uiso   1.00
C1091  C     0.83915   0.84846   0.44324   0.00000  Uiso   1.00
C1092  C     0.84802   0.82783   0.01336   0.00000  Uiso   1.00
C1093  C     0.86606   0.79175   0.48974   0.00000  Uiso   1.00
C1094  C     0.87543   0.78851   0.44280   0.00000  Uiso   1.00
C1095  C     0.87219   0.82334   0.42171   0.00000  Uiso   1.00
H1096  H     0.80096   0.66668   0.29622   0.00000  Uiso   1.00
H1097  H     0.68302   0.78025   0.04769   0.00000  Uiso   1.00
H1098  H     0.96257   0.77367   0.35237   0.00000  Uiso   1.00
H1099  H     0.67729   0.80798   0.34057   0.00000  Uiso   1.00
H1100  H     0.99727   0.71468   0.30696   0.00000  Uiso   1.00
H1101  H     0.71371   0.74707   0.29064   0.00000  Uiso   1.00
H1102  H     0.71866   0.75932   0.36935   0.00000  Uiso   1.00
H1103  H     0.71301   0.70441   0.35254   0.00000  Uiso   1.00
H1104  H     0.66760   0.72809   0.38775   0.00000  Uiso   1.00
H1105  H     0.84954   0.69630   0.14693   0.00000  Uiso   1.00
H1106  H     0.81335   0.98698   0.17093   0.00000  Uiso   1.00
H1107  H     0.84077   0.86524   0.07651   0.00000  Uiso   1.00
H1108  H     0.90525   0.97965   0.11184   0.00000  Uiso   1.00
H1109  H     0.86608   0.93728   0.13371   0.00000  Uiso   1.00
H1110  H     0.81669   0.95808   0.09131   0.00000  Uiso   1.00
H1111  H     0.86688   0.94372   0.05537   0.00000  Uiso   1.00
H1112  H     0.85817   0.99785   0.06702   0.00000  Uiso   1.00
H1113  H     0.88032   0.75012   0.35545   0.00000  Uiso   1.00
H1114  H     0.83313   0.74260   0.40111   0.00000  Uiso   1.00
H1115  H     0.85816   0.67619   0.41575   0.00000  Uiso   1.00
H1116  H     0.84325   0.67570   0.36393   0.00000  Uiso   1.00
H1117  H     0.93584   0.68896   0.37433   0.00000  Uiso   1.00
H1118  H     0.68095   0.86829   0.22022   0.00000  Uiso   1.00
H1119  H     0.90944   0.97523   0.35279   0.00000  Uiso   1.00
H1120  H     0.91999   0.68820   0.32244   0.00000  Uiso   1.00
H1121  H     0.94331   0.73398   0.46508   0.00000  Uiso   1.00
H1122  H     0.92028   0.68145   0.45776   0.00000  Uiso   1.00
H1123  H     0.92827   0.69949   0.01115   0.00000  Uiso   1.00
H1124  H     0.69509   0.90591   0.41936   0.00000  Uiso   1.00
H1125  H     0.70143   0.90073   0.47338   0.00000  Uiso   1.00
H1126  H     0.71920   0.83527   0.39244   0.00000  Uiso   1.00
H1127  H     0.72407   0.82833   0.44764   0.00000  Uiso   1.00
H1128  H     0.97945   0.83640   0.47926   0.00000  Uiso   1.00
H1129  H     0.91230   0.75550   0.13687   0.00000  Uiso   1.00
H1130  H     0.98855   0.79355   0.43719   0.00000  Uiso   1.00
H1131  H     0.97465   0.84122   0.42327   0.00000  Uiso   1.00
H1132  H     0.75169   0.85317   0.11114   0.00000  Uiso   1.00
H1133  H     0.75250   0.82633   0.05794   0.00000  Uiso   1.00
H1134  H     0.71013   0.90793   0.08470   0.00000  Uiso   1.00
H1135  H     0.69944   0.86509   0.04560   0.00000  Uiso   1.00
H1136  H     0.67074   0.82092   0.11508   0.00000  Uiso   1.00
H1137  H     0.97326   0.86226   0.11142   0.00000  Uiso   1.00
H1138  H     0.67515   0.86959   0.14817   0.00000  Uiso   1.00
H1139  H     0.78591   0.97999   0.46739   0.00000  Uiso   1.00
H1140  H     0.93308   0.79334   0.09656   0.00000  Uiso   1.00
H1141  H     0.80613   0.97777   0.01624   0.00000  Uiso   1.00
H1142  H     0.71970   0.67170   0.01394   0.00000  Uiso   1.00
H1143  H     0.73445   0.99838   0.06456   0.00000  Uiso   1.00
H1144  H     0.79563   0.71925   0.04698   0.00000  Uiso   1.00
H1145  H     0.74762   0.73962   0.04501   0.00000  Uiso   1.00
H1146  H     0.78532   0.72517   0.49335   0.00000  Uiso   1.00
H1147  H     0.92570   0.88665   0.41485   0.00000  Uiso   1.00
H1148  H     0.89739   0.89355   0.37320   0.00000  Uiso   1.00
H1149  H     0.95009   0.87760   0.35631   0.00000  Uiso   1.00
H1150  H     0.98233   0.73916   0.10740   0.00000  Uiso   1.00
H1151  H     0.95404   0.70286   0.07501   0.00000  Uiso   1.00
H1152  H     0.97411   0.76794   0.01989   0.00000  Uiso   1.00
H1153  H     0.67731   0.73027   0.01762   0.00000  Uiso   1.00
O1154  O     0.83333   0.83333   0.25000   0.00000  Uiso   1.00
O1155  O     0.82118   0.79304   0.15459   0.00000  Uiso   1.00
O1156  O     0.79607   0.87058   0.34968   0.00000  Uiso   1.00
O1157  O     0.87491   0.84425   0.14606   0.00000  Uiso   1.00
O1158  O     0.84118   0.82546   0.34968   0.00000  Uiso   1.00
O1159  O     0.89005   0.74134   0.08036   0.00000  Uiso   1.00
O1160  O     0.98131   0.78843   0.28708   0.00000  Uiso   1.00
O1161  O     0.87001   0.67130   0.19438   0.00000  Uiso   1.00
O1162  O     0.89302   0.75421   0.41794   0.00000  Uiso   1.00
O1163  O     0.87749   0.72047   0.49453   0.00000  Uiso   1.00
O1164  O     0.75777   0.90820   0.42122   0.00000  Uiso   1.00
O1165  O     0.84597   0.74686   0.28214   0.00000  Uiso   1.00
O1166  O     0.78526   0.88744   0.05922   0.00000  Uiso   1.00
O1167  O     0.75449   0.93403   0.01047   0.00000  Uiso   1.00
O1168  O     0.90248   0.83175   0.38185   0.00000  Uiso   1.00
O1169  O     0.81298   0.92751   0.27014   0.00000  Uiso   1.00
O1170  O     0.74078   0.79958   0.23413   0.00000  Uiso   1.00
O1171  O     0.93360   0.85939   0.21361   0.00000  Uiso   1.00
O1172  O     0.73738   0.85544   0.28213   0.00000  Uiso   1.00
O1173  O     0.92158   0.81892   0.27014   0.00000  Uiso   1.00
O1174  O     0.80426   0.73610   0.23413   0.00000  Uiso   1.00
O1175  O     0.87012   0.92286   0.21361   0.00000  Uiso   1.00
Zn1176 Zn    0.86005   0.80661   0.28734   0.00000  Uiso   1.00
Zn1177 Zn    0.80046   0.79124   0.21876   0.00000  Uiso   1.00
Zn1178 Zn    0.87723   0.86442   0.20657   0.00000  Uiso   1.00
Zn1179 Zn    0.79560   0.87106   0.28734   0.00000  Uiso   1.00
C1180  C     0.05298   0.15983   0.75982   0.00000  Uiso   1.00
C1181  C     0.18207   0.16942   0.55827   0.00000  Uiso   1.00
C1182  C     0.21014   0.10361   0.55848   0.00000  Uiso   1.00
C1183  C     0.28070   0.17390   0.74061   0.00000  Uiso   1.00
C1184  C     0.14748   0.19871   0.91934   0.00000  Uiso   1.00
C1185  C     0.32591   0.17834   0.74027   0.00000  Uiso   1.00
C1186  C     0.00726   0.15529   0.76538   0.00000  Uiso   1.00
C1187  C     0.17698   0.32148   0.73290   0.00000  Uiso   1.00
C1188  C     0.15321   0.01208   0.76485   0.00000  Uiso   1.00
C1189  C     0.15607   0.05602   0.76071   0.00000  Uiso   1.00
C1190  C     0.17603   0.27774   0.73964   0.00000  Uiso   1.00
C1191  C     0.11426   0.23780   0.98831   0.00000  Uiso   1.00
C1192  C     0.18563   0.14804   0.62946   0.00000  Uiso   1.00
C1193  C     0.15010   0.18609   0.87098   0.00000  Uiso   1.00
C1194  C     0.21015   0.09464   0.51310   0.00000  Uiso   1.00
C1195  C     0.19408   0.14048   0.58107   0.00000  Uiso   1.00
C1196  C     0.11738   0.22606   0.94293   0.00000  Uiso   1.00
C1197  C     0.25695   0.09268   0.60037   0.00000  Uiso   1.00
C1198  C     0.29700   0.06992   0.58177   0.00000  Uiso   1.00
C1199  C     0.32610   0.08816   0.53920   0.00000  Uiso   1.00
C1200  C     0.32604   0.11390   0.82628   0.00000  Uiso   1.00
C1201  C     0.01738   0.07555   0.81776   0.00000  Uiso   1.00
C1202  C     0.13173   0.21463   0.51315   0.00000  Uiso   1.00
C1203  C     0.02981   0.06639   0.85956   0.00000  Uiso   1.00
C1204  C     0.18148   0.33212   0.65990   0.00000  Uiso   1.00
C1205  C     0.20372   0.30242   0.62195   0.00000  Uiso   1.00
C1206  C     0.18516   0.30044   0.58143   0.00000  Uiso   1.00
C1207  C     0.20079   0.07000   0.88845   0.00000  Uiso   1.00
C1208  C     0.20081   0.02259   0.88244   0.00000  Uiso   1.00
C1209  C     0.24435   0.00978   0.85636   0.00000  Uiso   1.00
C1210  C     0.25280   0.04248   0.98203   0.00000  Uiso   1.00
C1211  C     0.04759   0.22494   0.93736   0.00000  Uiso   1.00
C1212  C     0.04016   0.17725   0.92863   0.00000  Uiso   1.00
C1213  C     0.16210   0.18652   0.99081   0.00000  Uiso   1.00
C1214  C     0.32601   0.16127   0.94310   0.00000  Uiso   1.00
C1215  C     0.08366   0.19098   0.57658   0.00000  Uiso   1.00
C1216  C     0.04080   0.20678   0.57831   0.00000  Uiso   1.00
C1217  C     0.00440   0.18848   0.61544   0.00000  Uiso   1.00
C1218  C     0.11009   0.30748   0.50358   0.00000  Uiso   1.00
C1219  C     0.08053   0.00623   0.52915   0.00000  Uiso   1.00
C1220  C     0.10388   0.05030   0.52834   0.00000  Uiso   1.00
C1221  C     0.25251   0.20765   0.88213   0.00000  Uiso   1.00
C1222  C     0.17249   0.18180   0.94324   0.00000  Uiso   1.00
C1223  C     0.18135   0.16117   0.51336   0.00000  Uiso   1.00
C1224  C     0.19940   0.12508   0.98974   0.00000  Uiso   1.00
C1225  C     0.20877   0.12184   0.94280   0.00000  Uiso   1.00
C1226  C     0.20552   0.15667   0.92171   0.00000  Uiso   1.00
H1227  H     0.13429   0.00002   0.79622   0.00000  Uiso   1.00
H1228  H     0.01635   0.11359   0.54769   0.00000  Uiso   1.00
H1229  H     0.29590   0.10700   0.85237   0.00000  Uiso   1.00
H1230  H     0.01063   0.14131   0.84057   0.00000  Uiso   1.00
H1231  H     0.33060   0.04801   0.80696   0.00000  Uiso   1.00
H1232  H     0.04704   0.08041   0.79064   0.00000  Uiso   1.00
H1233  H     0.05199   0.09265   0.86935   0.00000  Uiso   1.00
H1234  H     0.04634   0.03775   0.85254   0.00000  Uiso   1.00
H1235  H     0.00094   0.06142   0.88775   0.00000  Uiso   1.00
H1236  H     0.18287   0.02963   0.64693   0.00000  Uiso   1.00
H1237  H     0.14668   0.32031   0.67093   0.00000  Uiso   1.00
H1238  H     0.17410   0.19857   0.57651   0.00000  Uiso   1.00
H1239  H     0.23858   0.31299   0.61184   0.00000  Uiso   1.00
H1240  H     0.19942   0.27061   0.63371   0.00000  Uiso   1.00
H1241  H     0.15002   0.29141   0.59131   0.00000  Uiso   1.00
H1242  H     0.20021   0.27706   0.55537   0.00000  Uiso   1.00
H1243  H     0.19150   0.33118   0.56702   0.00000  Uiso   1.00
H1244  H     0.21365   0.08345   0.85545   0.00000  Uiso   1.00
H1245  H     0.16647   0.07593   0.90111   0.00000  Uiso   1.00
H1246  H     0.19149   0.00953   0.91575   0.00000  Uiso   1.00
H1247  H     0.17658   0.00903   0.86393   0.00000  Uiso   1.00
H1248  H     0.26917   0.02230   0.87433   0.00000  Uiso   1.00
H1249  H     0.01429   0.20163   0.72022   0.00000  Uiso   1.00
H1250  H     0.24278   0.30856   0.85279   0.00000  Uiso   1.00
H1251  H     0.25332   0.02153   0.82244   0.00000  Uiso   1.00
H1252  H     0.27664   0.06732   0.96508   0.00000  Uiso   1.00
H1253  H     0.25361   0.01478   0.95776   0.00000  Uiso   1.00
H1254  H     0.26161   0.03283   0.51115   0.00000  Uiso   1.00
H1255  H     0.02843   0.23924   0.91936   0.00000  Uiso   1.00
H1256  H     0.03477   0.23406   0.97338   0.00000  Uiso   1.00
H1257  H     0.05253   0.16861   0.89244   0.00000  Uiso   1.00
H1258  H     0.05740   0.16166   0.94764   0.00000  Uiso   1.00
H1259  H     0.31278   0.16974   0.97926   0.00000  Uiso   1.00
H1260  H     0.24564   0.08883   0.63687   0.00000  Uiso   1.00
H1261  H     0.32189   0.12688   0.93719   0.00000  Uiso   1.00
H1262  H     0.30798   0.17455   0.92327   0.00000  Uiso   1.00
H1263  H     0.08503   0.18650   0.61114   0.00000  Uiso   1.00
H1264  H     0.08583   0.15967   0.55794   0.00000  Uiso   1.00
H1265  H     0.04346   0.24127   0.58470   0.00000  Uiso   1.00
H1266  H     0.03277   0.19842   0.54560   0.00000  Uiso   1.00
H1267  H     0.00407   0.15426   0.61508   0.00000  Uiso   1.00
H1268  H     0.30659   0.19559   0.61142   0.00000  Uiso   1.00
H1269  H     0.00848   0.20293   0.64817   0.00000  Uiso   1.00
H1270  H     0.11925   0.31332   0.96739   0.00000  Uiso   1.00
H1271  H     0.26641   0.12668   0.59656   0.00000  Uiso   1.00
H1272  H     0.13947   0.31110   0.51624   0.00000  Uiso   1.00
H1273  H     0.05304   0.00503   0.51394   0.00000  Uiso   1.00
H1274  H     0.06778   0.33172   0.56456   0.00000  Uiso   1.00
H1275  H     0.12896   0.05259   0.54698   0.00000  Uiso   1.00
H1276  H     0.08095   0.07295   0.54501   0.00000  Uiso   1.00
H1277  H     0.11866   0.05851   0.99335   0.00000  Uiso   1.00
H1278  H     0.25903   0.21998   0.91485   0.00000  Uiso   1.00
H1279  H     0.23073   0.22688   0.87320   0.00000  Uiso   1.00
H1280  H     0.28342   0.21093   0.85631   0.00000  Uiso   1.00
H1281  H     0.31566   0.07250   0.60740   0.00000  Uiso   1.00
H1282  H     0.28738   0.03620   0.57501   0.00000  Uiso   1.00
H1283  H     0.30745   0.10127   0.51989   0.00000  Uiso   1.00
H1284  H     0.01064   0.06361   0.51762   0.00000  Uiso   1.00
O1285  O     0.16667   0.16667   0.75000   0.00000  Uiso   1.00
O1286  O     0.15451   0.12637   0.65459   0.00000  Uiso   1.00
O1287  O     0.12940   0.20391   0.84968   0.00000  Uiso   1.00
O1288  O     0.20824   0.17759   0.64606   0.00000  Uiso   1.00
O1289  O     0.17451   0.15880   0.84968   0.00000  Uiso   1.00
O1290  O     0.22339   0.07467   0.58036   0.00000  Uiso   1.00
O1291  O     0.31464   0.12176   0.78708   0.00000  Uiso   1.00
O1292  O     0.20334   0.00463   0.69438   0.00000  Uiso   1.00
O1293  O     0.22636   0.08755   0.91794   0.00000  Uiso   1.00
O1294  O     0.21082   0.05380   0.99453   0.00000  Uiso   1.00
O1295  O     0.09111   0.24153   0.92122   0.00000  Uiso   1.00
O1296  O     0.17930   0.08019   0.78214   0.00000  Uiso   1.00
O1297  O     0.11859   0.22077   0.55922   0.00000  Uiso   1.00
O1298  O     0.08783   0.26736   0.51047   0.00000  Uiso   1.00
O1299  O     0.23582   0.16508   0.88185   0.00000  Uiso   1.00
O1300  O     0.14632   0.26085   0.77014   0.00000  Uiso   1.00
O1301  O     0.07412   0.13291   0.73413   0.00000  Uiso   1.00
O1302  O     0.26693   0.19272   0.71361   0.00000  Uiso   1.00
O1303  O     0.07071   0.18878   0.78213   0.00000  Uiso   1.00
O1304  O     0.25491   0.15226   0.77014   0.00000  Uiso   1.00
O1305  O     0.13760   0.06944   0.73413   0.00000  Uiso   1.00
O1306  O     0.20345   0.25620   0.71361   0.00000  Uiso   1.00
Zn1307 Zn    0.19338   0.13994   0.78734   0.00000  Uiso   1.00
Zn1308 Zn    0.13379   0.12458   0.71876   0.00000  Uiso   1.00
Zn1309 Zn    0.21056   0.19775   0.70657   0.00000  Uiso   1.00
Zn1310 Zn    0.12893   0.20439   0.78734   0.00000  Uiso   1.00
C1311  C     0.38632   0.15983   0.75982   0.00000  Uiso   1.00
C1312  C     0.51540   0.16942   0.55827   0.00000  Uiso   1.00
C1313  C     0.54347   0.10361   0.55848   0.00000  Uiso   1.00
C1314  C     0.61403   0.17390   0.74061   0.00000  Uiso   1.00
C1315  C     0.48081   0.19871   0.91934   0.00000  Uiso   1.00
C1316  C     0.65924   0.17834   0.74027   0.00000  Uiso   1.00
C1317  C     0.34059   0.15529   0.76538   0.00000  Uiso   1.00
C1318  C     0.51032   0.32148   0.73290   0.00000  Uiso   1.00
C1319  C     0.48655   0.01208   0.76485   0.00000  Uiso   1.00
C1320  C     0.48940   0.05602   0.76071   0.00000  Uiso   1.00
C1321  C     0.50936   0.27774   0.73964   0.00000  Uiso   1.00
C1322  C     0.44759   0.23780   0.98831   0.00000  Uiso   1.00
C1323  C     0.51897   0.14804   0.62946   0.00000  Uiso   1.00
C1324  C     0.48343   0.18609   0.87098   0.00000  Uiso   1.00
C1325  C     0.54349   0.09464   0.51310   0.00000  Uiso   1.00
C1326  C     0.52741   0.14048   0.58107   0.00000  Uiso   1.00
C1327  C     0.45071   0.22606   0.94293   0.00000  Uiso   1.00
C1328  C     0.59028   0.09268   0.60037   0.00000  Uiso   1.00
C1329  C     0.63033   0.06992   0.58177   0.00000  Uiso   1.00
C1330  C     0.65944   0.08816   0.53920   0.00000  Uiso   1.00
C1331  C     0.65937   0.11390   0.82628   0.00000  Uiso   1.00
C1332  C     0.35071   0.07555   0.81776   0.00000  Uiso   1.00
C1333  C     0.46507   0.21463   0.51315   0.00000  Uiso   1.00
C1334  C     0.36314   0.06639   0.85956   0.00000  Uiso   1.00
C1335  C     0.51481   0.33212   0.65990   0.00000  Uiso   1.00
C1336  C     0.53705   0.30242   0.62195   0.00000  Uiso   1.00
C1337  C     0.51850   0.30044   0.58143   0.00000  Uiso   1.00
C1338  C     0.53412   0.07000   0.88845   0.00000  Uiso   1.00
C1339  C     0.53414   0.02259   0.88244   0.00000  Uiso   1.00
C1340  C     0.57768   0.00978   0.85636   0.00000  Uiso   1.00
C1341  C     0.58613   0.04248   0.98203   0.00000  Uiso   1.00
C1342  C     0.38092   0.22494   0.93736   0.00000  Uiso   1.00
C1343  C     0.37349   0.17725   0.92863   0.00000  Uiso   1.00
C1344  C     0.49543   0.18652   0.99081   0.00000  Uiso   1.00
C1345  C     0.65935   0.16127   0.94310   0.00000  Uiso   1.00
C1346  C     0.41699   0.19098   0.57658   0.00000  Uiso   1.00
C1347  C     0.37414   0.20678   0.57831   0.00000  Uiso   1.00
C1348  C     0.33773   0.18848   0.61544   0.00000  Uiso   1.00
C1349  C     0.44343   0.30748   0.50358   0.00000  Uiso   1.00
C1350  C     0.41386   0.00623   0.52915   0.00000  Uiso   1.00
C1351  C     0.43721   0.05030   0.52834   0.00000  Uiso   1.00
C1352  C     0.58585   0.20765   0.88213   0.00000  Uiso   1.00
C1353  C     0.50582   0.18180   0.94324   0.00000  Uiso   1.00
C1354  C     0.51469   0.16117   0.51336   0.00000  Uiso   1.00
C1355  C     0.53273   0.12508   0.98974   0.00000  Uiso   1.00
C1356  C     0.54210   0.12184   0.94280   0.00000  Uiso   1.00
C1357  C     0.53885   0.15667   0.92171   0.00000  Uiso   1.00
H1358  H     0.46763   0.00002   0.79622   0.00000  Uiso   1.00
H1359  H     0.34969   0.11359   0.54769   0.00000  Uiso   1.00
H1360  H     0.62924   0.10700   0.85237   0.00000  Uiso   1.00
H1361  H     0.34396   0.14131   0.84057   0.00000  Uiso   1.00
H1362  H     0.66393   0.04801   0.80696   0.00000  Uiso   1.00
H1363  H     0.38037   0.08041   0.79064   0.00000  Uiso   1.00
H1364  H     0.38533   0.09265   0.86935   0.00000  Uiso   1.00
H1365  H     0.37967   0.03775   0.85254   0.00000  Uiso   1.00
H1366  H     0.33427   0.06142   0.88775   0.00000  Uiso   1.00
H1367  H     0.51621   0.02963   0.64693   0.00000  Uiso   1.00
H1368  H     0.48002   0.32031   0.67093   0.00000  Uiso   1.00
H1369  H     0.50744   0.19857   0.57651   0.00000  Uiso   1.00
H1370  H     0.57191   0.31299   0.61184   0.00000  Uiso   1.00
H1371  H     0.53275   0.27061   0.63371   0.00000  Uiso   1.00
H1372  H     0.48335   0.29141   0.59131   0.00000  Uiso   1.00
H1373  H     0.53355   0.27706   0.55537   0.00000  Uiso   1.00
H1374  H     0.52484   0.33118   0.56702   0.00000  Uiso   1.00
H1375  H     0.54699   0.08345   0.85545   0.00000  Uiso   1.00
H1376  H     0.49980   0.07593   0.90111   0.00000  Uiso   1.00
H1377  H     0.52483   0.00953   0.91575   0.00000  Uiso   1.00
H1378  H     0.50992   0.00903   0.86393   0.00000  Uiso   1.00
H1379  H     0.60250   0.02230   0.87433   0.00000  Uiso   1.00
H1380  H     0.34762   0.20163   0.72022   0.00000  Uiso   1.00
H1381  H     0.57611   0.30856   0.85279   0.00000  Uiso   1.00
H1382  H     0.58666   0.02153   0.82244   0.00000  Uiso   1.00
H1383  H     0.60997   0.06732   0.96508   0.00000  Uiso   1.00
H1384  H     0.58694   0.01478   0.95776   0.00000  Uiso   1.00
H1385  H     0.59494   0.03283   0.51115   0.00000  Uiso   1.00
H1386  H     0.36176   0.23924   0.91936   0.00000  Uiso   1.00
H1387  H     0.36810   0.23406   0.97338   0.00000  Uiso   1.00
H1388  H     0.38586   0.16861   0.89244   0.00000  Uiso   1.00
H1389  H     0.39073   0.16166   0.94764   0.00000  Uiso   1.00
H1390  H     0.64612   0.16974   0.97926   0.00000  Uiso   1.00
H1391  H     0.57897   0.08883   0.63687   0.00000  Uiso   1.00
H1392  H     0.65522   0.12688   0.93719   0.00000  Uiso   1.00
H1393  H     0.64131   0.17455   0.92327   0.00000  Uiso   1.00
H1394  H     0.41836   0.18650   0.61114   0.00000  Uiso   1.00
H1395  H     0.41917   0.15967   0.55794   0.00000  Uiso   1.00
H1396  H     0.37679   0.24127   0.58470   0.00000  Uiso   1.00
H1397  H     0.36611   0.19842   0.54560   0.00000  Uiso   1.00
H1398  H     0.33741   0.15426   0.61508   0.00000  Uiso   1.00
H1399  H     0.63993   0.19559   0.61142   0.00000  Uiso   1.00
H1400  H     0.34182   0.20293   0.64817   0.00000  Uiso   1.00
H1401  H     0.45258   0.31332   0.96739   0.00000  Uiso   1.00
H1402  H     0.59974   0.12668   0.59656   0.00000  Uiso   1.00
H1403  H     0.47280   0.31110   0.51624   0.00000  Uiso   1.00
H1404  H     0.38637   0.00503   0.51394   0.00000  Uiso   1.00
H1405  H     0.40111   0.33172   0.56456   0.00000  Uiso   1.00
H1406  H     0.46230   0.05259   0.54698   0.00000  Uiso   1.00
H1407  H     0.41429   0.07295   0.54501   0.00000  Uiso   1.00
H1408  H     0.45199   0.05851   0.99335   0.00000  Uiso   1.00
H1409  H     0.59237   0.21998   0.91485   0.00000  Uiso   1.00
H1410  H     0.56406   0.22688   0.87320   0.00000  Uiso   1.00
H1411  H     0.61676   0.21093   0.85631   0.00000  Uiso   1.00
H1412  H     0.64899   0.07250   0.60740   0.00000  Uiso   1.00
H1413  H     0.62071   0.03620   0.57501   0.00000  Uiso   1.00
H1414  H     0.64078   0.10127   0.51989   0.00000  Uiso   1.00
H1415  H     0.34397   0.06361   0.51762   0.00000  Uiso   1.00
O1416  O     0.50000   0.16667   0.75000   0.00000  Uiso   1.00
O1417  O     0.48784   0.12637   0.65459   0.00000  Uiso   1.00
O1418  O     0.46274   0.20391   0.84968   0.00000  Uiso   1.00
O1419  O     0.54157   0.17759   0.64606   0.00000  Uiso   1.00
O1420  O     0.50785   0.15880   0.84968   0.00000  Uiso   1.00
O1421  O     0.55672   0.07467   0.58036   0.00000  Uiso   1.00
O1422  O     0.64798   0.12176   0.78708   0.00000  Uiso   1.00
O1423  O     0.53667   0.00463   0.69438   0.00000  Uiso   1.00
O1424  O     0.55969   0.08755   0.91794   0.00000  Uiso   1.00
O1425  O     0.54416   0.05380   0.99453   0.00000  Uiso   1.00
O1426  O     0.42444   0.24153   0.92122   0.00000  Uiso   1.00
O1427  O     0.51264   0.08019   0.78214   0.00000  Uiso   1.00
O1428  O     0.45192   0.22077   0.55922   0.00000  Uiso   1.00
O1429  O     0.42116   0.26736   0.51047   0.00000  Uiso   1.00
O1430  O     0.56915   0.16508   0.88185   0.00000  Uiso   1.00
O1431  O     0.47965   0.26085   0.77014   0.00000  Uiso   1.00
O1432  O     0.40745   0.13291   0.73413   0.00000  Uiso   1.00
O1433  O     0.60026   0.19272   0.71361   0.00000  Uiso   1.00
O1434  O     0.40405   0.18878   0.78213   0.00000  Uiso   1.00
O1435  O     0.58824   0.15226   0.77014   0.00000  Uiso   1.00
O1436  O     0.47093   0.06944   0.73413   0.00000  Uiso   1.00
O1437  O     0.53678   0.25620   0.71361   0.00000  Uiso   1.00
Zn1438 Zn    0.52672   0.13994   0.78734   0.00000  Uiso   1.00
Zn1439 Zn    0.46713   0.12458   0.71876   0.00000  Uiso   1.00
Zn1440 Zn    0.54389   0.19775   0.70657   0.00000  Uiso   1.00
Zn1441 Zn    0.46226   0.20439   0.78734   0.00000  Uiso   1.00
C1442  C     0.71965   0.15983   0.75982   0.00000  Uiso   1.00
C1443  C     0.84873   0.16942   0.55827   0.00000  Uiso   1.00
C1444  C     0.87681   0.10361   0.55848   0.00000  Uiso   1.00
C1445  C     0.94736   0.17390   0.74061   0.00000  Uiso   1.00
C1446  C     0.81414   0.19871   0.91934   0.00000  Uiso   1.00
C1447  C     0.99258   0.17834   0.74027   0.00000  Uiso   1.00
C1448  C     0.67392   0.15529   0.76538   0.00000  Uiso   1.00
C1449  C     0.84365   0.32148   0.73290   0.00000  Uiso   1.00
C1450  C     0.81988   0.01208   0.76485   0.00000  Uiso   1.00
C1451  C     0.82274   0.05602   0.76071   0.00000  Uiso   1.00
C1452  C     0.84270   0.27774   0.73964   0.00000  Uiso   1.00
C1453  C     0.78092   0.23780   0.98831   0.00000  Uiso   1.00
C1454  C     0.85230   0.14804   0.62946   0.00000  Uiso   1.00
C1455  C     0.81677   0.18609   0.87098   0.00000  Uiso   1.00
C1456  C     0.87682   0.09464   0.51310   0.00000  Uiso   1.00
C1457  C     0.86074   0.14048   0.58107   0.00000  Uiso   1.00
C1458  C     0.78404   0.22606   0.94293   0.00000  Uiso   1.00
C1459  C     0.92362   0.09268   0.60037   0.00000  Uiso   1.00
C1460  C     0.96366   0.06992   0.58177   0.00000  Uiso   1.00
C1461  C     0.99277   0.08816   0.53920   0.00000  Uiso   1.00
C1462  C     0.99270   0.11390   0.82628   0.00000  Uiso   1.00
C1463  C     0.68404   0.07555   0.81776   0.00000  Uiso   1.00
C1464  C     0.79840   0.21463   0.51315   0.00000  Uiso   1.00
C1465  C     0.69648   0.06639   0.85956   0.00000  Uiso   1.00
C1466  C     0.84815   0.33212   0.65990   0.00000  Uiso   1.00
C1467  C     0.87038   0.30242   0.62195   0.00000  Uiso   1.00
C1468  C     0.85183   0.30044   0.58143   0.00000  Uiso   1.00
C1469  C     0.86745   0.07000   0.88845   0.00000  Uiso   1.00
C1470  C     0.86747   0.02259   0.88244   0.00000  Uiso   1.00
C1471  C     0.91101   0.00978   0.85636   0.00000  Uiso   1.00
C1472  C     0.91946   0.04248   0.98203   0.00000  Uiso   1.00
C1473  C     0.71425   0.22494   0.93736   0.00000  Uiso   1.00
C1474  C     0.70682   0.17725   0.92863   0.00000  Uiso   1.00
C1475  C     0.82877   0.18652   0.99081   0.00000  Uiso   1.00
C1476  C     0.99268   0.16127   0.94310   0.00000  Uiso   1.00
C1477  C     0.75033   0.19098   0.57658   0.00000  Uiso   1.00
C1478  C     0.70747   0.20678   0.57831   0.00000  Uiso   1.00
C1479  C     0.67106   0.18848   0.61544   0.00000  Uiso   1.00
C1480  C     0.77676   0.30748   0.50358   0.00000  Uiso   1.00
C1481  C     0.74720   0.00623   0.52915   0.00000  Uiso   1.00
C1482  C     0.77055   0.05030   0.52834   0.00000  Uiso   1.00
C1483  C     0.91918   0.20765   0.88213   0.00000  Uiso   1.00
C1484  C     0.83915   0.18180   0.94324   0.00000  Uiso   1.00
C1485  C     0.84802   0.16117   0.51336   0.00000  Uiso   1.00
C1486  C     0.86606   0.12508   0.98974   0.00000  Uiso   1.00
C1487  C     0.87543   0.12184   0.94280   0.00000  Uiso   1.00
C1488  C     0.87219   0.15667   0.92171   0.00000  Uiso   1.00
H1489  H     0.80096   0.00002   0.79622   0.00000  Uiso   1.00
H1490  H     0.68302   0.11359   0.54769   0.00000  Uiso   1.00
H1491  H     0.96257   0.10700   0.85237   0.00000  Uiso   1.00
H1492  H     0.67729   0.14131   0.84057   0.00000  Uiso   1.00
H1493  H     0.99727   0.04801   0.80696   0.00000  Uiso   1.00
H1494  H     0.71371   0.08041   0.79064   0.00000  Uiso   1.00
H1495  H     0.71866   0.09265   0.86935   0.00000  Uiso   1.00
H1496  H     0.71301   0.03775   0.85254   0.00000  Uiso   1.00
H1497  H     0.66760   0.06142   0.88775   0.00000  Uiso   1.00
H1498  H     0.84954   0.02963   0.64693   0.00000  Uiso   1.00
H1499  H     0.81335   0.32031   0.67093   0.00000  Uiso   1.00
H1500  H     0.84077   0.19857   0.57651   0.00000  Uiso   1.00
H1501  H     0.90525   0.31299   0.61184   0.00000  Uiso   1.00
H1502  H     0.86608   0.27061   0.63371   0.00000  Uiso   1.00
H1503  H     0.81669   0.29141   0.59131   0.00000  Uiso   1.00
H1504  H     0.86688   0.27706   0.55537   0.00000  Uiso   1.00
H1505  H     0.85817   0.33118   0.56702   0.00000  Uiso   1.00
H1506  H     0.88032   0.08345   0.85545   0.00000  Uiso   1.00
H1507  H     0.83313   0.07593   0.90111   0.00000  Uiso   1.00
H1508  H     0.85816   0.00953   0.91575   0.00000  Uiso   1.00
H1509  H     0.84325   0.00903   0.86393   0.00000  Uiso   1.00
H1510  H     0.93584   0.02230   0.87433   0.00000  Uiso   1.00
H1511  H     0.68095   0.20163   0.72022   0.00000  Uiso   1.00
H1512  H     0.90944   0.30856   0.85279   0.00000  Uiso   1.00
H1513  H     0.91999   0.02153   0.82244   0.00000  Uiso   1.00
H1514  H     0.94331   0.06732   0.96508   0.00000  Uiso   1.00
H1515  H     0.92028   0.01478   0.95776   0.00000  Uiso   1.00
H1516  H     0.92827   0.03283   0.51115   0.00000  Uiso   1.00
H1517  H     0.69509   0.23924   0.91936   0.00000  Uiso   1.00
H1518  H     0.70143   0.23406   0.97338   0.00000  Uiso   1.00
H1519  H     0.71920   0.16861   0.89244   0.00000  Uiso   1.00
H1520  H     0.72407   0.16166   0.94764   0.00000  Uiso   1.00
H1521  H     0.97945   0.16974   0.97926   0.00000  Uiso   1.00
H1522  H     0.91230   0.08883   0.63687   0.00000  Uiso   1.00
H1523  H     0.98855   0.12688   0.93719   0.00000  Uiso   1.00
H1524  H     0.97465   0.17455   0.92327   0.00000  Uiso   1.00
H1525  H     0.75169   0.18650   0.61114   0.00000  Uiso   1.00
H1526  H     0.75250   0.15967   0.55794   0.00000  Uiso   1.00
H1527  H     0.71013   0.24127   0.58470   0.00000  Uiso   1.00
H1528  H     0.69944   0.19842   0.54560   0.00000  Uiso   1.00
H1529  H     0.67074   0.15426   0.61508   0.00000  Uiso   1.00
H1530  H     0.97326   0.19559   0.61142   0.00000  Uiso   1.00
H1531  H     0.67515   0.20293   0.64817   0.00000  Uiso   1.00
H1532  H     0.78591   0.31332   0.96739   0.00000  Uiso   1.00
H1533  H     0.93308   0.12668   0.59656   0.00000  Uiso   1.00
H1534  H     0.80613   0.31110   0.51624   0.00000  Uiso   1.00
H1535  H     0.71970   0.00503   0.51394   0.00000  Uiso   1.00
H1536  H     0.73445   0.33172   0.56456   0.00000  Uiso   1.00
H1537  H     0.79563   0.05259   0.54698   0.00000  Uiso   1.00
H1538  H     0.74762   0.07295   0.54501   0.00000  Uiso   1.00
H1539  H     0.78532   0.05851   0.99335   0.00000  Uiso   1.00
H1540  H     0.92570   0.21998   0.91485   0.00000  Uiso   1.00
H1541  H     0.89739   0.22688   0.87320   0.00000  Uiso   1.00
H1542  H     0.95009   0.21093   0.85631   0.00000  Uiso   1.00
H1543  H     0.98233   0.07250   0.60740   0.00000  Uiso   1.00
H1544  H     0.95404   0.03620   0.57501   0.00000  Uiso   1.00
H1545  H     0.97411   0.10127   0.51989   0.00000  Uiso   1.00
H1546  H     0.67731   0.06361   0.51762   0.00000  Uiso   1.00
O1547  O     0.83333   0.16667   0.75000   0.00000  Uiso   1.00
O1548  O     0.82118   0.12637   0.65459   0.00000  Uiso   1.00
O1549  O     0.79607   0.20391   0.84968   0.00000  Uiso   1.00
O1550  O     0.87491   0.17759   0.64606   0.00000  Uiso   1.00
O1551  O     0.84118   0.15880   0.84968   0.00000  Uiso   1.00
O1552  O     0.89005   0.07467   0.58036   0.00000  Uiso   1.00
O1553  O     0.98131   0.12176   0.78708   0.00000  Uiso   1.00
O1554  O     0.87001   0.00463   0.69438   0.00000  Uiso   1.00
O1555  O     0.89302   0.08755   0.91794   0.00000  Uiso   1.00
O1556  O     0.87749   0.05380   0.99453   0.00000  Uiso   1.00
O1557  O     0.75777   0.24153   0.92122   0.00000  Uiso   1.00
O1558  O     0.84597   0.08019   0.78214   0.00000  Uiso   1.00
O1559  O     0.78526   0.22077   0.55922   0.00000  Uiso   1.00
O1560  O     0.75449   0.26736   0.51047   0.00000  Uiso   1.00
O1561  O     0.90248   0.16508   0.88185   0.00000  Uiso   1.00
O1562  O     0.81298   0.26085   0.77014   0.00000  Uiso   1.00
O1563  O     0.74078   0.13291   0.73413   0.00000  Uiso   1.00
O1564  O     0.93360   0.19272   0.71361   0.00000  Uiso   1.00
O1565  O     0.73738   0.18878   0.78213   0.00000  Uiso   1.00
O1566  O     0.92158   0.15226   0.77014   0.00000  Uiso   1.00
O1567  O     0.80426   0.06944   0.73413   0.00000  Uiso   1.00
O1568  O     0.87012   0.25620   0.71361   0.00000  Uiso   1.00
Zn1569 Zn    0.86005   0.13994   0.78734   0.00000  Uiso   1.00
Zn1570 Zn    0.80046   0.12458   0.71876   0.00000  Uiso   1.00
Zn1571 Zn    0.87723   0.19775   0.70657   0.00000  Uiso   1.00
Zn1572 Zn    0.79560   0.20439   0.78734   0.00000  Uiso   1.00
C1573  C     0.05298   0.49316   0.75982   0.00000  Uiso   1.00
C1574  C     0.18207   0.50275   0.55827   0.00000  Uiso   1.00
C1575  C     0.21014   0.43694   0.55848   0.00000  Uiso   1.00
C1576  C     0.28070   0.50723   0.74061   0.00000  Uiso   1.00
C1577  C     0.14748   0.53204   0.91934   0.00000  Uiso   1.00
C1578  C     0.32591   0.51167   0.74027   0.00000  Uiso   1.00
C1579  C     0.00726   0.48862   0.76538   0.00000  Uiso   1.00
C1580  C     0.17698   0.65481   0.73290   0.00000  Uiso   1.00
C1581  C     0.15321   0.34541   0.76485   0.00000  Uiso   1.00
C1582  C     0.15607   0.38935   0.76071   0.00000  Uiso   1.00
C1583  C     0.17603   0.61108   0.73964   0.00000  Uiso   1.00
C1584  C     0.11426   0.57113   0.98831   0.00000  Uiso   1.00
C1585  C     0.18563   0.48137   0.62946   0.00000  Uiso   1.00
C1586  C     0.15010   0.51942   0.87098   0.00000  Uiso   1.00
C1587  C     0.21015   0.42797   0.51310   0.00000  Uiso   1.00
C1588  C     0.19408   0.47381   0.58107   0.00000  Uiso   1.00
C1589  C     0.11738   0.55939   0.94293   0.00000  Uiso   1.00
C1590  C     0.25695   0.42601   0.60037   0.00000  Uiso   1.00
C1591  C     0.29700   0.40325   0.58177   0.00000  Uiso   1.00
C1592  C     0.32610   0.42149   0.53920   0.00000  Uiso   1.00
C1593  C     0.32604   0.44723   0.82628   0.00000  Uiso   1.00
C1594  C     0.01738   0.40889   0.81776   0.00000  Uiso   1.00
C1595  C     0.13173   0.54797   0.51315   0.00000  Uiso   1.00
C1596  C     0.02981   0.39973   0.85956   0.00000  Uiso   1.00
C1597  C     0.18148   0.66545   0.65990   0.00000  Uiso   1.00
C1598  C     0.20372   0.63576   0.62195   0.00000  Uiso   1.00
C1599  C     0.18516   0.63377   0.58143   0.00000  Uiso   1.00
C1600  C     0.20079   0.40333   0.88845   0.00000  Uiso   1.00
C1601  C     0.20081   0.35592   0.88244   0.00000  Uiso   1.00
C1602  C     0.24435   0.34311   0.85636   0.00000  Uiso   1.00
C1603  C     0.25280   0.37582   0.98203   0.00000  Uiso   1.00
C1604  C     0.04759   0.55827   0.93736   0.00000  Uiso   1.00
C1605  C     0.04016   0.51058   0.92863   0.00000  Uiso   1.00
C1606  C     0.16210   0.51986   0.99081   0.00000  Uiso   1.00
C1607  C     0.32601   0.49461   0.94310   0.00000  Uiso   1.00
C1608  C     0.08366   0.52431   0.57658   0.00000  Uiso   1.00
C1609  C     0.04080   0.54011   0.57831   0.00000  Uiso   1.00
C1610  C     0.00440   0.52181   0.61544   0.00000  Uiso   1.00
C1611  C     0.11009   0.64081   0.50358   0.00000  Uiso   1.00
C1612  C     0.08053   0.33957   0.52915   0.00000  Uiso   1.00
C1613  C     0.10388   0.38363   0.52834   0.00000  Uiso   1.00
C1614  C     0.25251   0.54098   0.88213   0.00000  Uiso   1.00
C1615  C     0.17249   0.51513   0.94324   0.00000  Uiso   1.00
C1616  C     0.18135   0.49450   0.51336   0.00000  Uiso   1.00
C1617  C     0.19940   0.45842   0.98974   0.00000  Uiso   1.00
C1618  C     0.20877   0.45518   0.94280   0.00000  Uiso   1.00
C1619  C     0.20552   0.49000   0.92171   0.00000  Uiso   1.00
H1620  H     0.13429   0.33335   0.79622   0.00000  Uiso   1.00
H1621  H     0.01635   0.44692   0.54769   0.00000  Uiso   1.00
H1622  H     0.29590   0.44034   0.85237   0.00000  Uiso   1.00
H1623  H     0.01063   0.47464   0.84057   0.00000  Uiso   1.00
H1624  H     0.33060   0.38135   0.80696   0.00000  Uiso   1.00
H1625  H     0.04704   0.41374   0.79064   0.00000  Uiso   1.00
H1626  H     0.05199   0.42599   0.86935   0.00000  Uiso   1.00
H1627  H     0.04634   0.37108   0.85254   0.00000  Uiso   1.00
H1628  H     0.00094   0.39475   0.88775   0.00000  Uiso   1.00
H1629  H     0.18287   0.36297   0.64693   0.00000  Uiso   1.00
H1630  H     0.14668   0.65365   0.67093   0.00000  Uiso   1.00
H1631  H     0.17410   0.53190   0.57651   0.00000  Uiso   1.00
H1632  H     0.23858   0.64632   0.61184   0.00000  Uiso   1.00
H1633  H     0.19942   0.60395   0.63371   0.00000  Uiso   1.00
H1634  H     0.15002   0.62474   0.59131   0.00000  Uiso   1.00
H1635  H     0.20021   0.61039   0.55537   0.00000  Uiso   1.00
H1636  H     0.19150   0.66452   0.56702   0.00000  Uiso   1.00
H1637  H     0.21365   0.41678   0.85545   0.00000  Uiso   1.00
H1638  H     0.16647   0.40927   0.90111   0.00000  Uiso   1.00
H1639  H     0.19149   0.34286   0.91575   0.00000  Uiso   1.00
H1640  H     0.17658   0.34236   0.86393   0.00000  Uiso   1.00
H1641  H     0.26917   0.35563   0.87433   0.00000  Uiso   1.00
H1642  H     0.01429   0.53496   0.72022   0.00000  Uiso   1.00
H1643  H     0.24278   0.64190   0.85279   0.00000  Uiso   1.00
H1644  H     0.25332   0.35486   0.82244   0.00000  Uiso   1.00
H1645  H     0.27664   0.40065   0.96508   0.00000  Uiso   1.00
H1646  H     0.25361   0.34812   0.95776   0.00000  Uiso   1.00
H1647  H     0.26161   0.36616   0.51115   0.00000  Uiso   1.00
H1648  H     0.02843   0.57257   0.91936   0.00000  Uiso   1.00
H1649  H     0.03477   0.56739   0.97338   0.00000  Uiso   1.00
H1650  H     0.05253   0.50194   0.89244   0.00000  Uiso   1.00
H1651  H     0.05740   0.49499   0.94764   0.00000  Uiso   1.00
H1652  H     0.31278   0.50307   0.97926   0.00000  Uiso   1.00
H1653  H     0.24564   0.42216   0.63687   0.00000  Uiso   1.00
H1654  H     0.32189   0.46021   0.93719   0.00000  Uiso   1.00
H1655  H     0.30798   0.50788   0.92327   0.00000  Uiso   1.00
H1656  H     0.08503   0.51984   0.61114   0.00000  Uiso   1.00
H1657  H     0.08583   0.49300   0.55794   0.00000  Uiso   1.00
H1658  H     0.04346   0.57460   0.58470   0.00000  Uiso   1.00
H1659  H     0.03277   0.53176   0.54560   0.00000  Uiso   1.00
H1660  H     0.00407   0.48759   0.61508   0.00000  Uiso   1.00
H1661  H     0.30659   0.52892   0.61142   0.00000  Uiso   1.00
H1662  H     0.00848   0.53626   0.64817   0.00000  Uiso   1.00
H1663  H     0.11925   0.64665   0.96739   0.00000  Uiso   1.00
H1664  H     0.26641   0.46001   0.59656   0.00000  Uiso   1.00
H1665  H     0.13947   0.64444   0.51624   0.00000  Uiso   1.00
H1666  H     0.05304   0.33836   0.51394   0.00000  Uiso   1.00
H1667  H     0.06778   0.66505   0.56456   0.00000  Uiso   1.00
H1668  H     0.12896   0.38592   0.54698   0.00000  Uiso   1.00
H1669  H     0.08095   0.40628   0.54501   0.00000  Uiso   1.00
H1670  H     0.11866   0.39184   0.99335   0.00000  Uiso   1.00
H1671  H     0.25903   0.55331   0.91485   0.00000  Uiso   1.00
H1672  H     0.23073   0.56021   0.87320   0.00000  Uiso   1.00
H1673  H     0.28342   0.54427   0.85631   0.00000  Uiso   1.00
H1674  H     0.31566   0.40583   0.60740   0.00000  Uiso   1.00
H1675  H     0.28738   0.36953   0.57501   0.00000  Uiso   1.00
H1676  H     0.30745   0.43460   0.51989   0.00000  Uiso   1.00
H1677  H     0.01064   0.39694   0.51762   0.00000  Uiso   1.00
O1678  O     0.16667   0.50000   0.75000   0.00000  Uiso   1.00
O1679  O     0.15451   0.45970   0.65459   0.00000  Uiso   1.00
O1680  O     0.12940   0.53724   0.84968   0.00000  Uiso   1.00
O1681  O     0.20824   0.51092   0.64606   0.00000  Uiso   1.00
O1682  O     0.17451   0.49213   0.84968   0.00000  Uiso   1.00
O1683  O     0.22339   0.40800   0.58036   0.00000  Uiso   1.00
O1684  O     0.31464   0.45509   0.78708   0.00000  Uiso   1.00
O1685  O     0.20334   0.33797   0.69438   0.00000  Uiso   1.00
O1686  O     0.22636   0.42088   0.91794   0.00000  Uiso   1.00
O1687  O     0.21082   0.38713   0.99453   0.00000  Uiso   1.00
O1688  O     0.09111   0.57486   0.92122   0.00000  Uiso   1.00
O1689  O     0.17930   0.41352   0.78214   0.00000  Uiso   1.00
O1690  O     0.11859   0.55410   0.55922   0.00000  Uiso   1.00
O1691  O     0.08783   0.60070   0.51047   0.00000  Uiso   1.00
O1692  O     0.23582   0.49841   0.88185   0.00000  Uiso   1.00
O1693  O     0.14632   0.59418   0.77014   0.00000  Uiso   1.00
O1694  O     0.07412   0.46625   0.73413   0.00000  Uiso   1.00
O1695  O     0.26693   0.52605   0.71361   0.00000  Uiso   1.00
O1696  O     0.07071   0.52211   0.78213   0.00000  Uiso   1.00
O1697  O     0.25491   0.48559   0.77014   0.00000  Uiso   1.00
O1698  O     0.13760   0.40277   0.73413   0.00000  Uiso   1.00
O1699  O     0.20345   0.58953   0.71361   0.00000  Uiso   1.00
Zn1700 Zn    0.19338   0.47327   0.78734   0.00000  Uiso   1.00
Zn1701 Zn    0.13379   0.45791   0.71876   0.00000  Uiso   1.00
Zn1702 Zn    0.21056   0.53109   0.70657   0.00000  Uiso   1.00
Zn1703 Zn    0.12893   0.53773   0.78734   0.00000  Uiso   1.00
C1704  C     0.38632   0.49316   0.75982   0.00000  Uiso   1.00
C1705  C     0.51540   0.50275   0.55827   0.00000  Uiso   1.00
C1706  C     0.54347   0.43694   0.55848   0.00000  Uiso   1.00
C1707  C     0.61403   0.50723   0.74061   0.00000  Uiso   1.00
C1708  C     0.48081   0.53204   0.91934   0.00000  Uiso   1.00
C1709  C     0.65924   0.51167   0.74027   0.00000  Uiso   1.00
C1710  C     0.34059   0.48862   0.76538   0.00000  Uiso   1.00
C1711  C     0.51032   0.65481   0.73290   0.00000  Uiso   1.00
C1712  C     0.48655   0.34541   0.76485   0.00000  Uiso   1.00
C1713  C     0.48940   0.38935   0.76071   0.00000  Uiso   1.00
C1714  C     0.50936   0.61108   0.73964   0.00000  Uiso   1.00
C1715  C     0.44759   0.57113   0.98831   0.00000  Uiso   1.00
C1716  C     0.51897   0.48137   0.62946   0.00000  Uiso   1.00
C1717  C     0.48343   0.51942   0.87098   0.00000  Uiso   1.00
C1718  C     0.54349   0.42797   0.51310   0.00000  Uiso   1.00
C1719  C     0.52741   0.47381   0.58107   0.00000  Uiso   1.00
C1720  C     0.45071   0.55939   0.94293   0.00000  Uiso   1.00
C1721  C     0.59028   0.42601   0.60037   0.00000  Uiso   1.00
C1722  C     0.63033   0.40325   0.58177   0.00000  Uiso   1.00
C1723  C     0.65944   0.42149   0.53920   0.00000  Uiso   1.00
C1724  C     0.65937   0.44723   0.82628   0.00000  Uiso   1.00
C1725  C     0.35071   0.40889   0.81776   0.00000  Uiso   1.00
C1726  C     0.46507   0.54797   0.51315   0.00000  Uiso   1.00
C1727  C     0.36314   0.39973   0.85956   0.00000  Uiso   1.00
C1728  C     0.51481   0.66545   0.65990   0.00000  Uiso   1.00
C1729  C     0.53705   0.63576   0.62195   0.00000  Uiso   1.00
C1730  C     0.51850   0.63377   0.58143   0.00000  Uiso   1.00
C1731  C     0.53412   0.40333   0.88845   0.00000  Uiso   1.00
C1732  C     0.53414   0.35592   0.88244   0.00000  Uiso   1.00
C1733  C     0.57768   0.34311   0.85636   0.00000  Uiso   1.00
C1734  C     0.58613   0.37582   0.98203   0.00000  Uiso   1.00
C1735  C     0.38092   0.55827   0.93736   0.00000  Uiso   1.00
C1736  C     0.37349   0.51058   0.92863   0.00000  Uiso   1.00
C1737  C     0.49543   0.51986   0.99081   0.00000  Uiso   1.00
C1738  C     0.65935   0.49461   0.94310   0.00000  Uiso   1.00
C1739  C     0.41699   0.52431   0.57658   0.00000  Uiso   1.00
C1740  C     0.37414   0.54011   0.57831   0.00000  Uiso   1.00
C1741  C     0.33773   0.52181   0.61544   0.00000  Uiso   1.00
C1742  C     0.44343   0.64081   0.50358   0.00000  Uiso   1.00
C1743  C     0.41386   0.33957   0.52915   0.00000  Uiso   1.00
C1744  C     0.43721   0.38363   0.52834   0.00000  Uiso   1.00
C1745  C     0.58585   0.54098   0.88213   0.00000  Uiso   1.00
C1746  C     0.50582   0.51513   0.94324   0.00000  Uiso   1.00
C1747  C     0.51469   0.49450   0.51336   0.00000  Uiso   1.00
C1748  C     0.53273   0.45842   0.98974   0.00000  Uiso   1.00
C1749  C     0.54210   0.45518   0.94280   0.00000  Uiso   1.00
C1750  C     0.53885   0.49000   0.92171   0.00000  Uiso   1.00
H1751  H     0.46763   0.33335   0.79622   0.00000  Uiso   1.00
H1752  H     0.34969   0.44692   0.54769   0.00000  Uiso   1.00
H1753  H     0.62924   0.44034   0.85237   0.00000  Uiso   1.00
H1754  H     0.34396   0.47464   0.84057   0.00000  Uiso   1.00
H1755  H     0.66393   0.38135   0.80696   0.00000  Uiso   1.00
H1756  H     0.38037   0.41374   0.79064   0.00000  Uiso   1.00
H1757  H     0.38533   0.42599   0.86935   0.00000  Uiso   1.00
H1758  H     0.37967   0.37108   0.85254   0.00000  Uiso   1.00
H1759  H     0.33427   0.39475   0.88775   0.00000  Uiso   1.00
H1760  H     0.51621   0.36297   0.64693   0.00000  Uiso   1.00
H1761  H     0.48002   0.65365   0.67093   0.00000  Uiso   1.00
H1762  H     0.50744   0.53190   0.57651   0.00000  Uiso   1.00
H1763  H     0.57191   0.64632   0.61184   0.00000  Uiso   1.00
H1764  H     0.53275   0.60395   0.63371   0.00000  Uiso   1.00
H1765  H     0.48335   0.62474   0.59131   0.00000  Uiso   1.00
H1766  H     0.53355   0.61039   0.55537   0.00000  Uiso   1.00
H1767  H     0.52484   0.66452   0.56702   0.00000  Uiso   1.00
H1768  H     0.54699   0.41678   0.85545   0.00000  Uiso   1.00
H1769  H     0.49980   0.40927   0.90111   0.00000  Uiso   1.00
H1770  H     0.52483   0.34286   0.91575   0.00000  Uiso   1.00
H1771  H     0.50992   0.34236   0.86393   0.00000  Uiso   1.00
H1772  H     0.60250   0.35563   0.87433   0.00000  Uiso   1.00
H1773  H     0.34762   0.53496   0.72022   0.00000  Uiso   1.00
H1774  H     0.57611   0.64190   0.85279   0.00000  Uiso   1.00
H1775  H     0.58666   0.35486   0.82244   0.00000  Uiso   1.00
H1776  H     0.60997   0.40065   0.96508   0.00000  Uiso   1.00
H1777  H     0.58694   0.34812   0.95776   0.00000  Uiso   1.00
H1778  H     0.59494   0.36616   0.51115   0.00000  Uiso   1.00
H1779  H     0.36176   0.57257   0.91936   0.00000  Uiso   1.00
H1780  H     0.36810   0.56739   0.97338   0.00000  Uiso   1.00
H1781  H     0.38586   0.50194   0.89244   0.00000  Uiso   1.00
H1782  H     0.39073   0.49499   0.94764   0.00000  Uiso   1.00
H1783  H     0.64612   0.50307   0.97926   0.00000  Uiso   1.00
H1784  H     0.57897   0.42216   0.63687   0.00000  Uiso   1.00
H1785  H     0.65522   0.46021   0.93719   0.00000  Uiso   1.00
H1786  H     0.64131   0.50788   0.92327   0.00000  Uiso   1.00
H1787  H     0.41836   0.51984   0.61114   0.00000  Uiso   1.00
H1788  H     0.41917   0.49300   0.55794   0.00000  Uiso   1.00
H1789  H     0.37679   0.57460   0.58470   0.00000  Uiso   1.00
H1790  H     0.36611   0.53176   0.54560   0.00000  Uiso   1.00
H1791  H     0.33741   0.48759   0.61508   0.00000  Uiso   1.00
H1792  H     0.63993   0.52892   0.61142   0.00000  Uiso   1.00
H1793  H     0.34182   0.53626   0.64817   0.00000  Uiso   1.00
H1794  H     0.45258   0.64665   0.96739   0.00000  Uiso   1.00
H1795  H     0.59974   0.46001   0.59656   0.00000  Uiso   1.00
H1796  H     0.47280   0.64444   0.51624   0.00000  Uiso   1.00
H1797  H     0.38637   0.33836   0.51394   0.00000  Uiso   1.00
H1798  H     0.40111   0.66505   0.56456   0.00000  Uiso   1.00
H1799  H     0.46230   0.38592   0.54698   0.00000  Uiso   1.00
H1800  H     0.41429   0.40628   0.54501   0.00000  Uiso   1.00
H1801  H     0.45199   0.39184   0.99335   0.00000  Uiso   1.00
H1802  H     0.59237   0.55331   0.91485   0.00000  Uiso   1.00
H1803  H     0.56406   0.56021   0.87320   0.00000  Uiso   1.00
H1804  H     0.61676   0.54427   0.85631   0.00000  Uiso   1.00
H1805  H     0.64899   0.40583   0.60740   0.00000  Uiso   1.00
H1806  H     0.62071   0.36953   0.57501   0.00000  Uiso   1.00
H1807  H     0.64078   0.43460   0.51989   0.00000  Uiso   1.00
H1808  H     0.34397   0.39694   0.51762   0.00000  Uiso   1.00
O1809  O     0.50000   0.50000   0.75000   0.00000  Uiso   1.00
O1810  O     0.48784   0.45970   0.65459   0.00000  Uiso   1.00
O1811  O     0.46274   0.53724   0.84968   0.00000  Uiso   1.00
O1812  O     0.54157   0.51092   0.64606   0.00000  Uiso   1.00
O1813  O     0.50785   0.49213   0.84968   0.00000  Uiso   1.00
O1814  O     0.55672   0.40800   0.58036   0.00000  Uiso   1.00
O1815  O     0.64798   0.45509   0.78708   0.00000  Uiso   1.00
O1816  O     0.53667   0.33797   0.69438   0.00000  Uiso   1.00
O1817  O     0.55969   0.42088   0.91794   0.00000  Uiso   1.00
O1818  O     0.54416   0.38713   0.99453   0.00000  Uiso   1.00
O1819  O     0.42444   0.57486   0.92122   0.00000  Uiso   1.00
O1820  O     0.51264   0.41352   0.78214   0.00000  Uiso   1.00
O1821  O     0.45192   0.55410   0.55922   0.00000  Uiso   1.00
O1822  O     0.42116   0.60070   0.51047   0.00000  Uiso   1.00
O1823  O     0.56915   0.49841   0.88185   0.00000  Uiso   1.00
O1824  O     0.47965   0.59418   0.77014   0.00000  Uiso   1.00
O1825  O     0.40745   0.46625   0.73413   0.00000  Uiso   1.00
O1826  O     0.60026   0.52605   0.71361   0.00000  Uiso   1.00
O1827  O     0.40405   0.52211   0.78213   0.00000  Uiso   1.00
O1828  O     0.58824   0.48559   0.77014   0.00000  Uiso   1.00
O1829  O     0.47093   0.40277   0.73413   0.00000  Uiso   1.00
O1830  O     0.53678   0.58953   0.71361   0.00000  Uiso   1.00
Zn1831 Zn    0.52672   0.47327   0.78734   0.00000  Uiso   1.00
Zn1832 Zn    0.46713   0.45791   0.71876   0.00000  Uiso   1.00
Zn1833 Zn    0.54389   0.53109   0.70657   0.00000  Uiso   1.00
Zn1834 Zn    0.46226   0.53773   0.78734   0.00000  Uiso   1.00
C1835  C     0.71965   0.49316   0.75982   0.00000  Uiso   1.00
C1836  C     0.84873   0.50275   0.55827   0.00000  Uiso   1.00
C1837  C     0.87681   0.43694   0.55848   0.00000  Uiso   1.00
C1838  C     0.94736   0.50723   0.74061   0.00000  Uiso   1.00
C1839  C     0.81414   0.53204   0.91934   0.00000  Uiso   1.00
C1840  C     0.99258   0.51167   0.74027   0.00000  Uiso   1.00
C1841  C     0.67392   0.48862   0.76538   0.00000  Uiso   1.00
C1842  C     0.84365   0.65481   0.73290   0.00000  Uiso   1.00
C1843  C     0.81988   0.34541   0.76485   0.00000  Uiso   1.00
C1844  C     0.82274   0.38935   0.76071   0.00000  Uiso   1.00
C1845  C     0.84270   0.61108   0.73964   0.00000  Uiso   1.00
C1846  C     0.78092   0.57113   0.98831   0.00000  Uiso   1.00
C1847  C     0.85230   0.48137   0.62946   0.00000  Uiso   1.00
C1848  C     0.81677   0.51942   0.87098   0.00000  Uiso   1.00
C1849  C     0.87682   0.42797   0.51310   0.00000  Uiso   1.00
C1850  C     0.86074   0.47381   0.58107   0.00000  Uiso   1.00
C1851  C     0.78404   0.55939   0.94293   0.00000  Uiso   1.00
C1852  C     0.92362   0.42601   0.60037   0.00000  Uiso   1.00
C1853  C     0.96366   0.40325   0.58177   0.00000  Uiso   1.00
C1854  C     0.99277   0.42149   0.53920   0.00000  Uiso   1.00
C1855  C     0.99270   0.44723   0.82628   0.00000  Uiso   1.00
C1856  C     0.68404   0.40889   0.81776   0.00000  Uiso   1.00
C1857  C     0.79840   0.54797   0.51315   0.00000  Uiso   1.00
C1858  C     0.69648   0.39973   0.85956   0.00000  Uiso   1.00
C1859  C     0.84815   0.66545   0.65990   0.00000  Uiso   1.00
C1860  C     0.87038   0.63576   0.62195   0.00000  Uiso   1.00
C1861  C     0.85183   0.63377   0.58143   0.00000  Uiso   1.00
C1862  C     0.86745   0.40333   0.88845   0.00000  Uiso   1.00
C1863  C     0.86747   0.35592   0.88244   0.00000  Uiso   1.00
C1864  C     0.91101   0.34311   0.85636   0.00000  Uiso   1.00
C1865  C     0.91946   0.37582   0.98203   0.00000  Uiso   1.00
C1866  C     0.71425   0.55827   0.93736   0.00000  Uiso   1.00
C1867  C     0.70682   0.51058   0.92863   0.00000  Uiso   1.00
C1868  C     0.82877   0.51986   0.99081   0.00000  Uiso   1.00
C1869  C     0.99268   0.49461   0.94310   0.00000  Uiso   1.00
C1870  C     0.75033   0.52431   0.57658   0.00000  Uiso   1.00
C1871  C     0.70747   0.54011   0.57831   0.00000  Uiso   1.00
C1872  C     0.67106   0.52181   0.61544   0.00000  Uiso   1.00
C1873  C     0.77676   0.64081   0.50358   0.00000  Uiso   1.00
C1874  C     0.74720   0.33957   0.52915   0.00000  Uiso   1.00
C1875  C     0.77055   0.38363   0.52834   0.00000  Uiso   1.00
C1876  C     0.91918   0.54098   0.88213   0.00000  Uiso   1.00
C1877  C     0.83915   0.51513   0.94324   0.00000  Uiso   1.00
C1878  C     0.84802   0.49450   0.51336   0.00000  Uiso   1.00
C1879  C     0.86606   0.45842   0.98974   0.00000  Uiso   1.00
C1880  C     0.87543   0.45518   0.94280   0.00000  Uiso   1.00
C1881  C     0.87219   0.49000   0.92171   0.00000  Uiso   1.00
H1882  H     0.80096   0.33335   0.79622   0.00000  Uiso   1.00
H1883  H     0.68302   0.44692   0.54769   0.00000  Uiso   1.00
H1884  H     0.96257   0.44034   0.85237   0.00000  Uiso   1.00
H1885  H     0.67729   0.47464   0.84057   0.00000  Uiso   1.00
H1886  H     0.99727   0.38135   0.80696   0.00000  Uiso   1.00
H1887  H     0.71371   0.41374   0.79064   0.00000  Uiso   1.00
H1888  H     0.71866   0.42599   0.86935   0.00000  Uiso   1.00
H1889  H     0.71301   0.37108   0.85254   0.00000  Uiso   1.00
H1890  H     0.66760   0.39475   0.88775   0.00000  Uiso   1.00
H1891  H     0.84954   0.36297   0.64693   0.00000  Uiso   1.00
H1892  H     0.81335   0.65365   0.67093   0.00000  Uiso   1.00
H1893  H     0.84077   0.53190   0.57651   0.00000  Uiso   1.00
H1894  H     0.90525   0.64632   0.61184   0.00000  Uiso   1.00
H1895  H     0.86608   0.60395   0.63371   0.00000  Uiso   1.00
H1896  H     0.81669   0.62474   0.59131   0.00000  Uiso   1.00
H1897  H     0.86688   0.61039   0.55537   0.00000  Uiso   1.00
H1898  H     0.85817   0.66452   0.56702   0.00000  Uiso   1.00
H1899  H     0.88032   0.41678   0.85545   0.00000  Uiso   1.00
H1900  H     0.83313   0.40927   0.90111   0.00000  Uiso   1.00
H1901  H     0.85816   0.34286   0.91575   0.00000  Uiso   1.00
H1902  H     0.84325   0.34236   0.86393   0.00000  Uiso   1.00
H1903  H     0.93584   0.35563   0.87433   0.00000  Uiso   1.00
H1904  H     0.68095   0.53496   0.72022   0.00000  Uiso   1.00
H1905  H     0.90944   0.64190   0.85279   0.00000  Uiso   1.00
H1906  H     0.91999   0.35486   0.82244   0.00000  Uiso   1.00
H1907  H     0.94331   0.40065   0.96508   0.00000  Uiso   1.00
H1908  H     0.92028   0.34812   0.95776   0.00000  Uiso   1.00
H1909  H     0.92827   0.36616   0.51115   0.00000  Uiso   1.00
H1910  H     0.69509   0.57257   0.91936   0.00000  Uiso   1.00
H1911  H     0.70143   0.56739   0.97338   0.00000  Uiso   1.00
H1912  H     0.71920   0.50194   0.89244   0.00000  Uiso   1.00
H1913  H     0.72407   0.49499   0.94764   0.00000  Uiso   1.00
H1914  H     0.97945   0.50307   0.97926   0.00000  Uiso   1.00
H1915  H     0.91230   0.42216   0.63687   0.00000  Uiso   1.00
H1916  H     0.98855   0.46021   0.93719   0.00000  Uiso   1.00
H1917  H     0.97465   0.50788   0.92327   0.00000  Uiso   1.00
H1918  H     0.75169   0.51984   0.61114   0.00000  Uiso   1.00
H1919  H     0.75250   0.49300   0.55794   0.00000  Uiso   1.00
H1920  H     0.71013   0.57460   0.58470   0.00000  Uiso   1.00
H1921  H     0.69944   0.53176   0.54560   0.00000  Uiso   1.00
H1922  H     0.67074   0.48759   0.61508   0.00000  Uiso   1.00
H1923  H     0.97326   0.52892   0.61142   0.00000  Uiso   1.00
H1924  H     0.67515   0.53626   0.64817   0.00000  Uiso   1.00
H1925  H     0.78591   0.64665   0.96739   0.00000  Uiso   1.00
H1926  H     0.93308   0.46001   0.59656   0.00000  Uiso   1.00
H1927  H     0.80613   0.64444   0.51624   0.00000  Uiso   1.00
H1928  H     0.71970   0.33836   0.51394   0.00000  Uiso   1.00
H1929  H     0.73445   0.66505   0.56456   0.00000  Uiso   1.00
H1930  H     0.79563   0.38592   0.54698   0.00000  Uiso   1.00
H1931  H     0.74762   0.40628   0.54501   0.00000  Uiso   1.00
H1932  H     0.78532   0.39184   0.99335   0.00000  Uiso   1.00
H1933  H     0.92570   0.55331   0.91485   0.00000  Uiso   1.00
H1934  H     0.89739   0.56021   0.87320   0.00000  Uiso   1.00
H1935  H     0.95009   0.54427   0.85631   0.00000  Uiso   1.00
H1936  H     0.98233   0.40583   0.60740   0.00000  Uiso   1.00
H1937  H     0.95404   0.36953   0.57501   0.00000  Uiso   1.00
H1938  H     0.97411   0.43460   0.51989   0.00000  Uiso   1.00
H1939  H     0.67731   0.39694   0.51762   0.00000  Uiso   1.00
O1940  O     0.83333   0.50000   0.75000   0.00000  Uiso   1.00
O1941  O     0.82118   0.45970   0.65459   0.00000  Uiso   1.00
O1942  O     0.79607   0.53724   0.84968   0.00000  Uiso   1.00
O1943  O     0.87491   0.51092   0.64606   0.00000  Uiso   1.00
O1944  O     0.84118   0.49213   0.84968   0.00000  Uiso   1.00
O1945  O     0.89005   0.40800   0.58036   0.00000  Uiso   1.00
O1946  O     0.98131   0.45509   0.78708   0.00000  Uiso   1.00
O1947  O     0.87001   0.33797   0.69438   0.00000  Uiso   1.00
O1948  O     0.89302   0.42088   0.91794   0.00000  Uiso   1.00
O1949  O     0.87749   0.38713   0.99453   0.00000  Uiso   1.00
O1950  O     0.75777   0.57486   0.92122   0.00000  Uiso   1.00
O1951  O     0.84597   0.41352   0.78214   0.00000  Uiso   1.00
O1952  O     0.78526   0.55410   0.55922   0.00000  Uiso   1.00
O1953  O     0.75449   0.60070   0.51047   0.00000  Uiso   1.00
O1954  O     0.90248   0.49841   0.88185   0.00000  Uiso   1.00
O1955  O     0.81298   0.59418   0.77014   0.00000  Uiso   1.00
O1956  O     0.74078   0.46625   0.73413   0.00000  Uiso   1.00
O1957  O     0.93360   0.52605   0.71361   0.00000  Uiso   1.00
O1958  O     0.73738   0.52211   0.78213   0.00000  Uiso   1.00
O1959  O     0.92158   0.48559   0.77014   0.00000  Uiso   1.00
O1960  O     0.80426   0.40277   0.73413   0.00000  Uiso   1.00
O1961  O     0.87012   0.58953   0.71361   0.00000  Uiso   1.00
Zn1962 Zn    0.86005   0.47327   0.78734   0.00000  Uiso   1.00
Zn1963 Zn    0.80046   0.45791   0.71876   0.00000  Uiso   1.00
Zn1964 Zn    0.87723   0.53109   0.70657   0.00000  Uiso   1.00
Zn1965 Zn    0.79560   0.53773   0.78734   0.00000  Uiso   1.00
C1966  C     0.05298   0.82649   0.75982   0.00000  Uiso   1.00
C1967  C     0.18207   0.83609   0.55827   0.00000  Uiso   1.00
C1968  C     0.21014   0.77027   0.55848   0.00000  Uiso   1.00
C1969  C     0.28070   0.84057   0.74061   0.00000  Uiso   1.00
C1970  C     0.14748   0.86537   0.91934   0.00000  Uiso   1.00
C1971  C     0.32591   0.84501   0.74027   0.00000  Uiso   1.00
C1972  C     0.00726   0.82195   0.76538   0.00000  Uiso   1.00
C1973  C     0.17698   0.98814   0.73290   0.00000  Uiso   1.00
C1974  C     0.15321   0.67874   0.76485   0.00000  Uiso   1.00
C1975  C     0.15607   0.72268   0.76071   0.00000  Uiso   1.00
C1976  C     0.17603   0.94441   0.73964   0.00000  Uiso   1.00
C1977  C     0.11426   0.90447   0.98831   0.00000  Uiso   1.00
C1978  C     0.18563   0.81471   0.62946   0.00000  Uiso   1.00
C1979  C     0.15010   0.85276   0.87098   0.00000  Uiso   1.00
C1980  C     0.21015   0.76130   0.51310   0.00000  Uiso   1.00
C1981  C     0.19408   0.80715   0.58107   0.00000  Uiso   1.00
C1982  C     0.11738   0.89273   0.94293   0.00000  Uiso   1.00
C1983  C     0.25695   0.75934   0.60037   0.00000  Uiso   1.00
C1984  C     0.29700   0.73658   0.58177   0.00000  Uiso   1.00
C1985  C     0.32610   0.75482   0.53920   0.00000  Uiso   1.00
C1986  C     0.32604   0.78056   0.82628   0.00000  Uiso   1.00
C1987  C     0.01738   0.74222   0.81776   0.00000  Uiso   1.00
C1988  C     0.13173   0.88130   0.51315   0.00000  Uiso   1.00
C1989  C     0.02981   0.73306   0.85956   0.00000  Uiso   1.00
C1990  C     0.18148   0.99879   0.65990   0.00000  Uiso   1.00
C1991  C     0.20372   0.96909   0.62195   0.00000  Uiso   1.00
C1992  C     0.18516   0.96711   0.58143   0.00000  Uiso   1.00
C1993  C     0.20079   0.73666   0.88845   0.00000  Uiso   1.00
C1994  C     0.20081   0.68925   0.88244   0.00000  Uiso   1.00
C1995  C     0.24435   0.67644   0.85636   0.00000  Uiso   1.00
C1996  C     0.25280   0.70915   0.98203   0.00000  Uiso   1.00
C1997  C     0.04759   0.89161   0.93736   0.00000  Uiso   1.00
C1998  C     0.04016   0.84391   0.92863   0.00000  Uiso   1.00
C1999  C     0.16210   0.85319   0.99081   0.00000  Uiso   1.00
C2000  C     0.32601   0.82794   0.94310   0.00000  Uiso   1.00
C2001  C     0.08366   0.85764   0.57658   0.00000  Uiso   1.00
C2002  C     0.04080   0.87344   0.57831   0.00000  Uiso   1.00
C2003  C     0.00440   0.85515   0.61544   0.00000  Uiso   1.00
C2004  C     0.11009   0.97415   0.50358   0.00000  Uiso   1.00
C2005  C     0.08053   0.67290   0.52915   0.00000  Uiso   1.00
C2006  C     0.10388   0.71696   0.52834   0.00000  Uiso   1.00
C2007  C     0.25251   0.87431   0.88213   0.00000  Uiso   1.00
C2008  C     0.17249   0.84846   0.94324   0.00000  Uiso   1.00
C2009  C     0.18135   0.82783   0.51336   0.00000  Uiso   1.00
C2010  C     0.19940   0.79175   0.98974   0.00000  Uiso   1.00
C2011  C     0.20877   0.78851   0.94280   0.00000  Uiso   1.00
C2012  C     0.20552   0.82334   0.92171   0.00000  Uiso   1.00
H2013  H     0.13429   0.66668   0.79622   0.00000  Uiso   1.00
H2014  H     0.01635   0.78025   0.54769   0.00000  Uiso   1.00
H2015  H     0.29590   0.77367   0.85237   0.00000  Uiso   1.00
H2016  H     0.01063   0.80798   0.84057   0.00000  Uiso   1.00
H2017  H     0.33060   0.71468   0.80696   0.00000  Uiso   1.00
H2018  H     0.04704   0.74707   0.79064   0.00000  Uiso   1.00
H2019  H     0.05199   0.75932   0.86935   0.00000  Uiso   1.00
H2020  H     0.04634   0.70441   0.85254   0.00000  Uiso   1.00
H2021  H     0.00094   0.72809   0.88775   0.00000  Uiso   1.00
H2022  H     0.18287   0.69630   0.64693   0.00000  Uiso   1.00
H2023  H     0.14668   0.98698   0.67093   0.00000  Uiso   1.00
H2024  H     0.17410   0.86524   0.57651   0.00000  Uiso   1.00
H2025  H     0.23858   0.97965   0.61184   0.00000  Uiso   1.00
H2026  H     0.19942   0.93728   0.63371   0.00000  Uiso   1.00
H2027  H     0.15002   0.95808   0.59131   0.00000  Uiso   1.00
H2028  H     0.20021   0.94372   0.55537   0.00000  Uiso   1.00
H2029  H     0.19150   0.99785   0.56702   0.00000  Uiso   1.00
H2030  H     0.21365   0.75012   0.85545   0.00000  Uiso   1.00
H2031  H     0.16647   0.74260   0.90111   0.00000  Uiso   1.00
H2032  H     0.19149   0.67619   0.91575   0.00000  Uiso   1.00
H2033  H     0.17658   0.67570   0.86393   0.00000  Uiso   1.00
H2034  H     0.26917   0.68896   0.87433   0.00000  Uiso   1.00
H2035  H     0.01429   0.86829   0.72022   0.00000  Uiso   1.00
H2036  H     0.24278   0.97523   0.85279   0.00000  Uiso   1.00
H2037  H     0.25332   0.68820   0.82244   0.00000  Uiso   1.00
H2038  H     0.27664   0.73398   0.96508   0.00000  Uiso   1.00
H2039  H     0.25361   0.68145   0.95776   0.00000  Uiso   1.00
H2040  H     0.26161   0.69949   0.51115   0.00000  Uiso   1.00
H2041  H     0.02843   0.90591   0.91936   0.00000  Uiso   1.00
H2042  H     0.03477   0.90073   0.97338   0.00000  Uiso   1.00
H2043  H     0.05253   0.83527   0.89244   0.00000  Uiso   1.00
H2044  H     0.05740   0.82833   0.94764   0.00000  Uiso   1.00
H2045  H     0.31278   0.83640   0.97926   0.00000  Uiso   1.00
H2046  H     0.24564   0.75550   0.63687   0.00000  Uiso   1.00
H2047  H     0.32189   0.79355   0.93719   0.00000  Uiso   1.00
H2048  H     0.30798   0.84122   0.92327   0.00000  Uiso   1.00
H2049  H     0.08503   0.85317   0.61114   0.00000  Uiso   1.00
H2050  H     0.08583   0.82633   0.55794   0.00000  Uiso   1.00
H2051  H     0.04346   0.90793   0.58470   0.00000  Uiso   1.00
H2052  H     0.03277   0.86509   0.54560   0.00000  Uiso   1.00
H2053  H     0.00407   0.82092   0.61508   0.00000  Uiso   1.00
H2054  H     0.30659   0.86226   0.61142   0.00000  Uiso   1.00
H2055  H     0.00848   0.86959   0.64817   0.00000  Uiso   1.00
H2056  H     0.11925   0.97999   0.96739   0.00000  Uiso   1.00
H2057  H     0.26641   0.79334   0.59656   0.00000  Uiso   1.00
H2058  H     0.13947   0.97777   0.51624   0.00000  Uiso   1.00
H2059  H     0.05304   0.67170   0.51394   0.00000  Uiso   1.00
H2060  H     0.06778   0.99838   0.56456   0.00000  Uiso   1.00
H2061  H     0.12896   0.71925   0.54698   0.00000  Uiso   1.00
H2062  H     0.08095   0.73962   0.54501   0.00000  Uiso   1.00
H2063  H     0.11866   0.72517   0.99335   0.00000  Uiso   1.00
H2064  H     0.25903   0.88665   0.91485   0.00000  Uiso   1.00
H2065  H     0.23073   0.89355   0.87320   0.00000  Uiso   1.00
H2066  H     0.28342   0.87760   0.85631   0.00000  Uiso   1.00
H2067  H     0.31566   0.73916   0.60740   0.00000  Uiso   1.00
H2068  H     0.28738   0.70286   0.57501   0.00000  Uiso   1.00
H2069  H     0.30745   0.76794   0.51989   0.00000  Uiso   1.00
H2070  H     0.01064   0.73027   0.51762   0.00000  Uiso   1.00
O2071  O     0.16667   0.83333   0.75000   0.00000  Uiso   1.00
O2072  O     0.15451   0.79304   0.65459   0.00000  Uiso   1.00
O2073  O     0.12940   0.87058   0.84968   0.00000  Uiso   1.00
O2074  O     0.20824   0.84425   0.64606   0.00000  Uiso   1.00
O2075  O     0.17451   0.82546   0.84968   0.00000  Uiso   1.00
O2076  O     0.22339   0.74134   0.58036   0.00000  Uiso   1.00
O2077  O     0.31464   0.78843   0.78708   0.00000  Uiso   1.00
O2078  O     0.20334   0.67130   0.69438   0.00000  Uiso   1.00
O2079  O     0.22636   0.75421   0.91794   0.00000  Uiso   1.00
O2080  O     0.21082   0.72047   0.99453   0.00000  Uiso   1.00
O2081  O     0.09111   0.90820   0.92122   0.00000  Uiso   1.00
O2082  O     0.17930   0.74686   0.78214   0.00000  Uiso   1.00
O2083  O     0.11859   0.88744   0.55922   0.00000  Uiso   1.00
O2084  O     0.08783   0.93403   0.51047   0.00000  Uiso   1.00
O2085  O     0.23582   0.83175   0.88185   0.00000  Uiso   1.00
O2086  O     0.14632   0.92751   0.77014   0.00000  Uiso   1.00
O2087  O     0.07412   0.79958   0.73413   0.00000  Uiso   1.00
O2088  O     0.26693   0.85939   0.71361   0.00000  Uiso   1.00
O2089  O     0.07071   0.85544   0.78213   0.00000  Uiso   1.00
O2090  O     0.25491   0.81892   0.77014   0.00000  Uiso   1.00
O2091  O     0.13760   0.73610   0.73413   0.00000  Uiso   1.00
O2092  O     0.20345   0.92286   0.71361   0.00000  Uiso   1.00
Zn2093 Zn    0.19338   0.80661   0.78734   0.00000  Uiso   1.00
Zn2094 Zn    0.13379   0.79124   0.71876   0.00000  Uiso   1.00
Zn2095 Zn    0.21056   0.86442   0.70657   0.00000  Uiso   1.00
Zn2096 Zn    0.12893   0.87106   0.78734   0.00000  Uiso   1.00
C2097  C     0.38632   0.82649   0.75982   0.00000  Uiso   1.00
C2098  C     0.51540   0.83609   0.55827   0.00000  Uiso   1.00
C2099  C     0.54347   0.77027   0.55848   0.00000  Uiso   1.00
C2100  C     0.61403   0.84057   0.74061   0.00000  Uiso   1.00
C2101  C     0.48081   0.86537   0.91934   0.00000  Uiso   1.00
C2102  C     0.65924   0.84501   0.74027   0.00000  Uiso   1.00
C2103  C     0.34059   0.82195   0.76538   0.00000  Uiso   1.00
C2104  C     0.51032   0.98814   0.73290   0.00000  Uiso   1.00
C2105  C     0.48655   0.67874   0.76485   0.00000  Uiso   1.00
C2106  C     0.48940   0.72268   0.76071   0.00000  Uiso   1.00
C2107  C     0.50936   0.94441   0.73964   0.00000  Uiso   1.00
C2108  C     0.44759   0.90447   0.98831   0.00000  Uiso   1.00
C2109  C     0.51897   0.81471   0.62946   0.00000  Uiso   1.00
C2110  C     0.48343   0.85276   0.87098   0.00000  Uiso   1.00
C2111  C     0.54349   0.76130   0.51310   0.00000  Uiso   1.00
C2112  C     0.52741   0.80715   0.58107   0.00000  Uiso   1.00
C2113  C     0.45071   0.89273   0.94293   0.00000  Uiso   1.00
C2114  C     0.59028   0.75934   0.60037   0.00000  Uiso   1.00
C2115  C     0.63033   0.73658   0.58177   0.00000  Uiso   1.00
C2116  C     0.65944   0.75482   0.53920   0.00000  Uiso   1.00
C2117  C     0.65937   0.78056   0.82628   0.00000  Uiso   1.00
C2118  C     0.35071   0.74222   0.81776   0.00000  Uiso   1.00
C2119  C     0.46507   0.88130   0.51315   0.00000  Uiso   1.00
C2120  C     0.36314   0.73306   0.85956   0.00000  Uiso   1.00
C2121  C     0.51481   0.99879   0.65990   0.00000  Uiso   1.00
C2122  C     0.53705   0.96909   0.62195   0.00000  Uiso   1.00
C2123  C     0.51850   0.96711   0.58143   0.00000  Uiso   1.00
C2124  C     0.53412   0.73666   0.88845   0.00000  Uiso   1.00
C2125  C     0.53414   0.68925   0.88244   0.00000  Uiso   1.00
C2126  C     0.57768   0.67644   0.85636   0.00000  Uiso   1.00
C2127  C     0.58613   0.70915   0.98203   0.00000  Uiso   1.00
C2128  C     0.38092   0.89161   0.93736   0.00000  Uiso   1.00
C2129  C     0.37349   0.84391   0.92863   0.00000  Uiso   1.00
C2130  C     0.49543   0.85319   0.99081   0.00000  Uiso   1.00
C2131  C     0.65935   0.82794   0.94310   0.00000  Uiso   1.00
C2132  C     0.41699   0.85764   0.57658   0.00000  Uiso   1.00
C2133  C     0.37414   0.87344   0.57831   0.00000  Uiso   1.00
C2134  C     0.33773   0.85515   0.61544   0.00000  Uiso   1.00
C2135  C     0.44343   0.97415   0.50358   0.00000  Uiso   1.00
C2136  C     0.41386   0.67290   0.52915   0.00000  Uiso   1.00
C2137  C     0.43721   0.71696   0.52834   0.00000  Uiso   1.00
C2138  C     0.58585   0.87431   0.88213   0.00000  Uiso   1.00
C2139  C     0.50582   0.84846   0.94324   0.00000  Uiso   1.00
C2140  C     0.51469   0.82783   0.51336   0.00000  Uiso   1.00
C2141  C     0.53273   0.79175   0.98974   0.00000  Uiso   1.00
C2142  C     0.54210   0.78851   0.94280   0.00000  Uiso   1.00
C2143  C     0.53885   0.82334   0.92171   0.00000  Uiso   1.00
H2144  H     0.46763   0.66668   0.79622   0.00000  Uiso   1.00
H2145  H     0.34969   0.78025   0.54769   0.00000  Uiso   1.00
H2146  H     0.62924   0.77367   0.85237   0.00000  Uiso   1.00
H2147  H     0.34396   0.80798   0.84057   0.00000  Uiso   1.00
H2148  H     0.66393   0.71468   0.80696   0.00000  Uiso   1.00
H2149  H     0.38037   0.74707   0.79064   0.00000  Uiso   1.00
H2150  H     0.38533   0.75932   0.86935   0.00000  Uiso   1.00
H2151  H     0.37967   0.70441   0.85254   0.00000  Uiso   1.00
H2152  H     0.33427   0.72809   0.88775   0.00000  Uiso   1.00
H2153  H     0.51621   0.69630   0.64693   0.00000  Uiso   1.00
H2154  H     0.48002   0.98698   0.67093   0.00000  Uiso   1.00
H2155  H     0.50744   0.86524   0.57651   0.00000  Uiso   1.00
H2156  H     0.57191   0.97965   0.61184   0.00000  Uiso   1.00
H2157  H     0.53275   0.93728   0.63371   0.00000  Uiso   1.00
H2158  H     0.48335   0.95808   0.59131   0.00000  Uiso   1.00
H2159  H     0.53355   0.94372   0.55537   0.00000  Uiso   1.00
H2160  H     0.52484   0.99785   0.56702   0.00000  Uiso   1.00
H2161  H     0.54699   0.75012   0.85545   0.00000  Uiso   1.00
H2162  H     0.49980   0.74260   0.90111   0.00000  Uiso   1.00
H2163  H     0.52483   0.67619   0.91575   0.00000  Uiso   1.00
H2164  H     0.50992   0.67570   0.86393   0.00000  Uiso   1.00
H2165  H     0.60250   0.68896   0.87433   0.00000  Uiso   1.00
H2166  H     0.34762   0.86829   0.72022   0.00000  Uiso   1.00
H2167  H     0.57611   0.97523   0.85279   0.00000  Uiso   1.00
H2168  H     0.58666   0.68820   0.82244   0.00000  Uiso   1.00
H2169  H     0.60997   0.73398   0.96508   0.00000  Uiso   1.00
H2170  H     0.58694   0.68145   0.95776   0.00000  Uiso   1.00
H2171  H     0.59494   0.69949   0.51115   0.00000  Uiso   1.00
H2172  H     0.36176   0.90591   0.91936   0.00000  Uiso   1.00
H2173  H     0.36810   0.90073   0.97338   0.00000  Uiso   1.00
H2174  H     0.38586   0.83527   0.89244   0.00000  Uiso   1.00
H2175  H     0.39073   0.82833   0.94764   0.00000  Uiso   1.00
H2176  H     0.64612   0.83640   0.97926   0.00000  Uiso   1.00
H2177  H     0.57897   0.75550   0.63687   0.00000  Uiso   1.00
H2178  H     0.65522   0.79355   0.93719   0.00000  Uiso   1.00
H2179  H     0.64131   0.84122   0.92327   0.00000  Uiso   1.00
H2180  H     0.41836   0.85317   0.61114   0.00000  Uiso   1.00
H2181  H     0.41917   0.82633   0.55794   0.00000  Uiso   1.00
H2182  H     0.37679   0.90793   0.58470   0.00000  Uiso   1.00
H2183  H     0.36611   0.86509   0.54560   0.00000  Uiso   1.00
H2184  H     0.33741   0.82092   0.61508   0.00000  Uiso   1.00
H2185  H     0.63993   0.86226   0.61142   0.00000  Uiso   1.00
H2186  H     0.34182   0.86959   0.64817   0.00000  Uiso   1.00
H2187  H     0.45258   0.97999   0.96739   0.00000  Uiso   1.00
H2188  H     0.59974   0.79334   0.59656   0.00000  Uiso   1.00
H2189  H     0.47280   0.97777   0.51624   0.00000  Uiso   1.00
H2190  H     0.38637   0.67170   0.51394   0.00000  Uiso   1.00
H2191  H     0.40111   0.99838   0.56456   0.00000  Uiso   1.00
H2192  H     0.46230   0.71925   0.54698   0.00000  Uiso   1.00
H2193  H     0.41429   0.73962   0.54501   0.00000  Uiso   1.00
H2194  H     0.45199   0.72517   0.99335   0.00000  Uiso   1.00
H2195  H     0.59237   0.88665   0.91485   0.00000  Uiso   1.00
H2196  H     0.56406   0.89355   0.87320   0.00000  Uiso   1.00
H2197  H     0.61676   0.87760   0.85631   0.00000  Uiso   1.00
H2198  H     0.64899   0.73916   0.60740   0.00000  Uiso   1.00
H2199  H     0.62071   0.70286   0.57501   0.00000  Uiso   1.00
H2200  H     0.64078   0.76794   0.51989   0.00000  Uiso   1.00
H2201  H     0.34397   0.73027   0.51762   0.00000  Uiso   1.00
O2202  O     0.50000   0.83333   0.75000   0.00000  Uiso   1.00
O2203  O     0.48784   0.79304   0.65459   0.00000  Uiso   1.00
O2204  O     0.46274   0.87058   0.84968   0.00000  Uiso   1.00
O2205  O     0.54157   0.84425   0.64606   0.00000  Uiso   1.00
O2206  O     0.50785   0.82546   0.84968   0.00000  Uiso   1.00
O2207  O     0.55672   0.74134   0.58036   0.00000  Uiso   1.00
O2208  O     0.64798   0.78843   0.78708   0.00000  Uiso   1.00
O2209  O     0.53667   0.67130   0.69438   0.00000  Uiso   1.00
O2210  O     0.55969   0.75421   0.91794   0.00000  Uiso   1.00
O2211  O     0.54416   0.72047   0.99453   0.00000  Uiso   1.00
O2212  O     0.42444   0.90820   0.92122   0.00000  Uiso   1.00
O2213  O     0.51264   0.74686   0.78214   0.00000  Uiso   1.00
O2214  O     0.45192   0.88744   0.55922   0.00000  Uiso   1.00
O2215  O     0.42116   0.93403   0.51047   0.00000  Uiso   1.00
O2216  O     0.56915   0.83175   0.88185   0.00000  Uiso   1.00
O2217  O     0.47965   0.92751   0.77014   0.00000  Uiso   1.00
O2218  O     0.40745   0.79958   0.73413   0.00000  Uiso   1.00
O2219  O     0.60026   0.85939   0.71361   0.00000  Uiso   1.00
O2220  O     0.40405   0.85544   0.78213   0.00000  Uiso   1.00
O2221  O     0.58824   0.81892   0.77014   0.00000  Uiso   1.00
O2222  O     0.47093   0.73610   0.73413   0.00000  Uiso   1.00
O2223  O     0.53678   0.92286   0.71361   0.00000  Uiso   1.00
Zn2224 Zn    0.52672   0.80661   0.78734   0.00000  Uiso   1.00
Zn2225 Zn    0.46713   0.79124   0.71876   0.00000  Uiso   1.00
Zn2226 Zn    0.54389   0.86442   0.70657   0.00000  Uiso   1.00
Zn2227 Zn    0.46226   0.87106   0.78734   0.00000  Uiso   1.00
C2228  C     0.71965   0.82649   0.75982   0.00000  Uiso   1.00
C2229  C     0.84873   0.83609   0.55827   0.00000  Uiso   1.00
C2230  C     0.87681   0.77027   0.55848   0.00000  Uiso   1.00
C2231  C     0.94736   0.84057   0.74061   0.00000  Uiso   1.00
C2232  C     0.81414   0.86537   0.91934   0.00000  Uiso   1.00
C2233  C     0.99258   0.84501   0.74027   0.00000  Uiso   1.00
C2234  C     0.67392   0.82195   0.76538   0.00000  Uiso   1.00
C2235  C     0.84365   0.98814   0.73290   0.00000  Uiso   1.00
C2236  C     0.81988   0.67874   0.76485   0.00000  Uiso   1.00
C2237  C     0.82274   0.72268   0.76071   0.00000  Uiso   1.00
C2238  C     0.84270   0.94441   0.73964   0.00000  Uiso   1.00
C2239  C     0.78092   0.90447   0.98831   0.00000  Uiso   1.00
C2240  C     0.85230   0.81471   0.62946   0.00000  Uiso   1.00
C2241  C     0.81677   0.85276   0.87098   0.00000  Uiso   1.00
C2242  C     0.87682   0.76130   0.51310   0.00000  Uiso   1.00
C2243  C     0.86074   0.80715   0.58107   0.00000  Uiso   1.00
C2244  C     0.78404   0.89273   0.94293   0.00000  Uiso   1.00
C2245  C     0.92362   0.75934   0.60037   0.00000  Uiso   1.00
C2246  C     0.96366   0.73658   0.58177   0.00000  Uiso   1.00
C2247  C     0.99277   0.75482   0.53920   0.00000  Uiso   1.00
C2248  C     0.99270   0.78056   0.82628   0.00000  Uiso   1.00
C2249  C     0.68404   0.74222   0.81776   0.00000  Uiso   1.00
C2250  C     0.79840   0.88130   0.51315   0.00000  Uiso   1.00
C2251  C     0.69648   0.73306   0.85956   0.00000  Uiso   1.00
C2252  C     0.84815   0.99879   0.65990   0.00000  Uiso   1.00
C2253  C     0.87038   0.96909   0.62195   0.00000  Uiso   1.00
C2254  C     0.85183   0.96711   0.58143   0.00000  Uiso   1.00
C2255  C     0.86745   0.73666   0.88845   0.00000  Uiso   1.00
C2256  C     0.86747   0.68925   0.88244   0.00000  Uiso   1.00
C2257  C     0.91101   0.67644   0.85636   0.00000  Uiso   1.00
C2258  C     0.91946   0.70915   0.98203   0.00000  Uiso   1.00
C2259  C     0.71425   0.89161   0.93736   0.00000  Uiso   1.00
C2260  C     0.70682   0.84391   0.92863   0.00000  Uiso   1.00
C2261  C     0.82877   0.85319   0.99081   0.00000  Uiso   1.00
C2262  C     0.99268   0.82794   0.94310   0.00000  Uiso   1.00
C2263  C     0.75033   0.85764   0.57658   0.00000  Uiso   1.00
C2264  C     0.70747   0.87344   0.57831   0.00000  Uiso   1.00
C2265  C     0.67106   0.85515   0.61544   0.00000  Uiso   1.00
C2266  C     0.77676   0.97415   0.50358   0.00000  Uiso   1.00
C2267  C     0.74720   0.67290   0.52915   0.00000  Uiso   1.00
C2268  C     0.77055   0.71696   0.52834   0.00000  Uiso   1.00
C2269  C     0.91918   0.87431   0.88213   0.00000  Uiso   1.00
C2270  C     0.83915   0.84846   0.94324   0.00000  Uiso   1.00
C2271  C     0.84802   0.82783   0.51336   0.00000  Uiso   1.00
C2272  C     0.86606   0.79175   0.98974   0.00000  Uiso   1.00
C2273  C     0.87543   0.78851   0.94280   0.00000  Uiso   1.00
C2274  C     0.87219   0.82334   0.92171   0.00000  Uiso   1.00
H2275  H     0.80096   0.66668   0.79622   0.00000  Uiso   1.00
H2276  H     0.68302   0.78025   0.54769   0.00000  Uiso   1.00
H2277  H     0.96257   0.77367   0.85237   0.00000  Uiso   1.00
H2278  H     0.67729   0.80798   0.84057   0.00000  Uiso   1.00
H2279  H     0.99727   0.71468   0.80696   0.00000  Uiso   1.00
H2280  H     0.71371   0.74707   0.79064   0.00000  Uiso   1.00
H2281  H     0.71866   0.75932   0.86935   0.00000  Uiso   1.00
H2282  H     0.71301   0.70441   0.85254   0.00000  Uiso   1.00
H2283  H     0.66760   0.72809   0.88775   0.00000  Uiso   1.00
H2284  H     0.84954   0.69630   0.64693   0.00000  Uiso   1.00
H2285  H     0.81335   0.98698   0.67093   0.00000  Uiso   1.00
H2286  H     0.84077   0.86524   0.57651   0.00000  Uiso   1.00
H2287  H     0.90525   0.97965   0.61184   0.00000  Uiso   1.00
H2288  H     0.86608   0.93728   0.63371   0.00000  Uiso   1.00
H2289  H     0.81669   0.95808   0.59131   0.00000  Uiso   1.00
H2290  H     0.86688   0.94372   0.55537   0.00000  Uiso   1.00
H2291  H     0.85817   0.99785   0.56702   0.00000  Uiso   1.00
H2292  H     0.88032   0.75012   0.85545   0.00000  Uiso   1.00
H2293  H     0.83313   0.74260   0.90111   0.00000  Uiso   1.00
H2294  H     0.85816   0.67619   0.91575   0.00000  Uiso   1.00
H2295  H     0.84325   0.67570   0.86393   0.00000  Uiso   1.00
H2296  H     0.93584   0.68896   0.87433   0.00000  Uiso   1.00
H2297  H     0.68095   0.86829   0.72022   0.00000  Uiso   1.00
H2298  H     0.90944   0.97523   0.85279   0.00000  Uiso   1.00
H2299  H     0.91999   0.68820   0.82244   0.00000  Uiso   1.00
H2300  H     0.94331   0.73398   0.96508   0.00000  Uiso   1.00
H2301  H     0.92028   0.68145   0.95776   0.00000  Uiso   1.00
H2302  H     0.92827   0.69949   0.51115   0.00000  Uiso   1.00
H2303  H     0.69509   0.90591   0.91936   0.00000  Uiso   1.00
H2304  H     0.70143   0.90073   0.97338   0.00000  Uiso   1.00
H2305  H     0.71920   0.83527   0.89244   0.00000  Uiso   1.00
H2306  H     0.72407   0.82833   0.94764   0.00000  Uiso   1.00
H2307  H     0.97945   0.83640   0.97926   0.00000  Uiso   1.00
H2308  H     0.91230   0.75550   0.63687   0.00000  Uiso   1.00
H2309  H     0.98855   0.79355   0.93719   0.00000  Uiso   1.00
H2310  H     0.97465   0.84122   0.92327   0.00000  Uiso   1.00
H2311  H     0.75169   0.85317   0.61114   0.00000  Uiso   1.00
H2312  H     0.75250   0.82633   0.55794   0.00000  Uiso   1.00
H2313  H     0.71013   0.90793   0.58470   0.00000  Uiso   1.00
H2314  H     0.69944   0.86509   0.54560   0.00000  Uiso   1.00
H2315  H     0.67074   0.82092   0.61508   0.00000  Uiso   1.00
H2316  H     0.97326   0.86226   0.61142   0.00000  Uiso   1.00
H2317  H     0.67515   0.86959   0.64817   0.00000  Uiso   1.00
H2318  H     0.78591   0.97999   0.96739   0.00000  Uiso   1.00
H2319  H     0.93308   0.79334   0.59656   0.00000  Uiso   1.00
H2320  H     0.80613   0.97777   0.51624   0.00000  Uiso   1.00
H2321  H     0.71970   0.67170   0.51394   0.00000  Uiso   1.00
H2322  H     0.73445   0.99838   0.56456   0.00000  Uiso   1.00
H2323  H     0.79563   0.71925   0.54698   0.00000  Uiso   1.00
H2324  H     0.74762   0.73962   0.54501   0.00000  Uiso   1.00
H2325  H     0.78532   0.72517   0.99335   0.00000  Uiso   1.00
H2326  H     0.92570   0.88665   0.91485   0.00000  Uiso   1.00
H2327  H     0.89739   0.89355   0.87320   0.00000  Uiso   1.00
H2328  H     0.95009   0.87760   0.85631   0.00000  Uiso   1.00
H2329  H     0.98233   0.73916   0.60740   0.00000  Uiso   1.00
H2330  H     0.95404   0.70286   0.57501   0.00000  Uiso   1.00
H2331  H     0.97411   0.76794   0.51989   0.00000  Uiso   1.00
H2332  H     0.67731   0.73027   0.51762   0.00000  Uiso   1.00
O2333  O     0.83333   0.83333   0.75000   0.00000  Uiso   1.00
O2334  O     0.82118   0.79304   0.65459   0.00000  Uiso   1.00
O2335  O     0.79607   0.87058   0.84968   0.00000  Uiso   1.00
O2336  O     0.87491   0.84425   0.64606   0.00000  Uiso   1.00
O2337  O     0.84118   0.82546   0.84968   0.00000  Uiso   1.00
O2338  O     0.89005   0.74134   0.58036   0.00000  Uiso   1.00
O2339  O     0.98131   0.78843   0.78708   0.00000  Uiso   1.00
O2340  O     0.87001   0.67130   0.69438   0.00000  Uiso   1.00
O2341  O     0.89302   0.75421   0.91794   0.00000  Uiso   1.00
O2342  O     0.87749   0.72047   0.99453   0.00000  Uiso   1.00
O2343  O     0.75777   0.90820   0.92122   0.00000  Uiso   1.00
O2344  O     0.84597   0.74686   0.78214   0.00000  Uiso   1.00
O2345  O     0.78526   0.88744   0.55922   0.00000  Uiso   1.00
O2346  O     0.75449   0.93403   0.51047   0.00000  Uiso   1.00
O2347  O     0.90248   0.83175   0.88185   0.00000  Uiso   1.00
O2348  O     0.81298   0.92751   0.77014   0.00000  Uiso   1.00
O2349  O     0.74078   0.79958   0.73413   0.00000  Uiso   1.00
O2350  O     0.93360   0.85939   0.71361   0.00000  Uiso   1.00
O2351  O     0.73738   0.85544   0.78213   0.00000  Uiso   1.00
O2352  O     0.92158   0.81892   0.77014   0.00000  Uiso   1.00
O2353  O     0.80426   0.73610   0.73413   0.00000  Uiso   1.00
O2354  O     0.87012   0.92286   0.71361   0.00000  Uiso   1.00
Zn2355 Zn    0.86005   0.80661   0.78734   0.00000  Uiso   1.00
Zn2356 Zn    0.80046   0.79124   0.71876   0.00000  Uiso   1.00
Zn2357 Zn    0.87723   0.86442   0.70657   0.00000  Uiso   1.00
Zn2358 Zn    0.79560   0.87106   0.78734   0.00000  Uiso   1.00
loop_
_geom_bond_atom_site_label_1
_geom_bond_atom_site_label_2
_geom_bond_distance
_geom_bond_site_symmetry_2
_ccdc_geom_bond_type
C1     O122    1.265   .     A
C1     C7      1.441   .     S
C1     O124    1.273   .     A
C2     C44     1.398   .     A
C2     C16     1.387   .     A
C2     H59     1.077   .     S
C3     O111    1.389   .     S
C3     C15     1.409   .     A
C3     C16     1.413   .     A
C4     O125    1.269   .     A
C4     C6      1.456   .     S
C4     O123    1.288   .     A
C5     C17     1.416   .     A
C5     C43     1.429   .     A
C5     C14     1.497   .     S
C6     C138    1.347   .     S
C6     H201    1.087   .     S
C7     C268    1.347   1_455 S
C7     O374    1.399   1_455 S
C8     C11     1.451   .     S
C8     C402    1.335   .     S
C8     O506    1.387   .     S
C9     C10     1.434   .     S
C9     H48     1.087   .     S
C9     C794    1.335   1_545 S
C10    O117    1.274   .     A
C10    O126    1.281   .     A
C11    O121    1.271   .     A
C11    O127    1.269   .     A
C12    C17     1.401   .     A
C12    C1202   1.398   .     S
C12    O1298   1.381   .     S
C13    O109    1.276   .     A
C13    O107    1.279   .     A
C13    C16     1.455   .     S
C14    O108    1.284   .     A
C14    O110    1.283   .     A
C15    C1224   1.416   1_554 S
C15    O1294   1.389   1_554 S
C17    O116    1.389   .     S
C18    H81     1.111   .     S
C18    C19     1.534   .     S
C18    O111    1.424   .     S
C18    H92     1.114   .     S
C19    C20     1.533   .     S
C19    H102    1.112   .     S
C19    H103    1.110   .     S
C20    H104    1.107   .     S
C20    H180    1.108   .     S
C20    H236    1.109   .     S
C21    H50     1.109   .     S
C21    O112    1.419   .     S
C21    C153    1.534   .     S
C21    H182    1.113   .     S
C22    H53     1.107   .     S
C22    C24     1.526   .     S
C22    C283    1.534   1_455 S
C22    H314    1.110   1_455 S
C23    O118    1.382   .     S
C23    C1191   1.398   1_554 S
C23    C1213   1.429   1_554 S
C24    H55     1.110   .     S
C24    H54     1.110   .     S
C24    H56     1.110   .     S
C25    C26     1.530   .     S
C25    H58     1.119   .     S
C25    H450    1.109   .     S
C25    O506    1.418   .     S
C26    C27     1.525   .     S
C26    H61     1.110   .     S
C26    H60     1.110   .     S
C27    H62     1.110   .     S
C27    H64     1.108   .     S
C27    H63     1.110   .     S
C28    H66     1.119   .     S
C28    O114    1.420   .     S
C28    C29     1.530   .     S
C28    H65     1.112   .     S
C29    C30     1.524   .     S
C29    H68     1.112   .     S
C29    H67     1.111   .     S
C30    H69     1.109   .     S
C30    H72     1.111   .     S
C30    H857    1.110   1_545 S
C31    H73     1.110   .     S
C31    O115    1.407   .     S
C31    H74     1.109   .     S
C31    H1254   1.104   .     S
C32    H77     1.110   .     S
C32    O116    1.422   .     S
C32    H76     1.111   .     S
C32    C33     1.540   .     S
C33    H78     1.109   .     S
C33    H79     1.111   .     S
C33    C297    1.524   1_455 S
C34    C43     1.423   .     A
C34    C1202   1.429   .     S
C34    C1223   1.433   .     S
C35    H80     1.111   .     S
C35    H82     1.107   .     S
C35    H83     1.107   .     S
C35    C164    1.524   .     S
C36    C37     1.537   .     S
C36    H85     1.116   .     S
C36    H84     1.112   .     S
C36    O118    1.416   .     S
C37    H86     1.111   .     S
C37    C38     1.523   .     S
C37    H87     1.111   .     S
C38    H88     1.108   .     S
C38    H90     1.106   .     S
C38    H351    1.110   1_455 S
C39    H93     1.113   .     S
C39    O119    1.409   .     S
C39    C433    1.529   .     S
C39    H1270   1.114   1_554 S
C40    C41     1.524   .     S
C40    H94     1.111   .     S
C40    C825    1.529   1_545 S
C40    H881    1.112   1_545 S
C41    H96     1.109   .     S
C41    H97     1.110   .     S
C41    H1277   1.111   1_554 S
C42    H100    1.109   .     S
C42    H101    1.109   .     S
C42    H99     1.114   .     S
C42    O120    1.414   .     S
C43    C47     1.419   .     A
C44    C1213   1.433   1_554 S
C44    C1224   1.426   1_554 S
C45    C46     1.404   .     A
C45    C1223   1.426   .     S
C45    C1194   1.416   .     S
C46    O114    1.386   .     S
C46    C47     1.394   .     A
C47    O120    1.391   .     S
H49    C282    1.108   1_455 S
H51    C283    1.113   1_455 S
H52    C153    1.110   .     S
H57    C811    1.109   1_545 S
H70    C268    1.087   1_455 S
H71    C423    1.110   .     S
H75    C1210   1.104   1_554 S
H89    C169    1.110   .     S
H91    C1218   1.114   .     S
H95    C433    1.112   .     S
H98    C1220   1.111   .     S
H105   C282    1.109   1_455 S
O106   Zn129   1.954   .     S
O106   Zn128   1.950   .     S
O106   Zn131   1.927   .     S
O106   Zn130   1.939   .     S
O107   Zn129   1.933   .     S
O108   Zn131   1.942   .     S
O109   Zn130   1.941   .     S
O110   Zn128   1.930   .     S
O112   C138    1.399   .     S
O113   C811    1.418   1_545 S
O113   C794    1.387   1_545 S
O115   C1194   1.389   .     S
O117   Zn128   1.930   .     S
O119   C1191   1.381   1_554 S
O121   Zn131   1.931   .     S
O122   Zn129   1.924   .     S
O123   Zn130   1.934   .     S
O124   Zn131   1.938   .     S
O125   Zn128   1.929   .     S
O126   Zn129   1.928   .     S
O127   Zn130   1.925   .     S
C132   O253    1.265   .     A
C132   C138    1.441   .     S
C132   O255    1.273   .     A
C133   C175    1.398   .     A
C133   C147    1.387   .     A
C133   H190    1.077   .     S
C134   O242    1.389   .     S
C134   C146    1.409   .     A
C134   C147    1.413   .     A
C135   O256    1.269   .     A
C135   C137    1.456   .     S
C135   O254    1.288   .     A
C136   C148    1.416   .     A
C136   C174    1.429   .     A
C136   C145    1.497   .     S
C137   C269    1.347   .     S
C137   H332    1.087   .     S
C139   C142    1.451   .     S
C139   C533    1.335   .     S
C139   O637    1.387   .     S
C140   C141    1.434   .     S
C140   H179    1.087   .     S
C140   C925    1.335   1_545 S
C141   O248    1.274   .     A
C141   O257    1.281   .     A
C142   O252    1.271   .     A
C142   O258    1.269   .     A
C143   C148    1.401   .     A
C143   C1333   1.398   .     S
C143   O1429   1.381   .     S
C144   O240    1.276   .     A
C144   O238    1.279   .     A
C144   C147    1.455   .     S
C145   O239    1.284   .     A
C145   O241    1.283   .     A
C146   C1355   1.416   1_554 S
C146   O1425   1.389   1_554 S
C148   O247    1.389   .     S
C149   H212    1.111   .     S
C149   C150    1.534   .     S
C149   O242    1.424   .     S
C149   H223    1.114   .     S
C150   C151    1.533   .     S
C150   H233    1.112   .     S
C150   H234    1.110   .     S
C151   H235    1.107   .     S
C151   H311    1.108   .     S
C151   H367    1.109   .     S
C152   H181    1.109   .     S
C152   O243    1.419   .     S
C152   C284    1.534   .     S
C152   H313    1.113   .     S
C153   H184    1.107   .     S
C153   C155    1.526   .     S
C154   O249    1.382   .     S
C154   C1322   1.398   1_554 S
C154   C1344   1.429   1_554 S
C155   H186    1.110   .     S
C155   H185    1.110   .     S
C155   H187    1.110   .     S
C156   C157    1.530   .     S
C156   H189    1.119   .     S
C156   H581    1.109   .     S
C156   O637    1.418   .     S
C157   C158    1.525   .     S
C157   H192    1.110   .     S
C157   H191    1.110   .     S
C158   H193    1.110   .     S
C158   H195    1.108   .     S
C158   H194    1.110   .     S
C159   H197    1.119   .     S
C159   O245    1.420   .     S
C159   C160    1.530   .     S
C159   H196    1.112   .     S
C160   C161    1.524   .     S
C160   H199    1.112   .     S
C160   H198    1.111   .     S
C161   H200    1.109   .     S
C161   H203    1.111   .     S
C161   H988    1.110   1_545 S
C162   H204    1.110   .     S
C162   O246    1.407   .     S
C162   H205    1.109   .     S
C162   H1385   1.104   .     S
C163   H208    1.110   .     S
C163   O247    1.422   .     S
C163   H207    1.111   .     S
C163   C164    1.540   .     S
C164   H209    1.109   .     S
C164   H210    1.111   .     S
C165   C174    1.423   .     A
C165   C1333   1.429   .     S
C165   C1354   1.433   .     S
C166   H211    1.111   .     S
C166   H213    1.107   .     S
C166   H214    1.107   .     S
C166   C295    1.524   .     S
C167   C168    1.537   .     S
C167   H216    1.116   .     S
C167   H215    1.112   .     S
C167   O249    1.416   .     S
C168   H217    1.111   .     S
C168   C169    1.523   .     S
C168   H218    1.111   .     S
C169   H219    1.108   .     S
C169   H221    1.106   .     S
C170   H224    1.113   .     S
C170   O250    1.409   .     S
C170   C564    1.529   .     S
C170   H1401   1.114   1_554 S
C171   C172    1.524   .     S
C171   H225    1.111   .     S
C171   C956    1.529   1_545 S
C171   H1012   1.112   1_545 S
C172   H227    1.109   .     S
C172   H228    1.110   .     S
C172   H1408   1.111   1_554 S
C173   H231    1.109   .     S
C173   H232    1.109   .     S
C173   H230    1.114   .     S
C173   O251    1.414   .     S
C174   C178    1.419   .     A
C175   C1344   1.433   1_554 S
C175   C1355   1.426   1_554 S
C176   C177    1.404   .     A
C176   C1354   1.426   .     S
C176   C1325   1.416   .     S
C177   O245    1.386   .     S
C177   C178    1.394   .     A
C178   O251    1.391   .     S
H183   C284    1.110   .     S
H188   C942    1.109   1_545 S
H202   C554    1.110   .     S
H206   C1341   1.104   1_554 S
H220   C300    1.110   .     S
H222   C1349   1.114   .     S
H226   C564    1.112   .     S
H229   C1351   1.111   .     S
O237   Zn260   1.954   .     S
O237   Zn259   1.950   .     S
O237   Zn262   1.927   .     S
O237   Zn261   1.939   .     S
O238   Zn260   1.933   .     S
O239   Zn262   1.942   .     S
O240   Zn261   1.941   .     S
O241   Zn259   1.930   .     S
O243   C269    1.399   .     S
O244   C942    1.418   1_545 S
O244   C925    1.387   1_545 S
O246   C1325   1.389   .     S
O248   Zn259   1.930   .     S
O250   C1322   1.381   1_554 S
O252   Zn262   1.931   .     S
O253   Zn260   1.924   .     S
O254   Zn261   1.934   .     S
O255   Zn262   1.938   .     S
O256   Zn259   1.929   .     S
O257   Zn260   1.928   .     S
O258   Zn261   1.925   .     S
C263   O384    1.265   .     A
C263   C269    1.441   .     S
C263   O386    1.273   .     A
C264   C306    1.398   .     A
C264   C278    1.387   .     A
C264   H321    1.077   .     S
C265   O373    1.389   .     S
C265   C277    1.409   .     A
C265   C278    1.413   .     A
C266   O387    1.269   .     A
C266   C268    1.456   .     S
C266   O385    1.288   .     A
C267   C279    1.416   .     A
C267   C305    1.429   .     A
C267   C276    1.497   .     S
C268   C7      1.347   1_655 S
C268   H70     1.087   1_655 S
C270   C273    1.451   .     S
C270   C664    1.335   .     S
C270   O768    1.387   .     S
C271   C272    1.434   .     S
C271   H310    1.087   .     S
C271   C1056   1.335   1_545 S
C272   O379    1.274   .     A
C272   O388    1.281   .     A
C273   O383    1.271   .     A
C273   O389    1.269   .     A
C274   C279    1.401   .     A
C274   C1464   1.398   .     S
C274   O1560   1.381   .     S
C275   O371    1.276   .     A
C275   O369    1.279   .     A
C275   C278    1.455   .     S
C276   O370    1.284   .     A
C276   O372    1.283   .     A
C277   C1486   1.416   1_554 S
C277   O1556   1.389   1_554 S
C279   O378    1.389   .     S
C280   H343    1.111   .     S
C280   C281    1.534   .     S
C280   O373    1.424   .     S
C280   H354    1.114   .     S
C281   C282    1.533   .     S
C281   H364    1.112   .     S
C281   H365    1.110   .     S
C282   H366    1.107   .     S
C282   H49     1.108   1_655 S
C282   H105    1.109   1_655 S
C283   H312    1.109   .     S
C283   O374    1.419   .     S
C283   C22     1.534   1_655 S
C283   H51     1.113   1_655 S
C284   H315    1.107   .     S
C284   C286    1.526   .     S
C285   O380    1.382   .     S
C285   C1453   1.398   1_554 S
C285   C1475   1.429   1_554 S
C286   H317    1.110   .     S
C286   H316    1.110   .     S
C286   H318    1.110   .     S
C287   C288    1.530   .     S
C287   H320    1.119   .     S
C287   H712    1.109   .     S
C287   O768    1.418   .     S
C288   C289    1.525   .     S
C288   H323    1.110   .     S
C288   H322    1.110   .     S
C289   H324    1.110   .     S
C289   H326    1.108   .     S
C289   H325    1.110   .     S
C290   H328    1.119   .     S
C290   O376    1.420   .     S
C290   C291    1.530   .     S
C290   H327    1.112   .     S
C291   C292    1.524   .     S
C291   H330    1.112   .     S
C291   H329    1.111   .     S
C292   H331    1.109   .     S
C292   H334    1.111   .     S
C292   H1119   1.110   1_545 S
C293   H335    1.110   .     S
C293   O377    1.407   .     S
C293   H336    1.109   .     S
C293   H1516   1.104   .     S
C294   H339    1.110   .     S
C294   O378    1.422   .     S
C294   H338    1.111   .     S
C294   C295    1.540   .     S
C295   H340    1.109   .     S
C295   H341    1.111   .     S
C296   C305    1.423   .     A
C296   C1464   1.429   .     S
C296   C1485   1.433   .     S
C297   H342    1.111   .     S
C297   H344    1.107   .     S
C297   H345    1.107   .     S
C297   C33     1.524   1_655 S
C298   C299    1.537   .     S
C298   H347    1.116   .     S
C298   H346    1.112   .     S
C298   O380    1.416   .     S
C299   H348    1.111   .     S
C299   C300    1.523   .     S
C299   H349    1.111   .     S
C300   H350    1.108   .     S
C300   H352    1.106   .     S
C301   H355    1.113   .     S
C301   O381    1.409   .     S
C301   C695    1.529   .     S
C301   H1532   1.114   1_554 S
C302   C303    1.524   .     S
C302   H356    1.111   .     S
C302   C1087   1.529   1_545 S
C302   H1143   1.112   1_545 S
C303   H358    1.109   .     S
C303   H359    1.110   .     S
C303   H1539   1.111   1_554 S
C304   H362    1.109   .     S
C304   H363    1.109   .     S
C304   H361    1.114   .     S
C304   O382    1.414   .     S
C305   C309    1.419   .     A
C306   C1475   1.433   1_554 S
C306   C1486   1.426   1_554 S
C307   C308    1.404   .     A
C307   C1485   1.426   .     S
C307   C1456   1.416   .     S
C308   O376    1.386   .     S
C308   C309    1.394   .     A
C309   O382    1.391   .     S
H314   C22     1.110   1_655 S
H319   C1073   1.109   1_545 S
H333   C685    1.110   .     S
H337   C1472   1.104   1_554 S
H351   C38     1.110   1_655 S
H353   C1480   1.114   .     S
H357   C695    1.112   .     S
H360   C1482   1.111   .     S
O368   Zn391   1.954   .     S
O368   Zn390   1.950   .     S
O368   Zn393   1.927   .     S
O368   Zn392   1.939   .     S
O369   Zn391   1.933   .     S
O370   Zn393   1.942   .     S
O371   Zn392   1.941   .     S
O372   Zn390   1.930   .     S
O374   C7      1.399   1_655 S
O375   C1073   1.418   1_545 S
O375   C1056   1.387   1_545 S
O377   C1456   1.389   .     S
O379   Zn390   1.930   .     S
O381   C1453   1.381   1_554 S
O383   Zn393   1.931   .     S
O384   Zn391   1.924   .     S
O385   Zn392   1.934   .     S
O386   Zn393   1.938   .     S
O387   Zn390   1.929   .     S
O388   Zn391   1.928   .     S
O389   Zn392   1.925   .     S
C394   O515    1.265   .     A
C394   C400    1.441   .     S
C394   O517    1.273   .     A
C395   C437    1.398   .     A
C395   C409    1.387   .     A
C395   H452    1.077   .     S
C396   O504    1.389   .     S
C396   C408    1.409   .     A
C396   C409    1.413   .     A
C397   O518    1.269   .     A
C397   C399    1.456   .     S
C397   O516    1.288   .     A
C398   C410    1.416   .     A
C398   C436    1.429   .     A
C398   C407    1.497   .     S
C399   C531    1.347   .     S
C399   H594    1.087   .     S
C400   C661    1.347   1_455 S
C400   O767    1.399   1_455 S
C401   C404    1.451   .     S
C401   C795    1.335   .     S
C401   O899    1.387   .     S
C402   C403    1.434   .     S
C402   H441    1.087   .     S
C403   O510    1.274   .     A
C403   O519    1.281   .     A
C404   O514    1.271   .     A
C404   O520    1.269   .     A
C405   C410    1.401   .     A
C405   C1595   1.398   .     S
C405   O1691   1.381   .     S
C406   O502    1.276   .     A
C406   O500    1.279   .     A
C406   C409    1.455   .     S
C407   O501    1.284   .     A
C407   O503    1.283   .     A
C408   C1617   1.416   1_554 S
C408   O1687   1.389   1_554 S
C410   O509    1.389   .     S
C411   H474    1.111   .     S
C411   C412    1.534   .     S
C411   O504    1.424   .     S
C411   H485    1.114   .     S
C412   C413    1.533   .     S
C412   H495    1.112   .     S
C412   H496    1.110   .     S
C413   H497    1.107   .     S
C413   H573    1.108   .     S
C413   H629    1.109   .     S
C414   H443    1.109   .     S
C414   O505    1.419   .     S
C414   C546    1.534   .     S
C414   H575    1.113   .     S
C415   H446    1.107   .     S
C415   C417    1.526   .     S
C415   C676    1.534   1_455 S
C415   H707    1.110   1_455 S
C416   O511    1.382   .     S
C416   C1584   1.398   1_554 S
C416   C1606   1.429   1_554 S
C417   H448    1.110   .     S
C417   H447    1.110   .     S
C417   H449    1.110   .     S
C418   C419    1.530   .     S
C418   H451    1.119   .     S
C418   H843    1.109   .     S
C418   O899    1.418   .     S
C419   C420    1.525   .     S
C419   H454    1.110   .     S
C419   H453    1.110   .     S
C420   H455    1.110   .     S
C420   H457    1.108   .     S
C420   H456    1.110   .     S
C421   H459    1.119   .     S
C421   O507    1.420   .     S
C421   C422    1.530   .     S
C421   H458    1.112   .     S
C422   C423    1.524   .     S
C422   H461    1.112   .     S
C422   H460    1.111   .     S
C423   H462    1.109   .     S
C423   H465    1.111   .     S
C424   H466    1.110   .     S
C424   O508    1.407   .     S
C424   H467    1.109   .     S
C424   H1647   1.104   .     S
C425   H470    1.110   .     S
C425   O509    1.422   .     S
C425   H469    1.111   .     S
C425   C426    1.540   .     S
C426   H471    1.109   .     S
C426   H472    1.111   .     S
C426   C690    1.524   1_455 S
C427   C436    1.423   .     A
C427   C1595   1.429   .     S
C427   C1616   1.433   .     S
C428   H473    1.111   .     S
C428   H475    1.107   .     S
C428   H476    1.107   .     S
C428   C557    1.524   .     S
C429   C430    1.537   .     S
C429   H478    1.116   .     S
C429   H477    1.112   .     S
C429   O511    1.416   .     S
C430   H479    1.111   .     S
C430   C431    1.523   .     S
C430   H480    1.111   .     S
C431   H481    1.108   .     S
C431   H483    1.106   .     S
C431   H744    1.110   1_455 S
C432   H486    1.113   .     S
C432   O512    1.409   .     S
C432   C826    1.529   .     S
C432   H1663   1.114   1_554 S
C433   C434    1.524   .     S
C433   H487    1.111   .     S
C434   H489    1.109   .     S
C434   H490    1.110   .     S
C434   H1670   1.111   1_554 S
C435   H493    1.109   .     S
C435   H494    1.109   .     S
C435   H492    1.114   .     S
C435   O513    1.414   .     S
C436   C440    1.419   .     A
C437   C1606   1.433   1_554 S
C437   C1617   1.426   1_554 S
C438   C439    1.404   .     A
C438   C1616   1.426   .     S
C438   C1587   1.416   .     S
C439   O507    1.386   .     S
C439   C440    1.394   .     A
C440   O513    1.391   .     S
H442   C675    1.108   1_455 S
H444   C676    1.113   1_455 S
H445   C546    1.110   .     S
H463   C661    1.087   1_455 S
H464   C816    1.110   .     S
H468   C1603   1.104   1_554 S
H482   C562    1.110   .     S
H484   C1611   1.114   .     S
H488   C826    1.112   .     S
H491   C1613   1.111   .     S
H498   C675    1.109   1_455 S
O499   Zn522   1.954   .     S
O499   Zn521   1.950   .     S
O499   Zn524   1.927   .     S
O499   Zn523   1.939   .     S
O500   Zn522   1.933   .     S
O501   Zn524   1.942   .     S
O502   Zn523   1.941   .     S
O503   Zn521   1.930   .     S
O505   C531    1.399   .     S
O508   C1587   1.389   .     S
O510   Zn521   1.930   .     S
O512   C1584   1.381   1_554 S
O514   Zn524   1.931   .     S
O515   Zn522   1.924   .     S
O516   Zn523   1.934   .     S
O517   Zn524   1.938   .     S
O518   Zn521   1.929   .     S
O519   Zn522   1.928   .     S
O520   Zn523   1.925   .     S
C525   O646    1.265   .     A
C525   C531    1.441   .     S
C525   O648    1.273   .     A
C526   C568    1.398   .     A
C526   C540    1.387   .     A
C526   H583    1.077   .     S
C527   O635    1.389   .     S
C527   C539    1.409   .     A
C527   C540    1.413   .     A
C528   O649    1.269   .     A
C528   C530    1.456   .     S
C528   O647    1.288   .     A
C529   C541    1.416   .     A
C529   C567    1.429   .     A
C529   C538    1.497   .     S
C530   C662    1.347   .     S
C530   H725    1.087   .     S
C532   C535    1.451   .     S
C532   C926    1.335   .     S
C532   O1030   1.387   .     S
C533   C534    1.434   .     S
C533   H572    1.087   .     S
C534   O641    1.274   .     A
C534   O650    1.281   .     A
C535   O645    1.271   .     A
C535   O651    1.269   .     A
C536   C541    1.401   .     A
C536   C1726   1.398   .     S
C536   O1822   1.381   .     S
C537   O633    1.276   .     A
C537   O631    1.279   .     A
C537   C540    1.455   .     S
C538   O632    1.284   .     A
C538   O634    1.283   .     A
C539   C1748   1.416   1_554 S
C539   O1818   1.389   1_554 S
C541   O640    1.389   .     S
C542   H605    1.111   .     S
C542   C543    1.534   .     S
C542   O635    1.424   .     S
C542   H616    1.114   .     S
C543   C544    1.533   .     S
C543   H626    1.112   .     S
C543   H627    1.110   .     S
C544   H628    1.107   .     S
C544   H704    1.108   .     S
C544   H760    1.109   .     S
C545   H574    1.109   .     S
C545   O636    1.419   .     S
C545   C677    1.534   .     S
C545   H706    1.113   .     S
C546   H577    1.107   .     S
C546   C548    1.526   .     S
C547   O642    1.382   .     S
C547   C1715   1.398   1_554 S
C547   C1737   1.429   1_554 S
C548   H579    1.110   .     S
C548   H578    1.110   .     S
C548   H580    1.110   .     S
C549   C550    1.530   .     S
C549   H582    1.119   .     S
C549   H974    1.109   .     S
C549   O1030   1.418   .     S
C550   C551    1.525   .     S
C550   H585    1.110   .     S
C550   H584    1.110   .     S
C551   H586    1.110   .     S
C551   H588    1.108   .     S
C551   H587    1.110   .     S
C552   H590    1.119   .     S
C552   O638    1.420   .     S
C552   C553    1.530   .     S
C552   H589    1.112   .     S
C553   C554    1.524   .     S
C553   H592    1.112   .     S
C553   H591    1.111   .     S
C554   H593    1.109   .     S
C554   H596    1.111   .     S
C555   H597    1.110   .     S
C555   O639    1.407   .     S
C555   H598    1.109   .     S
C555   H1778   1.104   .     S
C556   H601    1.110   .     S
C556   O640    1.422   .     S
C556   H600    1.111   .     S
C556   C557    1.540   .     S
C557   H602    1.109   .     S
C557   H603    1.111   .     S
C558   C567    1.423   .     A
C558   C1726   1.429   .     S
C558   C1747   1.433   .     S
C559   H604    1.111   .     S
C559   H606    1.107   .     S
C559   H607    1.107   .     S
C559   C688    1.524   .     S
C560   C561    1.537   .     S
C560   H609    1.116   .     S
C560   H608    1.112   .     S
C560   O642    1.416   .     S
C561   H610    1.111   .     S
C561   C562    1.523   .     S
C561   H611    1.111   .     S
C562   H612    1.108   .     S
C562   H614    1.106   .     S
C563   H617    1.113   .     S
C563   O643    1.409   .     S
C563   C957    1.529   .     S
C563   H1794   1.114   1_554 S
C564   C565    1.524   .     S
C564   H618    1.111   .     S
C565   H620    1.109   .     S
C565   H621    1.110   .     S
C565   H1801   1.111   1_554 S
C566   H624    1.109   .     S
C566   H625    1.109   .     S
C566   H623    1.114   .     S
C566   O644    1.414   .     S
C567   C571    1.419   .     A
C568   C1737   1.433   1_554 S
C568   C1748   1.426   1_554 S
C569   C570    1.404   .     A
C569   C1747   1.426   .     S
C569   C1718   1.416   .     S
C570   O638    1.386   .     S
C570   C571    1.394   .     A
C571   O644    1.391   .     S
H576   C677    1.110   .     S
H595   C947    1.110   .     S
H599   C1734   1.104   1_554 S
H613   C693    1.110   .     S
H615   C1742   1.114   .     S
H619   C957    1.112   .     S
H622   C1744   1.111   .     S
O630   Zn653   1.954   .     S
O630   Zn652   1.950   .     S
O630   Zn655   1.927   .     S
O630   Zn654   1.939   .     S
O631   Zn653   1.933   .     S
O632   Zn655   1.942   .     S
O633   Zn654   1.941   .     S
O634   Zn652   1.930   .     S
O636   C662    1.399   .     S
O639   C1718   1.389   .     S
O641   Zn652   1.930   .     S
O643   C1715   1.381   1_554 S
O645   Zn655   1.931   .     S
O646   Zn653   1.924   .     S
O647   Zn654   1.934   .     S
O648   Zn655   1.938   .     S
O649   Zn652   1.929   .     S
O650   Zn653   1.928   .     S
O651   Zn654   1.925   .     S
C656   O777    1.265   .     A
C656   C662    1.441   .     S
C656   O779    1.273   .     A
C657   C699    1.398   .     A
C657   C671    1.387   .     A
C657   H714    1.077   .     S
C658   O766    1.389   .     S
C658   C670    1.409   .     A
C658   C671    1.413   .     A
C659   O780    1.269   .     A
C659   C661    1.456   .     S
C659   O778    1.288   .     A
C660   C672    1.416   .     A
C660   C698    1.429   .     A
C660   C669    1.497   .     S
C661   C400    1.347   1_655 S
C661   H463    1.087   1_655 S
C663   C666    1.451   .     S
C663   C1057   1.335   .     S
C663   O1161   1.387   .     S
C664   C665    1.434   .     S
C664   H703    1.087   .     S
C665   O772    1.274   .     A
C665   O781    1.281   .     A
C666   O776    1.271   .     A
C666   O782    1.269   .     A
C667   C672    1.401   .     A
C667   C1857   1.398   .     S
C667   O1953   1.381   .     S
C668   O764    1.276   .     A
C668   O762    1.279   .     A
C668   C671    1.455   .     S
C669   O763    1.284   .     A
C669   O765    1.283   .     A
C670   C1879   1.416   1_554 S
C670   O1949   1.389   1_554 S
C672   O771    1.389   .     S
C673   H736    1.111   .     S
C673   C674    1.534   .     S
C673   O766    1.424   .     S
C673   H747    1.114   .     S
C674   C675    1.533   .     S
C674   H757    1.112   .     S
C674   H758    1.110   .     S
C675   H759    1.107   .     S
C675   H442    1.108   1_655 S
C675   H498    1.109   1_655 S
C676   H705    1.109   .     S
C676   O767    1.419   .     S
C676   C415    1.534   1_655 S
C676   H444    1.113   1_655 S
C677   H708    1.107   .     S
C677   C679    1.526   .     S
C678   O773    1.382   .     S
C678   C1846   1.398   1_554 S
C678   C1868   1.429   1_554 S
C679   H710    1.110   .     S
C679   H709    1.110   .     S
C679   H711    1.110   .     S
C680   C681    1.530   .     S
C680   H713    1.119   .     S
C680   H1105   1.109   .     S
C680   O1161   1.418   .     S
C681   C682    1.525   .     S
C681   H716    1.110   .     S
C681   H715    1.110   .     S
C682   H717    1.110   .     S
C682   H719    1.108   .     S
C682   H718    1.110   .     S
C683   H721    1.119   .     S
C683   O769    1.420   .     S
C683   C684    1.530   .     S
C683   H720    1.112   .     S
C684   C685    1.524   .     S
C684   H723    1.112   .     S
C684   H722    1.111   .     S
C685   H724    1.109   .     S
C685   H727    1.111   .     S
C686   H728    1.110   .     S
C686   O770    1.407   .     S
C686   H729    1.109   .     S
C686   H1909   1.104   .     S
C687   H732    1.110   .     S
C687   O771    1.422   .     S
C687   H731    1.111   .     S
C687   C688    1.540   .     S
C688   H733    1.109   .     S
C688   H734    1.111   .     S
C689   C698    1.423   .     A
C689   C1857   1.429   .     S
C689   C1878   1.433   .     S
C690   H735    1.111   .     S
C690   H737    1.107   .     S
C690   H738    1.107   .     S
C690   C426    1.524   1_655 S
C691   C692    1.537   .     S
C691   H740    1.116   .     S
C691   H739    1.112   .     S
C691   O773    1.416   .     S
C692   H741    1.111   .     S
C692   C693    1.523   .     S
C692   H742    1.111   .     S
C693   H743    1.108   .     S
C693   H745    1.106   .     S
C694   H748    1.113   .     S
C694   O774    1.409   .     S
C694   C1088   1.529   .     S
C694   H1925   1.114   1_554 S
C695   C696    1.524   .     S
C695   H749    1.111   .     S
C696   H751    1.109   .     S
C696   H752    1.110   .     S
C696   H1932   1.111   1_554 S
C697   H755    1.109   .     S
C697   H756    1.109   .     S
C697   H754    1.114   .     S
C697   O775    1.414   .     S
C698   C702    1.419   .     A
C699   C1868   1.433   1_554 S
C699   C1879   1.426   1_554 S
C700   C701    1.404   .     A
C700   C1878   1.426   .     S
C700   C1849   1.416   .     S
C701   O769    1.386   .     S
C701   C702    1.394   .     A
C702   O775    1.391   .     S
H707   C415    1.110   1_655 S
H726   C1078   1.110   .     S
H730   C1865   1.104   1_554 S
H744   C431    1.110   1_655 S
H746   C1873   1.114   .     S
H750   C1088   1.112   .     S
H753   C1875   1.111   .     S
O761   Zn784   1.954   .     S
O761   Zn783   1.950   .     S
O761   Zn786   1.927   .     S
O761   Zn785   1.939   .     S
O762   Zn784   1.933   .     S
O763   Zn786   1.942   .     S
O764   Zn785   1.941   .     S
O765   Zn783   1.930   .     S
O767   C400    1.399   1_655 S
O770   C1849   1.389   .     S
O772   Zn783   1.930   .     S
O774   C1846   1.381   1_554 S
O776   Zn786   1.931   .     S
O777   Zn784   1.924   .     S
O778   Zn785   1.934   .     S
O779   Zn786   1.938   .     S
O780   Zn783   1.929   .     S
O781   Zn784   1.928   .     S
O782   Zn785   1.925   .     S
C787   O908    1.265   .     A
C787   C793    1.441   .     S
C787   O910    1.273   .     A
C788   C830    1.398   .     A
C788   C802    1.387   .     A
C788   H845    1.077   .     S
C789   O897    1.389   .     S
C789   C801    1.409   .     A
C789   C802    1.413   .     A
C790   O911    1.269   .     A
C790   C792    1.456   .     S
C790   O909    1.288   .     A
C791   C803    1.416   .     A
C791   C829    1.429   .     A
C791   C800    1.497   .     S
C792   C924    1.347   .     S
C792   H987    1.087   .     S
C793   C1054   1.347   1_455 S
C793   O1160   1.399   1_455 S
C794   C797    1.451   .     S
C794   C9      1.335   1_565 S
C794   O113    1.387   1_565 S
C795   C796    1.434   .     S
C795   H834    1.087   .     S
C796   O903    1.274   .     A
C796   O912    1.281   .     A
C797   O907    1.271   .     A
C797   O913    1.269   .     A
C798   C803    1.401   .     A
C798   C1988   1.398   .     S
C798   O2084   1.381   .     S
C799   O895    1.276   .     A
C799   O893    1.279   .     A
C799   C802    1.455   .     S
C800   O894    1.284   .     A
C800   O896    1.283   .     A
C801   C2010   1.416   1_554 S
C801   O2080   1.389   1_554 S
C803   O902    1.389   .     S
C804   H867    1.111   .     S
C804   C805    1.534   .     S
C804   O897    1.424   .     S
C804   H878    1.114   .     S
C805   C806    1.533   .     S
C805   H888    1.112   .     S
C805   H889    1.110   .     S
C806   H890    1.107   .     S
C806   H966    1.108   .     S
C806   H1022   1.109   .     S
C807   H836    1.109   .     S
C807   O898    1.419   .     S
C807   C939    1.534   .     S
C807   H968    1.113   .     S
C808   H839    1.107   .     S
C808   C810    1.526   .     S
C808   C1069   1.534   1_455 S
C808   H1100   1.110   1_455 S
C809   O904    1.382   .     S
C809   C1977   1.398   1_554 S
C809   C1999   1.429   1_554 S
C810   H841    1.110   .     S
C810   H840    1.110   .     S
C810   H842    1.110   .     S
C811   C812    1.530   .     S
C811   H844    1.119   .     S
C811   H57     1.109   1_565 S
C811   O113    1.418   1_565 S
C812   C813    1.525   .     S
C812   H847    1.110   .     S
C812   H846    1.110   .     S
C813   H848    1.110   .     S
C813   H850    1.108   .     S
C813   H849    1.110   .     S
C814   H852    1.119   .     S
C814   O900    1.420   .     S
C814   C815    1.530   .     S
C814   H851    1.112   .     S
C815   C816    1.524   .     S
C815   H854    1.112   .     S
C815   H853    1.111   .     S
C816   H855    1.109   .     S
C816   H858    1.111   .     S
C817   H859    1.110   .     S
C817   O901    1.407   .     S
C817   H860    1.109   .     S
C817   H2040   1.104   .     S
C818   H863    1.110   .     S
C818   O902    1.422   .     S
C818   H862    1.111   .     S
C818   C819    1.540   .     S
C819   H864    1.109   .     S
C819   H865    1.111   .     S
C819   C1083   1.524   1_455 S
C820   C829    1.423   .     A
C820   C1988   1.429   .     S
C820   C2009   1.433   .     S
C821   H866    1.111   .     S
C821   H868    1.107   .     S
C821   H869    1.107   .     S
C821   C950    1.524   .     S
C822   C823    1.537   .     S
C822   H871    1.116   .     S
C822   H870    1.112   .     S
C822   O904    1.416   .     S
C823   H872    1.111   .     S
C823   C824    1.523   .     S
C823   H873    1.111   .     S
C824   H874    1.108   .     S
C824   H876    1.106   .     S
C824   H1137   1.110   1_455 S
C825   H879    1.113   .     S
C825   O905    1.409   .     S
C825   C40     1.529   1_565 S
C825   H2056   1.114   1_554 S
C826   C827    1.524   .     S
C826   H880    1.111   .     S
C827   H882    1.109   .     S
C827   H883    1.110   .     S
C827   H2063   1.111   1_554 S
C828   H886    1.109   .     S
C828   H887    1.109   .     S
C828   H885    1.114   .     S
C828   O906    1.414   .     S
C829   C833    1.419   .     A
C830   C1999   1.433   1_554 S
C830   C2010   1.426   1_554 S
C831   C832    1.404   .     A
C831   C2009   1.426   .     S
C831   C1980   1.416   .     S
C832   O900    1.386   .     S
C832   C833    1.394   .     A
C833   O906    1.391   .     S
H835   C1068   1.108   1_455 S
H837   C1069   1.113   1_455 S
H838   C939    1.110   .     S
H856   C1054   1.087   1_455 S
H857   C30     1.110   1_565 S
H861   C1996   1.104   1_554 S
H875   C955    1.110   .     S
H877   C2004   1.114   .     S
H881   C40     1.112   1_565 S
H884   C2006   1.111   .     S
H891   C1068   1.109   1_455 S
O892   Zn915   1.954   .     S
O892   Zn914   1.950   .     S
O892   Zn917   1.927   .     S
O892   Zn916   1.939   .     S
O893   Zn915   1.933   .     S
O894   Zn917   1.942   .     S
O895   Zn916   1.941   .     S
O896   Zn914   1.930   .     S
O898   C924    1.399   .     S
O901   C1980   1.389   .     S
O903   Zn914   1.930   .     S
O905   C1977   1.381   1_554 S
O907   Zn917   1.931   .     S
O908   Zn915   1.924   .     S
O909   Zn916   1.934   .     S
O910   Zn917   1.938   .     S
O911   Zn914   1.929   .     S
O912   Zn915   1.928   .     S
O913   Zn916   1.925   .     S
C918   O1039   1.265   .     A
C918   C924    1.441   .     S
C918   O1041   1.273   .     A
C919   C961    1.398   .     A
C919   C933    1.387   .     A
C919   H976    1.077   .     S
C920   O1028   1.389   .     S
C920   C932    1.409   .     A
C920   C933    1.413   .     A
C921   O1042   1.269   .     A
C921   C923    1.456   .     S
C921   O1040   1.288   .     A
C922   C934    1.416   .     A
C922   C960    1.429   .     A
C922   C931    1.497   .     S
C923   C1055   1.347   .     S
C923   H1118   1.087   .     S
C925   C928    1.451   .     S
C925   C140    1.335   1_565 S
C925   O244    1.387   1_565 S
C926   C927    1.434   .     S
C926   H965    1.087   .     S
C927   O1034   1.274   .     A
C927   O1043   1.281   .     A
C928   O1038   1.271   .     A
C928   O1044   1.269   .     A
C929   C934    1.401   .     A
C929   C2119   1.398   .     S
C929   O2215   1.381   .     S
C930   O1026   1.276   .     A
C930   O1024   1.279   .     A
C930   C933    1.455   .     S
C931   O1025   1.284   .     A
C931   O1027   1.283   .     A
C932   C2141   1.416   1_554 S
C932   O2211   1.389   1_554 S
C934   O1033   1.389   .     S
C935   H998    1.111   .     S
C935   C936    1.534   .     S
C935   O1028   1.424   .     S
C935   H1009   1.114   .     S
C936   C937    1.533   .     S
C936   H1019   1.112   .     S
C936   H1020   1.110   .     S
C937   H1021   1.107   .     S
C937   H1097   1.108   .     S
C937   H1153   1.109   .     S
C938   H967    1.109   .     S
C938   O1029   1.419   .     S
C938   C1070   1.534   .     S
C938   H1099   1.113   .     S
C939   H970    1.107   .     S
C939   C941    1.526   .     S
C940   O1035   1.382   .     S
C940   C2108   1.398   1_554 S
C940   C2130   1.429   1_554 S
C941   H972    1.110   .     S
C941   H971    1.110   .     S
C941   H973    1.110   .     S
C942   C943    1.530   .     S
C942   H975    1.119   .     S
C942   H188    1.109   1_565 S
C942   O244    1.418   1_565 S
C943   C944    1.525   .     S
C943   H978    1.110   .     S
C943   H977    1.110   .     S
C944   H979    1.110   .     S
C944   H981    1.108   .     S
C944   H980    1.110   .     S
C945   H983    1.119   .     S
C945   O1031   1.420   .     S
C945   C946    1.530   .     S
C945   H982    1.112   .     S
C946   C947    1.524   .     S
C946   H985    1.112   .     S
C946   H984    1.111   .     S
C947   H986    1.109   .     S
C947   H989    1.111   .     S
C948   H990    1.110   .     S
C948   O1032   1.407   .     S
C948   H991    1.109   .     S
C948   H2171   1.104   .     S
C949   H994    1.110   .     S
C949   O1033   1.422   .     S
C949   H993    1.111   .     S
C949   C950    1.540   .     S
C950   H995    1.109   .     S
C950   H996    1.111   .     S
C951   C960    1.423   .     A
C951   C2119   1.429   .     S
C951   C2140   1.433   .     S
C952   H997    1.111   .     S
C952   H999    1.107   .     S
C952   H1000   1.107   .     S
C952   C1081   1.524   .     S
C953   C954    1.537   .     S
C953   H1002   1.116   .     S
C953   H1001   1.112   .     S
C953   O1035   1.416   .     S
C954   H1003   1.111   .     S
C954   C955    1.523   .     S
C954   H1004   1.111   .     S
C955   H1005   1.108   .     S
C955   H1007   1.106   .     S
C956   H1010   1.113   .     S
C956   O1036   1.409   .     S
C956   C171    1.529   1_565 S
C956   H2187   1.114   1_554 S
C957   C958    1.524   .     S
C957   H1011   1.111   .     S
C958   H1013   1.109   .     S
C958   H1014   1.110   .     S
C958   H2194   1.111   1_554 S
C959   H1017   1.109   .     S
C959   H1018   1.109   .     S
C959   H1016   1.114   .     S
C959   O1037   1.414   .     S
C960   C964    1.419   .     A
C961   C2130   1.433   1_554 S
C961   C2141   1.426   1_554 S
C962   C963    1.404   .     A
C962   C2140   1.426   .     S
C962   C2111   1.416   .     S
C963   O1031   1.386   .     S
C963   C964    1.394   .     A
C964   O1037   1.391   .     S
H969   C1070   1.110   .     S
H988   C161    1.110   1_565 S
H992   C2127   1.104   1_554 S
H1006  C1086   1.110   .     S
H1008  C2135   1.114   .     S
H1012  C171    1.112   1_565 S
H1015  C2137   1.111   .     S
O1023  Zn1046  1.954   .     S
O1023  Zn1045  1.950   .     S
O1023  Zn1048  1.927   .     S
O1023  Zn1047  1.939   .     S
O1024  Zn1046  1.933   .     S
O1025  Zn1048  1.942   .     S
O1026  Zn1047  1.941   .     S
O1027  Zn1045  1.930   .     S
O1029  C1055   1.399   .     S
O1032  C2111   1.389   .     S
O1034  Zn1045  1.930   .     S
O1036  C2108   1.381   1_554 S
O1038  Zn1048  1.931   .     S
O1039  Zn1046  1.924   .     S
O1040  Zn1047  1.934   .     S
O1041  Zn1048  1.938   .     S
O1042  Zn1045  1.929   .     S
O1043  Zn1046  1.928   .     S
O1044  Zn1047  1.925   .     S
C1049  O1170   1.265   .     A
C1049  C1055   1.441   .     S
C1049  O1172   1.273   .     A
C1050  C1092   1.398   .     A
C1050  C1064   1.387   .     A
C1050  H1107   1.077   .     S
C1051  O1159   1.389   .     S
C1051  C1063   1.409   .     A
C1051  C1064   1.413   .     A
C1052  O1173   1.269   .     A
C1052  C1054   1.456   .     S
C1052  O1171   1.288   .     A
C1053  C1065   1.416   .     A
C1053  C1091   1.429   .     A
C1053  C1062   1.497   .     S
C1054  C793    1.347   1_655 S
C1054  H856    1.087   1_655 S
C1056  C1059   1.451   .     S
C1056  C271    1.335   1_565 S
C1056  O375    1.387   1_565 S
C1057  C1058   1.434   .     S
C1057  H1096   1.087   .     S
C1058  O1165   1.274   .     A
C1058  O1174   1.281   .     A
C1059  O1169   1.271   .     A
C1059  O1175   1.269   .     A
C1060  C1065   1.401   .     A
C1060  C2250   1.398   .     S
C1060  O2346   1.381   .     S
C1061  O1157   1.276   .     A
C1061  O1155   1.279   .     A
C1061  C1064   1.455   .     S
C1062  O1156   1.284   .     A
C1062  O1158   1.283   .     A
C1063  C2272   1.416   1_554 S
C1063  O2342   1.389   1_554 S
C1065  O1164   1.389   .     S
C1066  H1129   1.111   .     S
C1066  C1067   1.534   .     S
C1066  O1159   1.424   .     S
C1066  H1140   1.114   .     S
C1067  C1068   1.533   .     S
C1067  H1150   1.112   .     S
C1067  H1151   1.110   .     S
C1068  H1152   1.107   .     S
C1068  H835    1.108   1_655 S
C1068  H891    1.109   1_655 S
C1069  H1098   1.109   .     S
C1069  O1160   1.419   .     S
C1069  C808    1.534   1_655 S
C1069  H837    1.113   1_655 S
C1070  H1101   1.107   .     S
C1070  C1072   1.526   .     S
C1071  O1166   1.382   .     S
C1071  C2239   1.398   1_554 S
C1071  C2261   1.429   1_554 S
C1072  H1103   1.110   .     S
C1072  H1102   1.110   .     S
C1072  H1104   1.110   .     S
C1073  C1074   1.530   .     S
C1073  H1106   1.119   .     S
C1073  H319    1.109   1_565 S
C1073  O375    1.418   1_565 S
C1074  C1075   1.525   .     S
C1074  H1109   1.110   .     S
C1074  H1108   1.110   .     S
C1075  H1110   1.110   .     S
C1075  H1112   1.108   .     S
C1075  H1111   1.110   .     S
C1076  H1114   1.119   .     S
C1076  O1162   1.420   .     S
C1076  C1077   1.530   .     S
C1076  H1113   1.112   .     S
C1077  C1078   1.524   .     S
C1077  H1116   1.112   .     S
C1077  H1115   1.111   .     S
C1078  H1117   1.109   .     S
C1078  H1120   1.111   .     S
C1079  H1121   1.110   .     S
C1079  O1163   1.407   .     S
C1079  H1122   1.109   .     S
C1079  H2302   1.104   .     S
C1080  H1125   1.110   .     S
C1080  O1164   1.422   .     S
C1080  H1124   1.111   .     S
C1080  C1081   1.540   .     S
C1081  H1126   1.109   .     S
C1081  H1127   1.111   .     S
C1082  C1091   1.423   .     A
C1082  C2250   1.429   .     S
C1082  C2271   1.433   .     S
C1083  H1128   1.111   .     S
C1083  H1130   1.107   .     S
C1083  H1131   1.107   .     S
C1083  C819    1.524   1_655 S
C1084  C1085   1.537   .     S
C1084  H1133   1.116   .     S
C1084  H1132   1.112   .     S
C1084  O1166   1.416   .     S
C1085  H1134   1.111   .     S
C1085  C1086   1.523   .     S
C1085  H1135   1.111   .     S
C1086  H1136   1.108   .     S
C1086  H1138   1.106   .     S
C1087  H1141   1.113   .     S
C1087  O1167   1.409   .     S
C1087  C302    1.529   1_565 S
C1087  H2318   1.114   1_554 S
C1088  C1089   1.524   .     S
C1088  H1142   1.111   .     S
C1089  H1144   1.109   .     S
C1089  H1145   1.110   .     S
C1089  H2325   1.111   1_554 S
C1090  H1148   1.109   .     S
C1090  H1149   1.109   .     S
C1090  H1147   1.114   .     S
C1090  O1168   1.414   .     S
C1091  C1095   1.419   .     A
C1092  C2261   1.433   1_554 S
C1092  C2272   1.426   1_554 S
C1093  C1094   1.404   .     A
C1093  C2271   1.426   .     S
C1093  C2242   1.416   .     S
C1094  O1162   1.386   .     S
C1094  C1095   1.394   .     A
C1095  O1168   1.391   .     S
H1100  C808    1.110   1_655 S
H1119  C292    1.110   1_565 S
H1123  C2258   1.104   1_554 S
H1137  C824    1.110   1_655 S
H1139  C2266   1.114   .     S
H1143  C302    1.112   1_565 S
H1146  C2268   1.111   .     S
O1154  Zn1177  1.954   .     S
O1154  Zn1176  1.950   .     S
O1154  Zn1179  1.927   .     S
O1154  Zn1178  1.939   .     S
O1155  Zn1177  1.933   .     S
O1156  Zn1179  1.942   .     S
O1157  Zn1178  1.941   .     S
O1158  Zn1176  1.930   .     S
O1160  C793    1.399   1_655 S
O1163  C2242   1.389   .     S
O1165  Zn1176  1.930   .     S
O1167  C2239   1.381   1_554 S
O1169  Zn1179  1.931   .     S
O1170  Zn1177  1.924   .     S
O1171  Zn1178  1.934   .     S
O1172  Zn1179  1.938   .     S
O1173  Zn1176  1.929   .     S
O1174  Zn1177  1.928   .     S
O1175  Zn1178  1.925   .     S
C1180  O1301   1.265   .     A
C1180  C1186   1.441   .     S
C1180  O1303   1.273   .     A
C1181  C1223   1.398   .     A
C1181  C1195   1.387   .     A
C1181  H1238   1.077   .     S
C1182  O1290   1.389   .     S
C1182  C1194   1.409   .     A
C1182  C1195   1.413   .     A
C1183  O1304   1.269   .     A
C1183  C1185   1.456   .     S
C1183  O1302   1.288   .     A
C1184  C1196   1.416   .     A
C1184  C1222   1.429   .     A
C1184  C1193   1.497   .     S
C1185  C1317   1.347   .     S
C1185  H1380   1.087   .     S
C1186  C1447   1.347   1_455 S
C1186  O1553   1.399   1_455 S
C1187  C1190   1.451   .     S
C1187  C1581   1.335   .     S
C1187  O1685   1.387   .     S
C1188  C1189   1.434   .     S
C1188  H1227   1.087   .     S
C1188  C1973   1.335   1_545 S
C1189  O1296   1.274   .     A
C1189  O1305   1.281   .     A
C1190  O1300   1.271   .     A
C1190  O1306   1.269   .     A
C1191  C1196   1.401   .     A
C1191  C23     1.398   1_556 S
C1191  O119    1.381   1_556 S
C1192  O1288   1.276   .     A
C1192  O1286   1.279   .     A
C1192  C1195   1.455   .     S
C1193  O1287   1.284   .     A
C1193  O1289   1.283   .     A
C1196  O1295   1.389   .     S
C1197  H1260   1.111   .     S
C1197  C1198   1.534   .     S
C1197  O1290   1.424   .     S
C1197  H1271   1.114   .     S
C1198  C1199   1.533   .     S
C1198  H1281   1.112   .     S
C1198  H1282   1.110   .     S
C1199  H1283   1.107   .     S
C1199  H1359   1.108   .     S
C1199  H1415   1.109   .     S
C1200  H1229   1.109   .     S
C1200  O1291   1.419   .     S
C1200  C1332   1.534   .     S
C1200  H1361   1.113   .     S
C1201  H1232   1.107   .     S
C1201  C1203   1.526   .     S
C1201  C1462   1.534   1_455 S
C1201  H1493   1.110   1_455 S
C1202  O1297   1.382   .     S
C1203  H1234   1.110   .     S
C1203  H1233   1.110   .     S
C1203  H1235   1.110   .     S
C1204  C1205   1.530   .     S
C1204  H1237   1.119   .     S
C1204  H1629   1.109   .     S
C1204  O1685   1.418   .     S
C1205  C1206   1.525   .     S
C1205  H1240   1.110   .     S
C1205  H1239   1.110   .     S
C1206  H1241   1.110   .     S
C1206  H1243   1.108   .     S
C1206  H1242   1.110   .     S
C1207  H1245   1.119   .     S
C1207  O1293   1.420   .     S
C1207  C1208   1.530   .     S
C1207  H1244   1.112   .     S
C1208  C1209   1.524   .     S
C1208  H1247   1.112   .     S
C1208  H1246   1.111   .     S
C1209  H1248   1.109   .     S
C1209  H1251   1.111   .     S
C1209  H2036   1.110   1_545 S
C1210  H1252   1.110   .     S
C1210  O1294   1.407   .     S
C1210  H1253   1.109   .     S
C1210  H75     1.104   1_556 S
C1211  H1256   1.110   .     S
C1211  O1295   1.422   .     S
C1211  H1255   1.111   .     S
C1211  C1212   1.540   .     S
C1212  H1257   1.109   .     S
C1212  H1258   1.111   .     S
C1212  C1476   1.524   1_455 S
C1213  C1222   1.423   .     A
C1213  C23     1.429   1_556 S
C1213  C44     1.433   1_556 S
C1214  H1259   1.111   .     S
C1214  H1261   1.107   .     S
C1214  H1262   1.107   .     S
C1214  C1343   1.524   .     S
C1215  C1216   1.537   .     S
C1215  H1264   1.116   .     S
C1215  H1263   1.112   .     S
C1215  O1297   1.416   .     S
C1216  H1265   1.111   .     S
C1216  C1217   1.523   .     S
C1216  H1266   1.111   .     S
C1217  H1267   1.108   .     S
C1217  H1269   1.106   .     S
C1217  H1530   1.110   1_455 S
C1218  H1272   1.113   .     S
C1218  O1298   1.409   .     S
C1218  C1612   1.529   .     S
C1219  C1220   1.524   .     S
C1219  H1273   1.111   .     S
C1219  C2004   1.529   1_545 S
C1219  H2060   1.112   1_545 S
C1220  H1275   1.109   .     S
C1220  H1276   1.110   .     S
C1221  H1279   1.109   .     S
C1221  H1280   1.109   .     S
C1221  H1278   1.114   .     S
C1221  O1299   1.414   .     S
C1222  C1226   1.419   .     A
C1224  C1225   1.404   .     A
C1224  C44     1.426   1_556 S
C1224  C15     1.416   1_556 S
C1225  O1293   1.386   .     S
C1225  C1226   1.394   .     A
C1226  O1299   1.391   .     S
H1228  C1461   1.108   1_455 S
H1230  C1462   1.113   1_455 S
H1231  C1332   1.110   .     S
H1236  C1990   1.109   1_545 S
H1249  C1447   1.087   1_455 S
H1250  C1602   1.110   .     S
H1268  C1348   1.110   .     S
H1270  C39     1.114   1_556 S
H1274  C1612   1.112   .     S
H1277  C41     1.111   1_556 S
H1284  C1461   1.109   1_455 S
O1285  Zn1308  1.954   .     S
O1285  Zn1307  1.950   .     S
O1285  Zn1310  1.927   .     S
O1285  Zn1309  1.939   .     S
O1286  Zn1308  1.933   .     S
O1287  Zn1310  1.942   .     S
O1288  Zn1309  1.941   .     S
O1289  Zn1307  1.930   .     S
O1291  C1317   1.399   .     S
O1292  C1990   1.418   1_545 S
O1292  C1973   1.387   1_545 S
O1294  C15     1.389   1_556 S
O1296  Zn1307  1.930   .     S
O1300  Zn1310  1.931   .     S
O1301  Zn1308  1.924   .     S
O1302  Zn1309  1.934   .     S
O1303  Zn1310  1.938   .     S
O1304  Zn1307  1.929   .     S
O1305  Zn1308  1.928   .     S
O1306  Zn1309  1.925   .     S
C1311  O1432   1.265   .     A
C1311  C1317   1.441   .     S
C1311  O1434   1.273   .     A
C1312  C1354   1.398   .     A
C1312  C1326   1.387   .     A
C1312  H1369   1.077   .     S
C1313  O1421   1.389   .     S
C1313  C1325   1.409   .     A
C1313  C1326   1.413   .     A
C1314  O1435   1.269   .     A
C1314  C1316   1.456   .     S
C1314  O1433   1.288   .     A
C1315  C1327   1.416   .     A
C1315  C1353   1.429   .     A
C1315  C1324   1.497   .     S
C1316  C1448   1.347   .     S
C1316  H1511   1.087   .     S
C1318  C1321   1.451   .     S
C1318  C1712   1.335   .     S
C1318  O1816   1.387   .     S
C1319  C1320   1.434   .     S
C1319  H1358   1.087   .     S
C1319  C2104   1.335   1_545 S
C1320  O1427   1.274   .     A
C1320  O1436   1.281   .     A
C1321  O1431   1.271   .     A
C1321  O1437   1.269   .     A
C1322  C1327   1.401   .     A
C1322  C154    1.398   1_556 S
C1322  O250    1.381   1_556 S
C1323  O1419   1.276   .     A
C1323  O1417   1.279   .     A
C1323  C1326   1.455   .     S
C1324  O1418   1.284   .     A
C1324  O1420   1.283   .     A
C1327  O1426   1.389   .     S
C1328  H1391   1.111   .     S
C1328  C1329   1.534   .     S
C1328  O1421   1.424   .     S
C1328  H1402   1.114   .     S
C1329  C1330   1.533   .     S
C1329  H1412   1.112   .     S
C1329  H1413   1.110   .     S
C1330  H1414   1.107   .     S
C1330  H1490   1.108   .     S
C1330  H1546   1.109   .     S
C1331  H1360   1.109   .     S
C1331  O1422   1.419   .     S
C1331  C1463   1.534   .     S
C1331  H1492   1.113   .     S
C1332  H1363   1.107   .     S
C1332  C1334   1.526   .     S
C1333  O1428   1.382   .     S
C1334  H1365   1.110   .     S
C1334  H1364   1.110   .     S
C1334  H1366   1.110   .     S
C1335  C1336   1.530   .     S
C1335  H1368   1.119   .     S
C1335  H1760   1.109   .     S
C1335  O1816   1.418   .     S
C1336  C1337   1.525   .     S
C1336  H1371   1.110   .     S
C1336  H1370   1.110   .     S
C1337  H1372   1.110   .     S
C1337  H1374   1.108   .     S
C1337  H1373   1.110   .     S
C1338  H1376   1.119   .     S
C1338  O1424   1.420   .     S
C1338  C1339   1.530   .     S
C1338  H1375   1.112   .     S
C1339  C1340   1.524   .     S
C1339  H1378   1.112   .     S
C1339  H1377   1.111   .     S
C1340  H1379   1.109   .     S
C1340  H1382   1.111   .     S
C1340  H2167   1.110   1_545 S
C1341  H1383   1.110   .     S
C1341  O1425   1.407   .     S
C1341  H1384   1.109   .     S
C1341  H206    1.104   1_556 S
C1342  H1387   1.110   .     S
C1342  O1426   1.422   .     S
C1342  H1386   1.111   .     S
C1342  C1343   1.540   .     S
C1343  H1388   1.109   .     S
C1343  H1389   1.111   .     S
C1344  C1353   1.423   .     A
C1344  C154    1.429   1_556 S
C1344  C175    1.433   1_556 S
C1345  H1390   1.111   .     S
C1345  H1392   1.107   .     S
C1345  H1393   1.107   .     S
C1345  C1474   1.524   .     S
C1346  C1347   1.537   .     S
C1346  H1395   1.116   .     S
C1346  H1394   1.112   .     S
C1346  O1428   1.416   .     S
C1347  H1396   1.111   .     S
C1347  C1348   1.523   .     S
C1347  H1397   1.111   .     S
C1348  H1398   1.108   .     S
C1348  H1400   1.106   .     S
C1349  H1403   1.113   .     S
C1349  O1429   1.409   .     S
C1349  C1743   1.529   .     S
C1350  C1351   1.524   .     S
C1350  H1404   1.111   .     S
C1350  C2135   1.529   1_545 S
C1350  H2191   1.112   1_545 S
C1351  H1406   1.109   .     S
C1351  H1407   1.110   .     S
C1352  H1410   1.109   .     S
C1352  H1411   1.109   .     S
C1352  H1409   1.114   .     S
C1352  O1430   1.414   .     S
C1353  C1357   1.419   .     A
C1355  C1356   1.404   .     A
C1355  C175    1.426   1_556 S
C1355  C146    1.416   1_556 S
C1356  O1424   1.386   .     S
C1356  C1357   1.394   .     A
C1357  O1430   1.391   .     S
H1362  C1463   1.110   .     S
H1367  C2121   1.109   1_545 S
H1381  C1733   1.110   .     S
H1399  C1479   1.110   .     S
H1401  C170    1.114   1_556 S
H1405  C1743   1.112   .     S
H1408  C172    1.111   1_556 S
O1416  Zn1439  1.954   .     S
O1416  Zn1438  1.950   .     S
O1416  Zn1441  1.927   .     S
O1416  Zn1440  1.939   .     S
O1417  Zn1439  1.933   .     S
O1418  Zn1441  1.942   .     S
O1419  Zn1440  1.941   .     S
O1420  Zn1438  1.930   .     S
O1422  C1448   1.399   .     S
O1423  C2121   1.418   1_545 S
O1423  C2104   1.387   1_545 S
O1425  C146    1.389   1_556 S
O1427  Zn1438  1.930   .     S
O1431  Zn1441  1.931   .     S
O1432  Zn1439  1.924   .     S
O1433  Zn1440  1.934   .     S
O1434  Zn1441  1.938   .     S
O1435  Zn1438  1.929   .     S
O1436  Zn1439  1.928   .     S
O1437  Zn1440  1.925   .     S
C1442  O1563   1.265   .     A
C1442  C1448   1.441   .     S
C1442  O1565   1.273   .     A
C1443  C1485   1.398   .     A
C1443  C1457   1.387   .     A
C1443  H1500   1.077   .     S
C1444  O1552   1.389   .     S
C1444  C1456   1.409   .     A
C1444  C1457   1.413   .     A
C1445  O1566   1.269   .     A
C1445  C1447   1.456   .     S
C1445  O1564   1.288   .     A
C1446  C1458   1.416   .     A
C1446  C1484   1.429   .     A
C1446  C1455   1.497   .     S
C1447  C1186   1.347   1_655 S
C1447  H1249   1.087   1_655 S
C1449  C1452   1.451   .     S
C1449  C1843   1.335   .     S
C1449  O1947   1.387   .     S
C1450  C1451   1.434   .     S
C1450  H1489   1.087   .     S
C1450  C2235   1.335   1_545 S
C1451  O1558   1.274   .     A
C1451  O1567   1.281   .     A
C1452  O1562   1.271   .     A
C1452  O1568   1.269   .     A
C1453  C1458   1.401   .     A
C1453  C285    1.398   1_556 S
C1453  O381    1.381   1_556 S
C1454  O1550   1.276   .     A
C1454  O1548   1.279   .     A
C1454  C1457   1.455   .     S
C1455  O1549   1.284   .     A
C1455  O1551   1.283   .     A
C1458  O1557   1.389   .     S
C1459  H1522   1.111   .     S
C1459  C1460   1.534   .     S
C1459  O1552   1.424   .     S
C1459  H1533   1.114   .     S
C1460  C1461   1.533   .     S
C1460  H1543   1.112   .     S
C1460  H1544   1.110   .     S
C1461  H1545   1.107   .     S
C1461  H1228   1.108   1_655 S
C1461  H1284   1.109   1_655 S
C1462  H1491   1.109   .     S
C1462  O1553   1.419   .     S
C1462  C1201   1.534   1_655 S
C1462  H1230   1.113   1_655 S
C1463  H1494   1.107   .     S
C1463  C1465   1.526   .     S
C1464  O1559   1.382   .     S
C1465  H1496   1.110   .     S
C1465  H1495   1.110   .     S
C1465  H1497   1.110   .     S
C1466  C1467   1.530   .     S
C1466  H1499   1.119   .     S
C1466  H1891   1.109   .     S
C1466  O1947   1.418   .     S
C1467  C1468   1.525   .     S
C1467  H1502   1.110   .     S
C1467  H1501   1.110   .     S
C1468  H1503   1.110   .     S
C1468  H1505   1.108   .     S
C1468  H1504   1.110   .     S
C1469  H1507   1.119   .     S
C1469  O1555   1.420   .     S
C1469  C1470   1.530   .     S
C1469  H1506   1.112   .     S
C1470  C1471   1.524   .     S
C1470  H1509   1.112   .     S
C1470  H1508   1.111   .     S
C1471  H1510   1.109   .     S
C1471  H1513   1.111   .     S
C1471  H2298   1.110   1_545 S
C1472  H1514   1.110   .     S
C1472  O1556   1.407   .     S
C1472  H1515   1.109   .     S
C1472  H337    1.104   1_556 S
C1473  H1518   1.110   .     S
C1473  O1557   1.422   .     S
C1473  H1517   1.111   .     S
C1473  C1474   1.540   .     S
C1474  H1519   1.109   .     S
C1474  H1520   1.111   .     S
C1475  C1484   1.423   .     A
C1475  C285    1.429   1_556 S
C1475  C306    1.433   1_556 S
C1476  H1521   1.111   .     S
C1476  H1523   1.107   .     S
C1476  H1524   1.107   .     S
C1476  C1212   1.524   1_655 S
C1477  C1478   1.537   .     S
C1477  H1526   1.116   .     S
C1477  H1525   1.112   .     S
C1477  O1559   1.416   .     S
C1478  H1527   1.111   .     S
C1478  C1479   1.523   .     S
C1478  H1528   1.111   .     S
C1479  H1529   1.108   .     S
C1479  H1531   1.106   .     S
C1480  H1534   1.113   .     S
C1480  O1560   1.409   .     S
C1480  C1874   1.529   .     S
C1481  C1482   1.524   .     S
C1481  H1535   1.111   .     S
C1481  C2266   1.529   1_545 S
C1481  H2322   1.112   1_545 S
C1482  H1537   1.109   .     S
C1482  H1538   1.110   .     S
C1483  H1541   1.109   .     S
C1483  H1542   1.109   .     S
C1483  H1540   1.114   .     S
C1483  O1561   1.414   .     S
C1484  C1488   1.419   .     A
C1486  C1487   1.404   .     A
C1486  C306    1.426   1_556 S
C1486  C277    1.416   1_556 S
C1487  O1555   1.386   .     S
C1487  C1488   1.394   .     A
C1488  O1561   1.391   .     S
H1493  C1201   1.110   1_655 S
H1498  C2252   1.109   1_545 S
H1512  C1864   1.110   .     S
H1530  C1217   1.110   1_655 S
H1532  C301    1.114   1_556 S
H1536  C1874   1.112   .     S
H1539  C303    1.111   1_556 S
O1547  Zn1570  1.954   .     S
O1547  Zn1569  1.950   .     S
O1547  Zn1572  1.927   .     S
O1547  Zn1571  1.939   .     S
O1548  Zn1570  1.933   .     S
O1549  Zn1572  1.942   .     S
O1550  Zn1571  1.941   .     S
O1551  Zn1569  1.930   .     S
O1553  C1186   1.399   1_655 S
O1554  C2252   1.418   1_545 S
O1554  C2235   1.387   1_545 S
O1556  C277    1.389   1_556 S
O1558  Zn1569  1.930   .     S
O1562  Zn1572  1.931   .     S
O1563  Zn1570  1.924   .     S
O1564  Zn1571  1.934   .     S
O1565  Zn1572  1.938   .     S
O1566  Zn1569  1.929   .     S
O1567  Zn1570  1.928   .     S
O1568  Zn1571  1.925   .     S
C1573  O1694   1.265   .     A
C1573  C1579   1.441   .     S
C1573  O1696   1.273   .     A
C1574  C1616   1.398   .     A
C1574  C1588   1.387   .     A
C1574  H1631   1.077   .     S
C1575  O1683   1.389   .     S
C1575  C1587   1.409   .     A
C1575  C1588   1.413   .     A
C1576  O1697   1.269   .     A
C1576  C1578   1.456   .     S
C1576  O1695   1.288   .     A
C1577  C1589   1.416   .     A
C1577  C1615   1.429   .     A
C1577  C1586   1.497   .     S
C1578  C1710   1.347   .     S
C1578  H1773   1.087   .     S
C1579  C1840   1.347   1_455 S
C1579  O1946   1.399   1_455 S
C1580  C1583   1.451   .     S
C1580  C1974   1.335   .     S
C1580  O2078   1.387   .     S
C1581  C1582   1.434   .     S
C1581  H1620   1.087   .     S
C1582  O1689   1.274   .     A
C1582  O1698   1.281   .     A
C1583  O1693   1.271   .     A
C1583  O1699   1.269   .     A
C1584  C1589   1.401   .     A
C1584  C416    1.398   1_556 S
C1584  O512    1.381   1_556 S
C1585  O1681   1.276   .     A
C1585  O1679   1.279   .     A
C1585  C1588   1.455   .     S
C1586  O1680   1.284   .     A
C1586  O1682   1.283   .     A
C1589  O1688   1.389   .     S
C1590  H1653   1.111   .     S
C1590  C1591   1.534   .     S
C1590  O1683   1.424   .     S
C1590  H1664   1.114   .     S
C1591  C1592   1.533   .     S
C1591  H1674   1.112   .     S
C1591  H1675   1.110   .     S
C1592  H1676   1.107   .     S
C1592  H1752   1.108   .     S
C1592  H1808   1.109   .     S
C1593  H1622   1.109   .     S
C1593  O1684   1.419   .     S
C1593  C1725   1.534   .     S
C1593  H1754   1.113   .     S
C1594  H1625   1.107   .     S
C1594  C1596   1.526   .     S
C1594  C1855   1.534   1_455 S
C1594  H1886   1.110   1_455 S
C1595  O1690   1.382   .     S
C1596  H1627   1.110   .     S
C1596  H1626   1.110   .     S
C1596  H1628   1.110   .     S
C1597  C1598   1.530   .     S
C1597  H1630   1.119   .     S
C1597  H2022   1.109   .     S
C1597  O2078   1.418   .     S
C1598  C1599   1.525   .     S
C1598  H1633   1.110   .     S
C1598  H1632   1.110   .     S
C1599  H1634   1.110   .     S
C1599  H1636   1.108   .     S
C1599  H1635   1.110   .     S
C1600  H1638   1.119   .     S
C1600  O1686   1.420   .     S
C1600  C1601   1.530   .     S
C1600  H1637   1.112   .     S
C1601  C1602   1.524   .     S
C1601  H1640   1.112   .     S
C1601  H1639   1.111   .     S
C1602  H1641   1.109   .     S
C1602  H1644   1.111   .     S
C1603  H1645   1.110   .     S
C1603  O1687   1.407   .     S
C1603  H1646   1.109   .     S
C1603  H468    1.104   1_556 S
C1604  H1649   1.110   .     S
C1604  O1688   1.422   .     S
C1604  H1648   1.111   .     S
C1604  C1605   1.540   .     S
C1605  H1650   1.109   .     S
C1605  H1651   1.111   .     S
C1605  C1869   1.524   1_455 S
C1606  C1615   1.423   .     A
C1606  C416    1.429   1_556 S
C1606  C437    1.433   1_556 S
C1607  H1652   1.111   .     S
C1607  H1654   1.107   .     S
C1607  H1655   1.107   .     S
C1607  C1736   1.524   .     S
C1608  C1609   1.537   .     S
C1608  H1657   1.116   .     S
C1608  H1656   1.112   .     S
C1608  O1690   1.416   .     S
C1609  H1658   1.111   .     S
C1609  C1610   1.523   .     S
C1609  H1659   1.111   .     S
C1610  H1660   1.108   .     S
C1610  H1662   1.106   .     S
C1610  H1923   1.110   1_455 S
C1611  H1665   1.113   .     S
C1611  O1691   1.409   .     S
C1611  C2005   1.529   .     S
C1612  C1613   1.524   .     S
C1612  H1666   1.111   .     S
C1613  H1668   1.109   .     S
C1613  H1669   1.110   .     S
C1614  H1672   1.109   .     S
C1614  H1673   1.109   .     S
C1614  H1671   1.114   .     S
C1614  O1692   1.414   .     S
C1615  C1619   1.419   .     A
C1617  C1618   1.404   .     A
C1617  C437    1.426   1_556 S
C1617  C408    1.416   1_556 S
C1618  O1686   1.386   .     S
C1618  C1619   1.394   .     A
C1619  O1692   1.391   .     S
H1621  C1854   1.108   1_455 S
H1623  C1855   1.113   1_455 S
H1624  C1725   1.110   .     S
H1642  C1840   1.087   1_455 S
H1643  C1995   1.110   .     S
H1661  C1741   1.110   .     S
H1663  C432    1.114   1_556 S
H1667  C2005   1.112   .     S
H1670  C434    1.111   1_556 S
H1677  C1854   1.109   1_455 S
O1678  Zn1701  1.954   .     S
O1678  Zn1700  1.950   .     S
O1678  Zn1703  1.927   .     S
O1678  Zn1702  1.939   .     S
O1679  Zn1701  1.933   .     S
O1680  Zn1703  1.942   .     S
O1681  Zn1702  1.941   .     S
O1682  Zn1700  1.930   .     S
O1684  C1710   1.399   .     S
O1687  C408    1.389   1_556 S
O1689  Zn1700  1.930   .     S
O1693  Zn1703  1.931   .     S
O1694  Zn1701  1.924   .     S
O1695  Zn1702  1.934   .     S
O1696  Zn1703  1.938   .     S
O1697  Zn1700  1.929   .     S
O1698  Zn1701  1.928   .     S
O1699  Zn1702  1.925   .     S
C1704  O1825   1.265   .     A
C1704  C1710   1.441   .     S
C1704  O1827   1.273   .     A
C1705  C1747   1.398   .     A
C1705  C1719   1.387   .     A
C1705  H1762   1.077   .     S
C1706  O1814   1.389   .     S
C1706  C1718   1.409   .     A
C1706  C1719   1.413   .     A
C1707  O1828   1.269   .     A
C1707  C1709   1.456   .     S
C1707  O1826   1.288   .     A
C1708  C1720   1.416   .     A
C1708  C1746   1.429   .     A
C1708  C1717   1.497   .     S
C1709  C1841   1.347   .     S
C1709  H1904   1.087   .     S
C1711  C1714   1.451   .     S
C1711  C2105   1.335   .     S
C1711  O2209   1.387   .     S
C1712  C1713   1.434   .     S
C1712  H1751   1.087   .     S
C1713  O1820   1.274   .     A
C1713  O1829   1.281   .     A
C1714  O1824   1.271   .     A
C1714  O1830   1.269   .     A
C1715  C1720   1.401   .     A
C1715  C547    1.398   1_556 S
C1715  O643    1.381   1_556 S
C1716  O1812   1.276   .     A
C1716  O1810   1.279   .     A
C1716  C1719   1.455   .     S
C1717  O1811   1.284   .     A
C1717  O1813   1.283   .     A
C1720  O1819   1.389   .     S
C1721  H1784   1.111   .     S
C1721  C1722   1.534   .     S
C1721  O1814   1.424   .     S
C1721  H1795   1.114   .     S
C1722  C1723   1.533   .     S
C1722  H1805   1.112   .     S
C1722  H1806   1.110   .     S
C1723  H1807   1.107   .     S
C1723  H1883   1.108   .     S
C1723  H1939   1.109   .     S
C1724  H1753   1.109   .     S
C1724  O1815   1.419   .     S
C1724  C1856   1.534   .     S
C1724  H1885   1.113   .     S
C1725  H1756   1.107   .     S
C1725  C1727   1.526   .     S
C1726  O1821   1.382   .     S
C1727  H1758   1.110   .     S
C1727  H1757   1.110   .     S
C1727  H1759   1.110   .     S
C1728  C1729   1.530   .     S
C1728  H1761   1.119   .     S
C1728  H2153   1.109   .     S
C1728  O2209   1.418   .     S
C1729  C1730   1.525   .     S
C1729  H1764   1.110   .     S
C1729  H1763   1.110   .     S
C1730  H1765   1.110   .     S
C1730  H1767   1.108   .     S
C1730  H1766   1.110   .     S
C1731  H1769   1.119   .     S
C1731  O1817   1.420   .     S
C1731  C1732   1.530   .     S
C1731  H1768   1.112   .     S
C1732  C1733   1.524   .     S
C1732  H1771   1.112   .     S
C1732  H1770   1.111   .     S
C1733  H1772   1.109   .     S
C1733  H1775   1.111   .     S
C1734  H1776   1.110   .     S
C1734  O1818   1.407   .     S
C1734  H1777   1.109   .     S
C1734  H599    1.104   1_556 S
C1735  H1780   1.110   .     S
C1735  O1819   1.422   .     S
C1735  H1779   1.111   .     S
C1735  C1736   1.540   .     S
C1736  H1781   1.109   .     S
C1736  H1782   1.111   .     S
C1737  C1746   1.423   .     A
C1737  C547    1.429   1_556 S
C1737  C568    1.433   1_556 S
C1738  H1783   1.111   .     S
C1738  H1785   1.107   .     S
C1738  H1786   1.107   .     S
C1738  C1867   1.524   .     S
C1739  C1740   1.537   .     S
C1739  H1788   1.116   .     S
C1739  H1787   1.112   .     S
C1739  O1821   1.416   .     S
C1740  H1789   1.111   .     S
C1740  C1741   1.523   .     S
C1740  H1790   1.111   .     S
C1741  H1791   1.108   .     S
C1741  H1793   1.106   .     S
C1742  H1796   1.113   .     S
C1742  O1822   1.409   .     S
C1742  C2136   1.529   .     S
C1743  C1744   1.524   .     S
C1743  H1797   1.111   .     S
C1744  H1799   1.109   .     S
C1744  H1800   1.110   .     S
C1745  H1803   1.109   .     S
C1745  H1804   1.109   .     S
C1745  H1802   1.114   .     S
C1745  O1823   1.414   .     S
C1746  C1750   1.419   .     A
C1748  C1749   1.404   .     A
C1748  C568    1.426   1_556 S
C1748  C539    1.416   1_556 S
C1749  O1817   1.386   .     S
C1749  C1750   1.394   .     A
C1750  O1823   1.391   .     S
H1755  C1856   1.110   .     S
H1774  C2126   1.110   .     S
H1792  C1872   1.110   .     S
H1794  C563    1.114   1_556 S
H1798  C2136   1.112   .     S
H1801  C565    1.111   1_556 S
O1809  Zn1832  1.954   .     S
O1809  Zn1831  1.950   .     S
O1809  Zn1834  1.927   .     S
O1809  Zn1833  1.939   .     S
O1810  Zn1832  1.933   .     S
O1811  Zn1834  1.942   .     S
O1812  Zn1833  1.941   .     S
O1813  Zn1831  1.930   .     S
O1815  C1841   1.399   .     S
O1818  C539    1.389   1_556 S
O1820  Zn1831  1.930   .     S
O1824  Zn1834  1.931   .     S
O1825  Zn1832  1.924   .     S
O1826  Zn1833  1.934   .     S
O1827  Zn1834  1.938   .     S
O1828  Zn1831  1.929   .     S
O1829  Zn1832  1.928   .     S
O1830  Zn1833  1.925   .     S
C1835  O1956   1.265   .     A
C1835  C1841   1.441   .     S
C1835  O1958   1.273   .     A
C1836  C1878   1.398   .     A
C1836  C1850   1.387   .     A
C1836  H1893   1.077   .     S
C1837  O1945   1.389   .     S
C1837  C1849   1.409   .     A
C1837  C1850   1.413   .     A
C1838  O1959   1.269   .     A
C1838  C1840   1.456   .     S
C1838  O1957   1.288   .     A
C1839  C1851   1.416   .     A
C1839  C1877   1.429   .     A
C1839  C1848   1.497   .     S
C1840  C1579   1.347   1_655 S
C1840  H1642   1.087   1_655 S
C1842  C1845   1.451   .     S
C1842  C2236   1.335   .     S
C1842  O2340   1.387   .     S
C1843  C1844   1.434   .     S
C1843  H1882   1.087   .     S
C1844  O1951   1.274   .     A
C1844  O1960   1.281   .     A
C1845  O1955   1.271   .     A
C1845  O1961   1.269   .     A
C1846  C1851   1.401   .     A
C1846  C678    1.398   1_556 S
C1846  O774    1.381   1_556 S
C1847  O1943   1.276   .     A
C1847  O1941   1.279   .     A
C1847  C1850   1.455   .     S
C1848  O1942   1.284   .     A
C1848  O1944   1.283   .     A
C1851  O1950   1.389   .     S
C1852  H1915   1.111   .     S
C1852  C1853   1.534   .     S
C1852  O1945   1.424   .     S
C1852  H1926   1.114   .     S
C1853  C1854   1.533   .     S
C1853  H1936   1.112   .     S
C1853  H1937   1.110   .     S
C1854  H1938   1.107   .     S
C1854  H1621   1.108   1_655 S
C1854  H1677   1.109   1_655 S
C1855  H1884   1.109   .     S
C1855  O1946   1.419   .     S
C1855  C1594   1.534   1_655 S
C1855  H1623   1.113   1_655 S
C1856  H1887   1.107   .     S
C1856  C1858   1.526   .     S
C1857  O1952   1.382   .     S
C1858  H1889   1.110   .     S
C1858  H1888   1.110   .     S
C1858  H1890   1.110   .     S
C1859  C1860   1.530   .     S
C1859  H1892   1.119   .     S
C1859  H2284   1.109   .     S
C1859  O2340   1.418   .     S
C1860  C1861   1.525   .     S
C1860  H1895   1.110   .     S
C1860  H1894   1.110   .     S
C1861  H1896   1.110   .     S
C1861  H1898   1.108   .     S
C1861  H1897   1.110   .     S
C1862  H1900   1.119   .     S
C1862  O1948   1.420   .     S
C1862  C1863   1.530   .     S
C1862  H1899   1.112   .     S
C1863  C1864   1.524   .     S
C1863  H1902   1.112   .     S
C1863  H1901   1.111   .     S
C1864  H1903   1.109   .     S
C1864  H1906   1.111   .     S
C1865  H1907   1.110   .     S
C1865  O1949   1.407   .     S
C1865  H1908   1.109   .     S
C1865  H730    1.104   1_556 S
C1866  H1911   1.110   .     S
C1866  O1950   1.422   .     S
C1866  H1910   1.111   .     S
C1866  C1867   1.540   .     S
C1867  H1912   1.109   .     S
C1867  H1913   1.111   .     S
C1868  C1877   1.423   .     A
C1868  C678    1.429   1_556 S
C1868  C699    1.433   1_556 S
C1869  H1914   1.111   .     S
C1869  H1916   1.107   .     S
C1869  H1917   1.107   .     S
C1869  C1605   1.524   1_655 S
C1870  C1871   1.537   .     S
C1870  H1919   1.116   .     S
C1870  H1918   1.112   .     S
C1870  O1952   1.416   .     S
C1871  H1920   1.111   .     S
C1871  C1872   1.523   .     S
C1871  H1921   1.111   .     S
C1872  H1922   1.108   .     S
C1872  H1924   1.106   .     S
C1873  H1927   1.113   .     S
C1873  O1953   1.409   .     S
C1873  C2267   1.529   .     S
C1874  C1875   1.524   .     S
C1874  H1928   1.111   .     S
C1875  H1930   1.109   .     S
C1875  H1931   1.110   .     S
C1876  H1934   1.109   .     S
C1876  H1935   1.109   .     S
C1876  H1933   1.114   .     S
C1876  O1954   1.414   .     S
C1877  C1881   1.419   .     A
C1879  C1880   1.404   .     A
C1879  C699    1.426   1_556 S
C1879  C670    1.416   1_556 S
C1880  O1948   1.386   .     S
C1880  C1881   1.394   .     A
C1881  O1954   1.391   .     S
H1886  C1594   1.110   1_655 S
H1905  C2257   1.110   .     S
H1923  C1610   1.110   1_655 S
H1925  C694    1.114   1_556 S
H1929  C2267   1.112   .     S
H1932  C696    1.111   1_556 S
O1940  Zn1963  1.954   .     S
O1940  Zn1962  1.950   .     S
O1940  Zn1965  1.927   .     S
O1940  Zn1964  1.939   .     S
O1941  Zn1963  1.933   .     S
O1942  Zn1965  1.942   .     S
O1943  Zn1964  1.941   .     S
O1944  Zn1962  1.930   .     S
O1946  C1579   1.399   1_655 S
O1949  C670    1.389   1_556 S
O1951  Zn1962  1.930   .     S
O1955  Zn1965  1.931   .     S
O1956  Zn1963  1.924   .     S
O1957  Zn1964  1.934   .     S
O1958  Zn1965  1.938   .     S
O1959  Zn1962  1.929   .     S
O1960  Zn1963  1.928   .     S
O1961  Zn1964  1.925   .     S
C1966  O2087   1.265   .     A
C1966  C1972   1.441   .     S
C1966  O2089   1.273   .     A
C1967  C2009   1.398   .     A
C1967  C1981   1.387   .     A
C1967  H2024   1.077   .     S
C1968  O2076   1.389   .     S
C1968  C1980   1.409   .     A
C1968  C1981   1.413   .     A
C1969  O2090   1.269   .     A
C1969  C1971   1.456   .     S
C1969  O2088   1.288   .     A
C1970  C1982   1.416   .     A
C1970  C2008   1.429   .     A
C1970  C1979   1.497   .     S
C1971  C2103   1.347   .     S
C1971  H2166   1.087   .     S
C1972  C2233   1.347   1_455 S
C1972  O2339   1.399   1_455 S
C1973  C1976   1.451   .     S
C1973  C1188   1.335   1_565 S
C1973  O1292   1.387   1_565 S
C1974  C1975   1.434   .     S
C1974  H2013   1.087   .     S
C1975  O2082   1.274   .     A
C1975  O2091   1.281   .     A
C1976  O2086   1.271   .     A
C1976  O2092   1.269   .     A
C1977  C1982   1.401   .     A
C1977  C809    1.398   1_556 S
C1977  O905    1.381   1_556 S
C1978  O2074   1.276   .     A
C1978  O2072   1.279   .     A
C1978  C1981   1.455   .     S
C1979  O2073   1.284   .     A
C1979  O2075   1.283   .     A
C1982  O2081   1.389   .     S
C1983  H2046   1.111   .     S
C1983  C1984   1.534   .     S
C1983  O2076   1.424   .     S
C1983  H2057   1.114   .     S
C1984  C1985   1.533   .     S
C1984  H2067   1.112   .     S
C1984  H2068   1.110   .     S
C1985  H2069   1.107   .     S
C1985  H2145   1.108   .     S
C1985  H2201   1.109   .     S
C1986  H2015   1.109   .     S
C1986  O2077   1.419   .     S
C1986  C2118   1.534   .     S
C1986  H2147   1.113   .     S
C1987  H2018   1.107   .     S
C1987  C1989   1.526   .     S
C1987  C2248   1.534   1_455 S
C1987  H2279   1.110   1_455 S
C1988  O2083   1.382   .     S
C1989  H2020   1.110   .     S
C1989  H2019   1.110   .     S
C1989  H2021   1.110   .     S
C1990  C1991   1.530   .     S
C1990  H2023   1.119   .     S
C1990  H1236   1.109   1_565 S
C1990  O1292   1.418   1_565 S
C1991  C1992   1.525   .     S
C1991  H2026   1.110   .     S
C1991  H2025   1.110   .     S
C1992  H2027   1.110   .     S
C1992  H2029   1.108   .     S
C1992  H2028   1.110   .     S
C1993  H2031   1.119   .     S
C1993  O2079   1.420   .     S
C1993  C1994   1.530   .     S
C1993  H2030   1.112   .     S
C1994  C1995   1.524   .     S
C1994  H2033   1.112   .     S
C1994  H2032   1.111   .     S
C1995  H2034   1.109   .     S
C1995  H2037   1.111   .     S
C1996  H2038   1.110   .     S
C1996  O2080   1.407   .     S
C1996  H2039   1.109   .     S
C1996  H861    1.104   1_556 S
C1997  H2042   1.110   .     S
C1997  O2081   1.422   .     S
C1997  H2041   1.111   .     S
C1997  C1998   1.540   .     S
C1998  H2043   1.109   .     S
C1998  H2044   1.111   .     S
C1998  C2262   1.524   1_455 S
C1999  C2008   1.423   .     A
C1999  C809    1.429   1_556 S
C1999  C830    1.433   1_556 S
C2000  H2045   1.111   .     S
C2000  H2047   1.107   .     S
C2000  H2048   1.107   .     S
C2000  C2129   1.524   .     S
C2001  C2002   1.537   .     S
C2001  H2050   1.116   .     S
C2001  H2049   1.112   .     S
C2001  O2083   1.416   .     S
C2002  H2051   1.111   .     S
C2002  C2003   1.523   .     S
C2002  H2052   1.111   .     S
C2003  H2053   1.108   .     S
C2003  H2055   1.106   .     S
C2003  H2316   1.110   1_455 S
C2004  H2058   1.113   .     S
C2004  O2084   1.409   .     S
C2004  C1219   1.529   1_565 S
C2005  C2006   1.524   .     S
C2005  H2059   1.111   .     S
C2006  H2061   1.109   .     S
C2006  H2062   1.110   .     S
C2007  H2065   1.109   .     S
C2007  H2066   1.109   .     S
C2007  H2064   1.114   .     S
C2007  O2085   1.414   .     S
C2008  C2012   1.419   .     A
C2010  C2011   1.404   .     A
C2010  C830    1.426   1_556 S
C2010  C801    1.416   1_556 S
C2011  O2079   1.386   .     S
C2011  C2012   1.394   .     A
C2012  O2085   1.391   .     S
H2014  C2247   1.108   1_455 S
H2016  C2248   1.113   1_455 S
H2017  C2118   1.110   .     S
H2035  C2233   1.087   1_455 S
H2036  C1209   1.110   1_565 S
H2054  C2134   1.110   .     S
H2056  C825    1.114   1_556 S
H2060  C1219   1.112   1_565 S
H2063  C827    1.111   1_556 S
H2070  C2247   1.109   1_455 S
O2071  Zn2094  1.954   .     S
O2071  Zn2093  1.950   .     S
O2071  Zn2096  1.927   .     S
O2071  Zn2095  1.939   .     S
O2072  Zn2094  1.933   .     S
O2073  Zn2096  1.942   .     S
O2074  Zn2095  1.941   .     S
O2075  Zn2093  1.930   .     S
O2077  C2103   1.399   .     S
O2080  C801    1.389   1_556 S
O2082  Zn2093  1.930   .     S
O2086  Zn2096  1.931   .     S
O2087  Zn2094  1.924   .     S
O2088  Zn2095  1.934   .     S
O2089  Zn2096  1.938   .     S
O2090  Zn2093  1.929   .     S
O2091  Zn2094  1.928   .     S
O2092  Zn2095  1.925   .     S
C2097  O2218   1.265   .     A
C2097  C2103   1.441   .     S
C2097  O2220   1.273   .     A
C2098  C2140   1.398   .     A
C2098  C2112   1.387   .     A
C2098  H2155   1.077   .     S
C2099  O2207   1.389   .     S
C2099  C2111   1.409   .     A
C2099  C2112   1.413   .     A
C2100  O2221   1.269   .     A
C2100  C2102   1.456   .     S
C2100  O2219   1.288   .     A
C2101  C2113   1.416   .     A
C2101  C2139   1.429   .     A
C2101  C2110   1.497   .     S
C2102  C2234   1.347   .     S
C2102  H2297   1.087   .     S
C2104  C2107   1.451   .     S
C2104  C1319   1.335   1_565 S
C2104  O1423   1.387   1_565 S
C2105  C2106   1.434   .     S
C2105  H2144   1.087   .     S
C2106  O2213   1.274   .     A
C2106  O2222   1.281   .     A
C2107  O2217   1.271   .     A
C2107  O2223   1.269   .     A
C2108  C2113   1.401   .     A
C2108  C940    1.398   1_556 S
C2108  O1036   1.381   1_556 S
C2109  O2205   1.276   .     A
C2109  O2203   1.279   .     A
C2109  C2112   1.455   .     S
C2110  O2204   1.284   .     A
C2110  O2206   1.283   .     A
C2113  O2212   1.389   .     S
C2114  H2177   1.111   .     S
C2114  C2115   1.534   .     S
C2114  O2207   1.424   .     S
C2114  H2188   1.114   .     S
C2115  C2116   1.533   .     S
C2115  H2198   1.112   .     S
C2115  H2199   1.110   .     S
C2116  H2200   1.107   .     S
C2116  H2276   1.108   .     S
C2116  H2332   1.109   .     S
C2117  H2146   1.109   .     S
C2117  O2208   1.419   .     S
C2117  C2249   1.534   .     S
C2117  H2278   1.113   .     S
C2118  H2149   1.107   .     S
C2118  C2120   1.526   .     S
C2119  O2214   1.382   .     S
C2120  H2151   1.110   .     S
C2120  H2150   1.110   .     S
C2120  H2152   1.110   .     S
C2121  C2122   1.530   .     S
C2121  H2154   1.119   .     S
C2121  H1367   1.109   1_565 S
C2121  O1423   1.418   1_565 S
C2122  C2123   1.525   .     S
C2122  H2157   1.110   .     S
C2122  H2156   1.110   .     S
C2123  H2158   1.110   .     S
C2123  H2160   1.108   .     S
C2123  H2159   1.110   .     S
C2124  H2162   1.119   .     S
C2124  O2210   1.420   .     S
C2124  C2125   1.530   .     S
C2124  H2161   1.112   .     S
C2125  C2126   1.524   .     S
C2125  H2164   1.112   .     S
C2125  H2163   1.111   .     S
C2126  H2165   1.109   .     S
C2126  H2168   1.111   .     S
C2127  H2169   1.110   .     S
C2127  O2211   1.407   .     S
C2127  H2170   1.109   .     S
C2127  H992    1.104   1_556 S
C2128  H2173   1.110   .     S
C2128  O2212   1.422   .     S
C2128  H2172   1.111   .     S
C2128  C2129   1.540   .     S
C2129  H2174   1.109   .     S
C2129  H2175   1.111   .     S
C2130  C2139   1.423   .     A
C2130  C940    1.429   1_556 S
C2130  C961    1.433   1_556 S
C2131  H2176   1.111   .     S
C2131  H2178   1.107   .     S
C2131  H2179   1.107   .     S
C2131  C2260   1.524   .     S
C2132  C2133   1.537   .     S
C2132  H2181   1.116   .     S
C2132  H2180   1.112   .     S
C2132  O2214   1.416   .     S
C2133  H2182   1.111   .     S
C2133  C2134   1.523   .     S
C2133  H2183   1.111   .     S
C2134  H2184   1.108   .     S
C2134  H2186   1.106   .     S
C2135  H2189   1.113   .     S
C2135  O2215   1.409   .     S
C2135  C1350   1.529   1_565 S
C2136  C2137   1.524   .     S
C2136  H2190   1.111   .     S
C2137  H2192   1.109   .     S
C2137  H2193   1.110   .     S
C2138  H2196   1.109   .     S
C2138  H2197   1.109   .     S
C2138  H2195   1.114   .     S
C2138  O2216   1.414   .     S
C2139  C2143   1.419   .     A
C2141  C2142   1.404   .     A
C2141  C961    1.426   1_556 S
C2141  C932    1.416   1_556 S
C2142  O2210   1.386   .     S
C2142  C2143   1.394   .     A
C2143  O2216   1.391   .     S
H2148  C2249   1.110   .     S
H2167  C1340   1.110   1_565 S
H2185  C2265   1.110   .     S
H2187  C956    1.114   1_556 S
H2191  C1350   1.112   1_565 S
H2194  C958    1.111   1_556 S
O2202  Zn2225  1.954   .     S
O2202  Zn2224  1.950   .     S
O2202  Zn2227  1.927   .     S
O2202  Zn2226  1.939   .     S
O2203  Zn2225  1.933   .     S
O2204  Zn2227  1.942   .     S
O2205  Zn2226  1.941   .     S
O2206  Zn2224  1.930   .     S
O2208  C2234   1.399   .     S
O2211  C932    1.389   1_556 S
O2213  Zn2224  1.930   .     S
O2217  Zn2227  1.931   .     S
O2218  Zn2225  1.924   .     S
O2219  Zn2226  1.934   .     S
O2220  Zn2227  1.938   .     S
O2221  Zn2224  1.929   .     S
O2222  Zn2225  1.928   .     S
O2223  Zn2226  1.925   .     S
C2228  O2349   1.265   .     A
C2228  C2234   1.441   .     S
C2228  O2351   1.273   .     A
C2229  C2271   1.398   .     A
C2229  C2243   1.387   .     A
C2229  H2286   1.077   .     S
C2230  O2338   1.389   .     S
C2230  C2242   1.409   .     A
C2230  C2243   1.413   .     A
C2231  O2352   1.269   .     A
C2231  C2233   1.456   .     S
C2231  O2350   1.288   .     A
C2232  C2244   1.416   .     A
C2232  C2270   1.429   .     A
C2232  C2241   1.497   .     S
C2233  C1972   1.347   1_655 S
C2233  H2035   1.087   1_655 S
C2235  C2238   1.451   .     S
C2235  C1450   1.335   1_565 S
C2235  O1554   1.387   1_565 S
C2236  C2237   1.434   .     S
C2236  H2275   1.087   .     S
C2237  O2344   1.274   .     A
C2237  O2353   1.281   .     A
C2238  O2348   1.271   .     A
C2238  O2354   1.269   .     A
C2239  C2244   1.401   .     A
C2239  C1071   1.398   1_556 S
C2239  O1167   1.381   1_556 S
C2240  O2336   1.276   .     A
C2240  O2334   1.279   .     A
C2240  C2243   1.455   .     S
C2241  O2335   1.284   .     A
C2241  O2337   1.283   .     A
C2244  O2343   1.389   .     S
C2245  H2308   1.111   .     S
C2245  C2246   1.534   .     S
C2245  O2338   1.424   .     S
C2245  H2319   1.114   .     S
C2246  C2247   1.533   .     S
C2246  H2329   1.112   .     S
C2246  H2330   1.110   .     S
C2247  H2331   1.107   .     S
C2247  H2014   1.108   1_655 S
C2247  H2070   1.109   1_655 S
C2248  H2277   1.109   .     S
C2248  O2339   1.419   .     S
C2248  C1987   1.534   1_655 S
C2248  H2016   1.113   1_655 S
C2249  H2280   1.107   .     S
C2249  C2251   1.526   .     S
C2250  O2345   1.382   .     S
C2251  H2282   1.110   .     S
C2251  H2281   1.110   .     S
C2251  H2283   1.110   .     S
C2252  C2253   1.530   .     S
C2252  H2285   1.119   .     S
C2252  H1498   1.109   1_565 S
C2252  O1554   1.418   1_565 S
C2253  C2254   1.525   .     S
C2253  H2288   1.110   .     S
C2253  H2287   1.110   .     S
C2254  H2289   1.110   .     S
C2254  H2291   1.108   .     S
C2254  H2290   1.110   .     S
C2255  H2293   1.119   .     S
C2255  O2341   1.420   .     S
C2255  C2256   1.530   .     S
C2255  H2292   1.112   .     S
C2256  C2257   1.524   .     S
C2256  H2295   1.112   .     S
C2256  H2294   1.111   .     S
C2257  H2296   1.109   .     S
C2257  H2299   1.111   .     S
C2258  H2300   1.110   .     S
C2258  O2342   1.407   .     S
C2258  H2301   1.109   .     S
C2258  H1123   1.104   1_556 S
C2259  H2304   1.110   .     S
C2259  O2343   1.422   .     S
C2259  H2303   1.111   .     S
C2259  C2260   1.540   .     S
C2260  H2305   1.109   .     S
C2260  H2306   1.111   .     S
C2261  C2270   1.423   .     A
C2261  C1071   1.429   1_556 S
C2261  C1092   1.433   1_556 S
C2262  H2307   1.111   .     S
C2262  H2309   1.107   .     S
C2262  H2310   1.107   .     S
C2262  C1998   1.524   1_655 S
C2263  C2264   1.537   .     S
C2263  H2312   1.116   .     S
C2263  H2311   1.112   .     S
C2263  O2345   1.416   .     S
C2264  H2313   1.111   .     S
C2264  C2265   1.523   .     S
C2264  H2314   1.111   .     S
C2265  H2315   1.108   .     S
C2265  H2317   1.106   .     S
C2266  H2320   1.113   .     S
C2266  O2346   1.409   .     S
C2266  C1481   1.529   1_565 S
C2267  C2268   1.524   .     S
C2267  H2321   1.111   .     S
C2268  H2323   1.109   .     S
C2268  H2324   1.110   .     S
C2269  H2327   1.109   .     S
C2269  H2328   1.109   .     S
C2269  H2326   1.114   .     S
C2269  O2347   1.414   .     S
C2270  C2274   1.419   .     A
C2272  C2273   1.404   .     A
C2272  C1092   1.426   1_556 S
C2272  C1063   1.416   1_556 S
C2273  O2341   1.386   .     S
C2273  C2274   1.394   .     A
C2274  O2347   1.391   .     S
H2279  C1987   1.110   1_655 S
H2298  C1471   1.110   1_565 S
H2316  C2003   1.110   1_655 S
H2318  C1087   1.114   1_556 S
H2322  C1481   1.112   1_565 S
H2325  C1089   1.111   1_556 S
O2333  Zn2356  1.954   .     S
O2333  Zn2355  1.950   .     S
O2333  Zn2358  1.927   .     S
O2333  Zn2357  1.939   .     S
O2334  Zn2356  1.933   .     S
O2335  Zn2358  1.942   .     S
O2336  Zn2357  1.941   .     S
O2337  Zn2355  1.930   .     S
O2339  C1972   1.399   1_655 S
O2342  C1063   1.389   1_556 S
O2344  Zn2355  1.930   .     S
O2348  Zn2358  1.931   .     S
O2349  Zn2356  1.924   .     S
O2350  Zn2357  1.934   .     S
O2351  Zn2358  1.938   .     S
O2352  Zn2355  1.929   .     S
O2353  Zn2356  1.928   .     S
O2354  Zn2357  1.925   .     S
