data_str_m1_o10_o18_pcu_sym.201
_audit_creation_date              2020-01-03
_audit_creation_method            'Materials Studio'
_symmetry_space_group_name_H-M    'P1'
_symmetry_Int_Tables_number       1
_symmetry_cell_setting            triclinic
loop_
_symmetry_equiv_pos_as_xyz
  x,y,z
_cell_length_a                    32.5489
_cell_length_b                    32.5644
_cell_length_c                    35.5944
_cell_angle_alpha                 97.9027
_cell_angle_beta                  73.1084
_cell_angle_gamma                 98.6969
loop_
_atom_site_label
_atom_site_type_symbol
_atom_site_fract_x
_atom_site_fract_y
_atom_site_fract_z
_atom_site_U_iso_or_equiv
_atom_site_adp_type
_atom_site_occupancy
C1     C     0.05252   0.15987   0.25871   0.00000  Uiso   1.00
C2     C     0.20235   0.13094   0.45860   0.00000  Uiso   1.00
C3     C     0.22701   0.11583   0.47829   0.00000  Uiso   1.00
C4     C     0.28111   0.17356   0.24117   0.00000  Uiso   1.00
C5     C     0.21594   0.12016   0.01930   0.00000  Uiso   1.00
C6     C     0.17723   0.13675   0.04119   0.00000  Uiso   1.00
C7     C     0.24418   0.10924   0.03846   0.00000  Uiso   1.00
C8     C     0.23582   0.11606   0.07958   0.00000  Uiso   1.00
C9     C     0.17069   0.14607   0.08207   0.00000  Uiso   1.00
C10    C     0.32710   0.17625   0.23755   0.00000  Uiso   1.00
C11    C     0.00714   0.15736   0.26209   0.00000  Uiso   1.00
C12    C     0.09073   0.20349   0.42205   0.00000  Uiso   1.00
C13    C     0.18120   0.32242   0.23703   0.00000  Uiso   1.00
C14    C     0.15216   0.01209   0.26203   0.00000  Uiso   1.00
C15    C     0.15545   0.05619   0.25939   0.00000  Uiso   1.00
C16    C     0.17694   0.27773   0.24104   0.00000  Uiso   1.00
C17    C     0.18827   0.14531   0.14397   0.00000  Uiso   1.00
C18    C     0.14496   0.18719   0.35637   0.00000  Uiso   1.00
C19    C     0.13073   0.18994   0.40000   0.00000  Uiso   1.00
C20    C     0.19868   0.13524   0.10128   0.00000  Uiso   1.00
C21    C     0.07576   0.19884   0.46243   0.00000  Uiso   1.00
C22    C     0.26671   0.10328   0.09838   0.00000  Uiso   1.00
C23    C     0.15569   0.17381   0.41935   0.00000  Uiso   1.00
C24    C     0.14028   0.16741   0.45969   0.00000  Uiso   1.00
C25    C     0.09970   0.18035   0.48109   0.00000  Uiso   1.00
C26    C     0.16407   0.14878   0.47935   0.00000  Uiso   1.00
C27    C     0.14855   0.14694   0.02104   0.00000  Uiso   1.00
C28    C     0.10501   0.15498   0.04029   0.00000  Uiso   1.00
C29    C     0.08218   0.17290   0.02049   0.00000  Uiso   1.00
H30    H     0.04947   0.17953   0.03582   0.00000  Uiso   1.00
H31    H     0.21375   0.12720   0.42688   0.00000  Uiso   1.00
H32    H     0.23227   0.31885   0.18677   0.00000  Uiso   1.00
H33    H     0.23799   0.02583   0.22038   0.00000  Uiso   1.00
H34    H     0.32600   0.08658   0.09125   0.00000  Uiso   1.00
H35    H     0.03455   0.20182   0.40813   0.00000  Uiso   1.00
H36    H     0.05878   0.25031   0.41753   0.00000  Uiso   1.00
H37    H     0.09261   0.11340   0.08226   0.00000  Uiso   1.00
H38    H     0.07818   0.16293   0.09985   0.00000  Uiso   1.00
H39    H     0.27307   0.09564   0.02108   0.00000  Uiso   1.00
H40    H     0.01683   0.19366   0.21485   0.00000  Uiso   1.00
H41    H     0.31806   0.13987   0.28504   0.00000  Uiso   1.00
H42    H     0.12581   0.33201   0.28518   0.00000  Uiso   1.00
H43    H     0.14532   0.16411   0.09945   0.00000  Uiso   1.00
H44    H     0.25618   0.10251   0.46121   0.00000  Uiso   1.00
H45    H     0.04460   0.20864   0.47898   0.00000  Uiso   1.00
H46    H     0.18712   0.16623   0.40191   0.00000  Uiso   1.00
N47    N     0.21576   0.00816   0.20671   0.00000  Uiso   1.00
N48    N     0.06436   0.22048   0.40350   0.00000  Uiso   1.00
N49    N     0.08013   0.13902   0.07682   0.00000  Uiso   1.00
O50    O     0.16667   0.16667   0.25000   0.00000  Uiso   1.00
O51    O     0.15693   0.12393   0.16625   0.00000  Uiso   1.00
O52    O     0.12687   0.20646   0.33749   0.00000  Uiso   1.00
O53    O     0.21088   0.17493   0.15877   0.00000  Uiso   1.00
O54    O     0.17198   0.16135   0.33749   0.00000  Uiso   1.00
O55    O     0.25622   0.09923   0.13368   0.00000  Uiso   1.00
O56    O     0.30801   0.09515   0.07532   0.00000  Uiso   1.00
O57    O     0.17849   0.08101   0.27821   0.00000  Uiso   1.00
O58    O     0.14581   0.26136   0.26767   0.00000  Uiso   1.00
O59    O     0.07452   0.13251   0.23607   0.00000  Uiso   1.00
O60    O     0.26785   0.19179   0.21806   0.00000  Uiso   1.00
O61    O     0.06990   0.18960   0.27820   0.00000  Uiso   1.00
O62    O     0.25440   0.15277   0.26768   0.00000  Uiso   1.00
O63    O     0.13800   0.06903   0.23607   0.00000  Uiso   1.00
O64    O     0.20437   0.25527   0.21806   0.00000  Uiso   1.00
Zn65   Zn    0.19244   0.14090   0.28278   0.00000  Uiso   1.00
Zn66   Zn    0.13459   0.12378   0.22258   0.00000  Uiso   1.00
Zn67   Zn    0.21166   0.19664   0.21188   0.00000  Uiso   1.00
Zn68   Zn    0.12798   0.20535   0.28277   0.00000  Uiso   1.00
C69    C     0.38585   0.15987   0.25871   0.00000  Uiso   1.00
C70    C     0.53568   0.13094   0.45860   0.00000  Uiso   1.00
C71    C     0.56035   0.11583   0.47829   0.00000  Uiso   1.00
C72    C     0.61444   0.17356   0.24117   0.00000  Uiso   1.00
C73    C     0.54927   0.12016   0.01930   0.00000  Uiso   1.00
C74    C     0.51056   0.13675   0.04119   0.00000  Uiso   1.00
C75    C     0.57751   0.10924   0.03846   0.00000  Uiso   1.00
C76    C     0.56916   0.11606   0.07958   0.00000  Uiso   1.00
C77    C     0.50402   0.14607   0.08207   0.00000  Uiso   1.00
C78    C     0.66043   0.17625   0.23755   0.00000  Uiso   1.00
C79    C     0.34047   0.15736   0.26209   0.00000  Uiso   1.00
C80    C     0.42406   0.20349   0.42205   0.00000  Uiso   1.00
C81    C     0.51453   0.32242   0.23703   0.00000  Uiso   1.00
C82    C     0.48549   0.01209   0.26203   0.00000  Uiso   1.00
C83    C     0.48878   0.05619   0.25939   0.00000  Uiso   1.00
C84    C     0.51027   0.27773   0.24104   0.00000  Uiso   1.00
C85    C     0.52161   0.14531   0.14397   0.00000  Uiso   1.00
C86    C     0.47829   0.18719   0.35637   0.00000  Uiso   1.00
C87    C     0.46406   0.18994   0.40000   0.00000  Uiso   1.00
C88    C     0.53201   0.13524   0.10128   0.00000  Uiso   1.00
C89    C     0.40909   0.19884   0.46243   0.00000  Uiso   1.00
C90    C     0.60004   0.10328   0.09838   0.00000  Uiso   1.00
C91    C     0.48902   0.17381   0.41935   0.00000  Uiso   1.00
C92    C     0.47361   0.16741   0.45969   0.00000  Uiso   1.00
C93    C     0.43303   0.18035   0.48109   0.00000  Uiso   1.00
C94    C     0.49740   0.14878   0.47935   0.00000  Uiso   1.00
C95    C     0.48188   0.14694   0.02104   0.00000  Uiso   1.00
C96    C     0.43835   0.15498   0.04029   0.00000  Uiso   1.00
C97    C     0.41551   0.17290   0.02049   0.00000  Uiso   1.00
H98    H     0.38281   0.17953   0.03582   0.00000  Uiso   1.00
H99    H     0.54708   0.12720   0.42688   0.00000  Uiso   1.00
H100   H     0.56560   0.31885   0.18677   0.00000  Uiso   1.00
H101   H     0.57132   0.02583   0.22038   0.00000  Uiso   1.00
H102   H     0.65934   0.08658   0.09125   0.00000  Uiso   1.00
H103   H     0.36789   0.20182   0.40813   0.00000  Uiso   1.00
H104   H     0.39211   0.25031   0.41753   0.00000  Uiso   1.00
H105   H     0.42594   0.11340   0.08226   0.00000  Uiso   1.00
H106   H     0.41151   0.16293   0.09985   0.00000  Uiso   1.00
H107   H     0.60641   0.09564   0.02108   0.00000  Uiso   1.00
H108   H     0.35016   0.19366   0.21485   0.00000  Uiso   1.00
H109   H     0.65139   0.13987   0.28504   0.00000  Uiso   1.00
H110   H     0.45914   0.33201   0.28518   0.00000  Uiso   1.00
H111   H     0.47865   0.16411   0.09945   0.00000  Uiso   1.00
H112   H     0.58952   0.10251   0.46121   0.00000  Uiso   1.00
H113   H     0.37793   0.20864   0.47898   0.00000  Uiso   1.00
H114   H     0.52046   0.16623   0.40191   0.00000  Uiso   1.00
N115   N     0.54909   0.00816   0.20671   0.00000  Uiso   1.00
N116   N     0.39769   0.22048   0.40350   0.00000  Uiso   1.00
N117   N     0.41347   0.13902   0.07682   0.00000  Uiso   1.00
O118   O     0.50000   0.16667   0.25000   0.00000  Uiso   1.00
O119   O     0.49027   0.12393   0.16625   0.00000  Uiso   1.00
O120   O     0.46020   0.20646   0.33749   0.00000  Uiso   1.00
O121   O     0.54421   0.17493   0.15877   0.00000  Uiso   1.00
O122   O     0.50532   0.16135   0.33749   0.00000  Uiso   1.00
O123   O     0.58955   0.09923   0.13368   0.00000  Uiso   1.00
O124   O     0.64135   0.09515   0.07532   0.00000  Uiso   1.00
O125   O     0.51182   0.08101   0.27821   0.00000  Uiso   1.00
O126   O     0.47914   0.26136   0.26767   0.00000  Uiso   1.00
O127   O     0.40785   0.13251   0.23607   0.00000  Uiso   1.00
O128   O     0.60119   0.19179   0.21806   0.00000  Uiso   1.00
O129   O     0.40323   0.18960   0.27820   0.00000  Uiso   1.00
O130   O     0.58773   0.15277   0.26768   0.00000  Uiso   1.00
O131   O     0.47133   0.06903   0.23607   0.00000  Uiso   1.00
O132   O     0.53771   0.25527   0.21806   0.00000  Uiso   1.00
Zn133  Zn    0.52577   0.14090   0.28278   0.00000  Uiso   1.00
Zn134  Zn    0.46792   0.12378   0.22258   0.00000  Uiso   1.00
Zn135  Zn    0.54500   0.19664   0.21188   0.00000  Uiso   1.00
Zn136  Zn    0.46131   0.20535   0.28277   0.00000  Uiso   1.00
C137   C     0.71919   0.15987   0.25871   0.00000  Uiso   1.00
C138   C     0.86901   0.13094   0.45860   0.00000  Uiso   1.00
C139   C     0.89368   0.11583   0.47829   0.00000  Uiso   1.00
C140   C     0.94778   0.17356   0.24117   0.00000  Uiso   1.00
C141   C     0.88261   0.12016   0.01930   0.00000  Uiso   1.00
C142   C     0.84390   0.13675   0.04119   0.00000  Uiso   1.00
C143   C     0.91084   0.10924   0.03846   0.00000  Uiso   1.00
C144   C     0.90249   0.11606   0.07958   0.00000  Uiso   1.00
C145   C     0.83735   0.14607   0.08207   0.00000  Uiso   1.00
C146   C     0.99376   0.17625   0.23755   0.00000  Uiso   1.00
C147   C     0.67381   0.15736   0.26209   0.00000  Uiso   1.00
C148   C     0.75740   0.20349   0.42205   0.00000  Uiso   1.00
C149   C     0.84787   0.32242   0.23703   0.00000  Uiso   1.00
C150   C     0.81883   0.01209   0.26203   0.00000  Uiso   1.00
C151   C     0.82211   0.05619   0.25939   0.00000  Uiso   1.00
C152   C     0.84361   0.27773   0.24104   0.00000  Uiso   1.00
C153   C     0.85494   0.14531   0.14397   0.00000  Uiso   1.00
C154   C     0.81162   0.18719   0.35637   0.00000  Uiso   1.00
C155   C     0.79740   0.18994   0.40000   0.00000  Uiso   1.00
C156   C     0.86534   0.13524   0.10128   0.00000  Uiso   1.00
C157   C     0.74242   0.19884   0.46243   0.00000  Uiso   1.00
C158   C     0.93338   0.10328   0.09838   0.00000  Uiso   1.00
C159   C     0.82235   0.17381   0.41935   0.00000  Uiso   1.00
C160   C     0.80695   0.16741   0.45969   0.00000  Uiso   1.00
C161   C     0.76637   0.18035   0.48109   0.00000  Uiso   1.00
C162   C     0.83074   0.14878   0.47935   0.00000  Uiso   1.00
C163   C     0.81522   0.14694   0.02104   0.00000  Uiso   1.00
C164   C     0.77168   0.15498   0.04029   0.00000  Uiso   1.00
C165   C     0.74885   0.17290   0.02049   0.00000  Uiso   1.00
H166   H     0.71614   0.17953   0.03582   0.00000  Uiso   1.00
H167   H     0.88042   0.12720   0.42688   0.00000  Uiso   1.00
H168   H     0.89893   0.31885   0.18677   0.00000  Uiso   1.00
H169   H     0.90466   0.02583   0.22038   0.00000  Uiso   1.00
H170   H     0.99267   0.08658   0.09125   0.00000  Uiso   1.00
H171   H     0.70122   0.20182   0.40813   0.00000  Uiso   1.00
H172   H     0.72545   0.25031   0.41753   0.00000  Uiso   1.00
H173   H     0.75928   0.11340   0.08226   0.00000  Uiso   1.00
H174   H     0.74484   0.16293   0.09985   0.00000  Uiso   1.00
H175   H     0.93974   0.09564   0.02108   0.00000  Uiso   1.00
H176   H     0.68350   0.19366   0.21485   0.00000  Uiso   1.00
H177   H     0.98473   0.13987   0.28504   0.00000  Uiso   1.00
H178   H     0.79248   0.33201   0.28518   0.00000  Uiso   1.00
H179   H     0.81198   0.16411   0.09945   0.00000  Uiso   1.00
H180   H     0.92285   0.10251   0.46121   0.00000  Uiso   1.00
H181   H     0.71126   0.20864   0.47898   0.00000  Uiso   1.00
H182   H     0.85379   0.16623   0.40191   0.00000  Uiso   1.00
N183   N     0.88242   0.00816   0.20671   0.00000  Uiso   1.00
N184   N     0.73102   0.22048   0.40350   0.00000  Uiso   1.00
N185   N     0.74680   0.13902   0.07682   0.00000  Uiso   1.00
O186   O     0.83333   0.16667   0.25000   0.00000  Uiso   1.00
O187   O     0.82360   0.12393   0.16625   0.00000  Uiso   1.00
O188   O     0.79354   0.20646   0.33749   0.00000  Uiso   1.00
O189   O     0.87755   0.17493   0.15877   0.00000  Uiso   1.00
O190   O     0.83865   0.16135   0.33749   0.00000  Uiso   1.00
O191   O     0.92288   0.09923   0.13368   0.00000  Uiso   1.00
O192   O     0.97468   0.09515   0.07532   0.00000  Uiso   1.00
O193   O     0.84515   0.08101   0.27821   0.00000  Uiso   1.00
O194   O     0.81247   0.26136   0.26767   0.00000  Uiso   1.00
O195   O     0.74119   0.13251   0.23607   0.00000  Uiso   1.00
O196   O     0.93452   0.19179   0.21806   0.00000  Uiso   1.00
O197   O     0.73656   0.18960   0.27820   0.00000  Uiso   1.00
O198   O     0.92106   0.15277   0.26768   0.00000  Uiso   1.00
O199   O     0.80467   0.06903   0.23607   0.00000  Uiso   1.00
O200   O     0.87104   0.25527   0.21806   0.00000  Uiso   1.00
Zn201  Zn    0.85910   0.14090   0.28278   0.00000  Uiso   1.00
Zn202  Zn    0.80125   0.12378   0.22258   0.00000  Uiso   1.00
Zn203  Zn    0.87833   0.19664   0.21188   0.00000  Uiso   1.00
Zn204  Zn    0.79465   0.20535   0.28277   0.00000  Uiso   1.00
C205   C     0.05252   0.49320   0.25871   0.00000  Uiso   1.00
C206   C     0.20235   0.46427   0.45860   0.00000  Uiso   1.00
C207   C     0.22701   0.44916   0.47829   0.00000  Uiso   1.00
C208   C     0.28111   0.50689   0.24117   0.00000  Uiso   1.00
C209   C     0.21594   0.45349   0.01930   0.00000  Uiso   1.00
C210   C     0.17723   0.47008   0.04119   0.00000  Uiso   1.00
C211   C     0.24418   0.44257   0.03846   0.00000  Uiso   1.00
C212   C     0.23582   0.44940   0.07958   0.00000  Uiso   1.00
C213   C     0.17069   0.47940   0.08207   0.00000  Uiso   1.00
C214   C     0.32710   0.50958   0.23755   0.00000  Uiso   1.00
C215   C     0.00714   0.49069   0.26209   0.00000  Uiso   1.00
C216   C     0.09073   0.53682   0.42205   0.00000  Uiso   1.00
C217   C     0.18120   0.65575   0.23703   0.00000  Uiso   1.00
C218   C     0.15216   0.34542   0.26203   0.00000  Uiso   1.00
C219   C     0.15545   0.38952   0.25939   0.00000  Uiso   1.00
C220   C     0.17694   0.61106   0.24104   0.00000  Uiso   1.00
C221   C     0.18827   0.47865   0.14397   0.00000  Uiso   1.00
C222   C     0.14496   0.52053   0.35637   0.00000  Uiso   1.00
C223   C     0.13073   0.52328   0.40000   0.00000  Uiso   1.00
C224   C     0.19868   0.46857   0.10128   0.00000  Uiso   1.00
C225   C     0.07576   0.53218   0.46243   0.00000  Uiso   1.00
C226   C     0.26671   0.43661   0.09838   0.00000  Uiso   1.00
C227   C     0.15569   0.50714   0.41935   0.00000  Uiso   1.00
C228   C     0.14028   0.50074   0.45969   0.00000  Uiso   1.00
C229   C     0.09970   0.51369   0.48109   0.00000  Uiso   1.00
C230   C     0.16407   0.48211   0.47935   0.00000  Uiso   1.00
C231   C     0.14855   0.48027   0.02104   0.00000  Uiso   1.00
C232   C     0.10501   0.48832   0.04029   0.00000  Uiso   1.00
C233   C     0.08218   0.50623   0.02049   0.00000  Uiso   1.00
H234   H     0.04947   0.51287   0.03582   0.00000  Uiso   1.00
H235   H     0.21375   0.46053   0.42688   0.00000  Uiso   1.00
H236   H     0.23227   0.65218   0.18677   0.00000  Uiso   1.00
H237   H     0.23799   0.35917   0.22038   0.00000  Uiso   1.00
H238   H     0.32600   0.41992   0.09125   0.00000  Uiso   1.00
H239   H     0.03455   0.53516   0.40813   0.00000  Uiso   1.00
H240   H     0.05878   0.58364   0.41753   0.00000  Uiso   1.00
H241   H     0.09261   0.44673   0.08226   0.00000  Uiso   1.00
H242   H     0.07818   0.49626   0.09985   0.00000  Uiso   1.00
H243   H     0.27307   0.42898   0.02108   0.00000  Uiso   1.00
H244   H     0.01683   0.52699   0.21485   0.00000  Uiso   1.00
H245   H     0.31806   0.47320   0.28504   0.00000  Uiso   1.00
H246   H     0.12581   0.66535   0.28518   0.00000  Uiso   1.00
H247   H     0.14532   0.49745   0.09945   0.00000  Uiso   1.00
H248   H     0.25618   0.43584   0.46121   0.00000  Uiso   1.00
H249   H     0.04460   0.54197   0.47898   0.00000  Uiso   1.00
H250   H     0.18712   0.49956   0.40191   0.00000  Uiso   1.00
N251   N     0.21576   0.34150   0.20671   0.00000  Uiso   1.00
N252   N     0.06436   0.55381   0.40350   0.00000  Uiso   1.00
N253   N     0.08013   0.47235   0.07682   0.00000  Uiso   1.00
O254   O     0.16667   0.50000   0.25000   0.00000  Uiso   1.00
O255   O     0.15693   0.45726   0.16625   0.00000  Uiso   1.00
O256   O     0.12687   0.53979   0.33749   0.00000  Uiso   1.00
O257   O     0.21088   0.50826   0.15877   0.00000  Uiso   1.00
O258   O     0.17198   0.49468   0.33749   0.00000  Uiso   1.00
O259   O     0.25622   0.43256   0.13368   0.00000  Uiso   1.00
O260   O     0.30801   0.42848   0.07532   0.00000  Uiso   1.00
O261   O     0.17849   0.41434   0.27821   0.00000  Uiso   1.00
O262   O     0.14581   0.59469   0.26767   0.00000  Uiso   1.00
O263   O     0.07452   0.46584   0.23607   0.00000  Uiso   1.00
O264   O     0.26785   0.52512   0.21806   0.00000  Uiso   1.00
O265   O     0.06990   0.52293   0.27820   0.00000  Uiso   1.00
O266   O     0.25440   0.48610   0.26768   0.00000  Uiso   1.00
O267   O     0.13800   0.40236   0.23607   0.00000  Uiso   1.00
O268   O     0.20437   0.58860   0.21806   0.00000  Uiso   1.00
Zn269  Zn    0.19244   0.47423   0.28278   0.00000  Uiso   1.00
Zn270  Zn    0.13459   0.45711   0.22258   0.00000  Uiso   1.00
Zn271  Zn    0.21166   0.52997   0.21188   0.00000  Uiso   1.00
Zn272  Zn    0.12798   0.53868   0.28277   0.00000  Uiso   1.00
C273   C     0.38585   0.49320   0.25871   0.00000  Uiso   1.00
C274   C     0.53568   0.46427   0.45860   0.00000  Uiso   1.00
C275   C     0.56035   0.44916   0.47829   0.00000  Uiso   1.00
C276   C     0.61444   0.50689   0.24117   0.00000  Uiso   1.00
C277   C     0.54927   0.45349   0.01930   0.00000  Uiso   1.00
C278   C     0.51056   0.47008   0.04119   0.00000  Uiso   1.00
C279   C     0.57751   0.44257   0.03846   0.00000  Uiso   1.00
C280   C     0.56916   0.44940   0.07958   0.00000  Uiso   1.00
C281   C     0.50402   0.47940   0.08207   0.00000  Uiso   1.00
C282   C     0.66043   0.50958   0.23755   0.00000  Uiso   1.00
C283   C     0.34047   0.49069   0.26209   0.00000  Uiso   1.00
C284   C     0.42406   0.53682   0.42205   0.00000  Uiso   1.00
C285   C     0.51453   0.65575   0.23703   0.00000  Uiso   1.00
C286   C     0.48549   0.34542   0.26203   0.00000  Uiso   1.00
C287   C     0.48878   0.38952   0.25939   0.00000  Uiso   1.00
C288   C     0.51027   0.61106   0.24104   0.00000  Uiso   1.00
C289   C     0.52161   0.47865   0.14397   0.00000  Uiso   1.00
C290   C     0.47829   0.52053   0.35637   0.00000  Uiso   1.00
C291   C     0.46406   0.52328   0.40000   0.00000  Uiso   1.00
C292   C     0.53201   0.46857   0.10128   0.00000  Uiso   1.00
C293   C     0.40909   0.53218   0.46243   0.00000  Uiso   1.00
C294   C     0.60004   0.43661   0.09838   0.00000  Uiso   1.00
C295   C     0.48902   0.50714   0.41935   0.00000  Uiso   1.00
C296   C     0.47361   0.50074   0.45969   0.00000  Uiso   1.00
C297   C     0.43303   0.51369   0.48109   0.00000  Uiso   1.00
C298   C     0.49740   0.48211   0.47935   0.00000  Uiso   1.00
C299   C     0.48188   0.48027   0.02104   0.00000  Uiso   1.00
C300   C     0.43835   0.48832   0.04029   0.00000  Uiso   1.00
C301   C     0.41551   0.50623   0.02049   0.00000  Uiso   1.00
H302   H     0.38281   0.51287   0.03582   0.00000  Uiso   1.00
H303   H     0.54708   0.46053   0.42688   0.00000  Uiso   1.00
H304   H     0.56560   0.65218   0.18677   0.00000  Uiso   1.00
H305   H     0.57132   0.35917   0.22038   0.00000  Uiso   1.00
H306   H     0.65934   0.41992   0.09125   0.00000  Uiso   1.00
H307   H     0.36789   0.53516   0.40813   0.00000  Uiso   1.00
H308   H     0.39211   0.58364   0.41753   0.00000  Uiso   1.00
H309   H     0.42594   0.44673   0.08226   0.00000  Uiso   1.00
H310   H     0.41151   0.49626   0.09985   0.00000  Uiso   1.00
H311   H     0.60641   0.42898   0.02108   0.00000  Uiso   1.00
H312   H     0.35016   0.52699   0.21485   0.00000  Uiso   1.00
H313   H     0.65139   0.47320   0.28504   0.00000  Uiso   1.00
H314   H     0.45914   0.66535   0.28518   0.00000  Uiso   1.00
H315   H     0.47865   0.49745   0.09945   0.00000  Uiso   1.00
H316   H     0.58952   0.43584   0.46121   0.00000  Uiso   1.00
H317   H     0.37793   0.54197   0.47898   0.00000  Uiso   1.00
H318   H     0.52046   0.49956   0.40191   0.00000  Uiso   1.00
N319   N     0.54909   0.34150   0.20671   0.00000  Uiso   1.00
N320   N     0.39769   0.55381   0.40350   0.00000  Uiso   1.00
N321   N     0.41347   0.47235   0.07682   0.00000  Uiso   1.00
O322   O     0.50000   0.50000   0.25000   0.00000  Uiso   1.00
O323   O     0.49027   0.45726   0.16625   0.00000  Uiso   1.00
O324   O     0.46020   0.53979   0.33749   0.00000  Uiso   1.00
O325   O     0.54421   0.50826   0.15877   0.00000  Uiso   1.00
O326   O     0.50532   0.49468   0.33749   0.00000  Uiso   1.00
O327   O     0.58955   0.43256   0.13368   0.00000  Uiso   1.00
O328   O     0.64135   0.42848   0.07532   0.00000  Uiso   1.00
O329   O     0.51182   0.41434   0.27821   0.00000  Uiso   1.00
O330   O     0.47914   0.59469   0.26767   0.00000  Uiso   1.00
O331   O     0.40785   0.46584   0.23607   0.00000  Uiso   1.00
O332   O     0.60119   0.52512   0.21806   0.00000  Uiso   1.00
O333   O     0.40323   0.52293   0.27820   0.00000  Uiso   1.00
O334   O     0.58773   0.48610   0.26768   0.00000  Uiso   1.00
O335   O     0.47133   0.40236   0.23607   0.00000  Uiso   1.00
O336   O     0.53771   0.58860   0.21806   0.00000  Uiso   1.00
Zn337  Zn    0.52577   0.47423   0.28278   0.00000  Uiso   1.00
Zn338  Zn    0.46792   0.45711   0.22258   0.00000  Uiso   1.00
Zn339  Zn    0.54500   0.52997   0.21188   0.00000  Uiso   1.00
Zn340  Zn    0.46131   0.53868   0.28277   0.00000  Uiso   1.00
C341   C     0.71919   0.49320   0.25871   0.00000  Uiso   1.00
C342   C     0.86901   0.46427   0.45860   0.00000  Uiso   1.00
C343   C     0.89368   0.44916   0.47829   0.00000  Uiso   1.00
C344   C     0.94778   0.50689   0.24117   0.00000  Uiso   1.00
C345   C     0.88261   0.45349   0.01930   0.00000  Uiso   1.00
C346   C     0.84390   0.47008   0.04119   0.00000  Uiso   1.00
C347   C     0.91084   0.44257   0.03846   0.00000  Uiso   1.00
C348   C     0.90249   0.44940   0.07958   0.00000  Uiso   1.00
C349   C     0.83735   0.47940   0.08207   0.00000  Uiso   1.00
C350   C     0.99376   0.50958   0.23755   0.00000  Uiso   1.00
C351   C     0.67381   0.49069   0.26209   0.00000  Uiso   1.00
C352   C     0.75740   0.53682   0.42205   0.00000  Uiso   1.00
C353   C     0.84787   0.65575   0.23703   0.00000  Uiso   1.00
C354   C     0.81883   0.34542   0.26203   0.00000  Uiso   1.00
C355   C     0.82211   0.38952   0.25939   0.00000  Uiso   1.00
C356   C     0.84361   0.61106   0.24104   0.00000  Uiso   1.00
C357   C     0.85494   0.47865   0.14397   0.00000  Uiso   1.00
C358   C     0.81162   0.52053   0.35637   0.00000  Uiso   1.00
C359   C     0.79740   0.52328   0.40000   0.00000  Uiso   1.00
C360   C     0.86534   0.46857   0.10128   0.00000  Uiso   1.00
C361   C     0.74242   0.53218   0.46243   0.00000  Uiso   1.00
C362   C     0.93338   0.43661   0.09838   0.00000  Uiso   1.00
C363   C     0.82235   0.50714   0.41935   0.00000  Uiso   1.00
C364   C     0.80695   0.50074   0.45969   0.00000  Uiso   1.00
C365   C     0.76637   0.51369   0.48109   0.00000  Uiso   1.00
C366   C     0.83074   0.48211   0.47935   0.00000  Uiso   1.00
C367   C     0.81522   0.48027   0.02104   0.00000  Uiso   1.00
C368   C     0.77168   0.48832   0.04029   0.00000  Uiso   1.00
C369   C     0.74885   0.50623   0.02049   0.00000  Uiso   1.00
H370   H     0.71614   0.51287   0.03582   0.00000  Uiso   1.00
H371   H     0.88042   0.46053   0.42688   0.00000  Uiso   1.00
H372   H     0.89893   0.65218   0.18677   0.00000  Uiso   1.00
H373   H     0.90466   0.35917   0.22038   0.00000  Uiso   1.00
H374   H     0.99267   0.41992   0.09125   0.00000  Uiso   1.00
H375   H     0.70122   0.53516   0.40813   0.00000  Uiso   1.00
H376   H     0.72545   0.58364   0.41753   0.00000  Uiso   1.00
H377   H     0.75928   0.44673   0.08226   0.00000  Uiso   1.00
H378   H     0.74484   0.49626   0.09985   0.00000  Uiso   1.00
H379   H     0.93974   0.42898   0.02108   0.00000  Uiso   1.00
H380   H     0.68350   0.52699   0.21485   0.00000  Uiso   1.00
H381   H     0.98473   0.47320   0.28504   0.00000  Uiso   1.00
H382   H     0.79248   0.66535   0.28518   0.00000  Uiso   1.00
H383   H     0.81198   0.49745   0.09945   0.00000  Uiso   1.00
H384   H     0.92285   0.43584   0.46121   0.00000  Uiso   1.00
H385   H     0.71126   0.54197   0.47898   0.00000  Uiso   1.00
H386   H     0.85379   0.49956   0.40191   0.00000  Uiso   1.00
N387   N     0.88242   0.34150   0.20671   0.00000  Uiso   1.00
N388   N     0.73102   0.55381   0.40350   0.00000  Uiso   1.00
N389   N     0.74680   0.47235   0.07682   0.00000  Uiso   1.00
O390   O     0.83333   0.50000   0.25000   0.00000  Uiso   1.00
O391   O     0.82360   0.45726   0.16625   0.00000  Uiso   1.00
O392   O     0.79354   0.53979   0.33749   0.00000  Uiso   1.00
O393   O     0.87755   0.50826   0.15877   0.00000  Uiso   1.00
O394   O     0.83865   0.49468   0.33749   0.00000  Uiso   1.00
O395   O     0.92288   0.43256   0.13368   0.00000  Uiso   1.00
O396   O     0.97468   0.42848   0.07532   0.00000  Uiso   1.00
O397   O     0.84515   0.41434   0.27821   0.00000  Uiso   1.00
O398   O     0.81247   0.59469   0.26767   0.00000  Uiso   1.00
O399   O     0.74119   0.46584   0.23607   0.00000  Uiso   1.00
O400   O     0.93452   0.52512   0.21806   0.00000  Uiso   1.00
O401   O     0.73656   0.52293   0.27820   0.00000  Uiso   1.00
O402   O     0.92106   0.48610   0.26768   0.00000  Uiso   1.00
O403   O     0.80467   0.40236   0.23607   0.00000  Uiso   1.00
O404   O     0.87104   0.58860   0.21806   0.00000  Uiso   1.00
Zn405  Zn    0.85910   0.47423   0.28278   0.00000  Uiso   1.00
Zn406  Zn    0.80125   0.45711   0.22258   0.00000  Uiso   1.00
Zn407  Zn    0.87833   0.52997   0.21188   0.00000  Uiso   1.00
Zn408  Zn    0.79465   0.53868   0.28277   0.00000  Uiso   1.00
C409   C     0.05252   0.82654   0.25871   0.00000  Uiso   1.00
C410   C     0.20235   0.79761   0.45860   0.00000  Uiso   1.00
C411   C     0.22701   0.78250   0.47829   0.00000  Uiso   1.00
C412   C     0.28111   0.84023   0.24117   0.00000  Uiso   1.00
C413   C     0.21594   0.78682   0.01930   0.00000  Uiso   1.00
C414   C     0.17723   0.80342   0.04119   0.00000  Uiso   1.00
C415   C     0.24418   0.77590   0.03846   0.00000  Uiso   1.00
C416   C     0.23582   0.78273   0.07958   0.00000  Uiso   1.00
C417   C     0.17069   0.81274   0.08207   0.00000  Uiso   1.00
C418   C     0.32710   0.84292   0.23755   0.00000  Uiso   1.00
C419   C     0.00714   0.82402   0.26209   0.00000  Uiso   1.00
C420   C     0.09073   0.87016   0.42205   0.00000  Uiso   1.00
C421   C     0.18120   0.98908   0.23703   0.00000  Uiso   1.00
C422   C     0.15216   0.67875   0.26203   0.00000  Uiso   1.00
C423   C     0.15545   0.72285   0.25939   0.00000  Uiso   1.00
C424   C     0.17694   0.94440   0.24104   0.00000  Uiso   1.00
C425   C     0.18827   0.81198   0.14397   0.00000  Uiso   1.00
C426   C     0.14496   0.85386   0.35637   0.00000  Uiso   1.00
C427   C     0.13073   0.85661   0.40000   0.00000  Uiso   1.00
C428   C     0.19868   0.80190   0.10128   0.00000  Uiso   1.00
C429   C     0.07576   0.86551   0.46243   0.00000  Uiso   1.00
C430   C     0.26671   0.76995   0.09838   0.00000  Uiso   1.00
C431   C     0.15569   0.84047   0.41935   0.00000  Uiso   1.00
C432   C     0.14028   0.83408   0.45969   0.00000  Uiso   1.00
C433   C     0.09970   0.84702   0.48109   0.00000  Uiso   1.00
C434   C     0.16407   0.81544   0.47935   0.00000  Uiso   1.00
C435   C     0.14855   0.81361   0.02104   0.00000  Uiso   1.00
C436   C     0.10501   0.82165   0.04029   0.00000  Uiso   1.00
C437   C     0.08218   0.83957   0.02049   0.00000  Uiso   1.00
H438   H     0.04947   0.84620   0.03582   0.00000  Uiso   1.00
H439   H     0.21375   0.79386   0.42688   0.00000  Uiso   1.00
H440   H     0.23227   0.98552   0.18677   0.00000  Uiso   1.00
H441   H     0.23799   0.69250   0.22038   0.00000  Uiso   1.00
H442   H     0.32600   0.75325   0.09125   0.00000  Uiso   1.00
H443   H     0.03455   0.86849   0.40813   0.00000  Uiso   1.00
H444   H     0.05878   0.91698   0.41753   0.00000  Uiso   1.00
H445   H     0.09261   0.78006   0.08226   0.00000  Uiso   1.00
H446   H     0.07818   0.82960   0.09985   0.00000  Uiso   1.00
H447   H     0.27307   0.76231   0.02108   0.00000  Uiso   1.00
H448   H     0.01683   0.86032   0.21485   0.00000  Uiso   1.00
H449   H     0.31806   0.80653   0.28504   0.00000  Uiso   1.00
H450   H     0.12581   0.99868   0.28518   0.00000  Uiso   1.00
H451   H     0.14532   0.83078   0.09945   0.00000  Uiso   1.00
H452   H     0.25618   0.76917   0.46121   0.00000  Uiso   1.00
H453   H     0.04460   0.87531   0.47898   0.00000  Uiso   1.00
H454   H     0.18712   0.83289   0.40191   0.00000  Uiso   1.00
N455   N     0.21576   0.67483   0.20671   0.00000  Uiso   1.00
N456   N     0.06436   0.88714   0.40350   0.00000  Uiso   1.00
N457   N     0.08013   0.80568   0.07682   0.00000  Uiso   1.00
O458   O     0.16667   0.83333   0.25000   0.00000  Uiso   1.00
O459   O     0.15693   0.79060   0.16625   0.00000  Uiso   1.00
O460   O     0.12687   0.87313   0.33749   0.00000  Uiso   1.00
O461   O     0.21088   0.84159   0.15877   0.00000  Uiso   1.00
O462   O     0.17198   0.82802   0.33749   0.00000  Uiso   1.00
O463   O     0.25622   0.76590   0.13368   0.00000  Uiso   1.00
O464   O     0.30801   0.76182   0.07532   0.00000  Uiso   1.00
O465   O     0.17849   0.74768   0.27821   0.00000  Uiso   1.00
O466   O     0.14581   0.92803   0.26767   0.00000  Uiso   1.00
O467   O     0.07452   0.79917   0.23607   0.00000  Uiso   1.00
O468   O     0.26785   0.85845   0.21806   0.00000  Uiso   1.00
O469   O     0.06990   0.85627   0.27820   0.00000  Uiso   1.00
O470   O     0.25440   0.81944   0.26768   0.00000  Uiso   1.00
O471   O     0.13800   0.73570   0.23607   0.00000  Uiso   1.00
O472   O     0.20437   0.92193   0.21806   0.00000  Uiso   1.00
Zn473  Zn    0.19244   0.80756   0.28278   0.00000  Uiso   1.00
Zn474  Zn    0.13459   0.79044   0.22258   0.00000  Uiso   1.00
Zn475  Zn    0.21166   0.86331   0.21188   0.00000  Uiso   1.00
Zn476  Zn    0.12798   0.87202   0.28277   0.00000  Uiso   1.00
C477   C     0.38585   0.82654   0.25871   0.00000  Uiso   1.00
C478   C     0.53568   0.79761   0.45860   0.00000  Uiso   1.00
C479   C     0.56035   0.78250   0.47829   0.00000  Uiso   1.00
C480   C     0.61444   0.84023   0.24117   0.00000  Uiso   1.00
C481   C     0.54927   0.78682   0.01930   0.00000  Uiso   1.00
C482   C     0.51056   0.80342   0.04119   0.00000  Uiso   1.00
C483   C     0.57751   0.77590   0.03846   0.00000  Uiso   1.00
C484   C     0.56916   0.78273   0.07958   0.00000  Uiso   1.00
C485   C     0.50402   0.81274   0.08207   0.00000  Uiso   1.00
C486   C     0.66043   0.84292   0.23755   0.00000  Uiso   1.00
C487   C     0.34047   0.82402   0.26209   0.00000  Uiso   1.00
C488   C     0.42406   0.87016   0.42205   0.00000  Uiso   1.00
C489   C     0.51453   0.98908   0.23703   0.00000  Uiso   1.00
C490   C     0.48549   0.67875   0.26203   0.00000  Uiso   1.00
C491   C     0.48878   0.72285   0.25939   0.00000  Uiso   1.00
C492   C     0.51027   0.94440   0.24104   0.00000  Uiso   1.00
C493   C     0.52161   0.81198   0.14397   0.00000  Uiso   1.00
C494   C     0.47829   0.85386   0.35637   0.00000  Uiso   1.00
C495   C     0.46406   0.85661   0.40000   0.00000  Uiso   1.00
C496   C     0.53201   0.80190   0.10128   0.00000  Uiso   1.00
C497   C     0.40909   0.86551   0.46243   0.00000  Uiso   1.00
C498   C     0.60004   0.76995   0.09838   0.00000  Uiso   1.00
C499   C     0.48902   0.84047   0.41935   0.00000  Uiso   1.00
C500   C     0.47361   0.83408   0.45969   0.00000  Uiso   1.00
C501   C     0.43303   0.84702   0.48109   0.00000  Uiso   1.00
C502   C     0.49740   0.81544   0.47935   0.00000  Uiso   1.00
C503   C     0.48188   0.81361   0.02104   0.00000  Uiso   1.00
C504   C     0.43835   0.82165   0.04029   0.00000  Uiso   1.00
C505   C     0.41551   0.83957   0.02049   0.00000  Uiso   1.00
H506   H     0.38281   0.84620   0.03582   0.00000  Uiso   1.00
H507   H     0.54708   0.79386   0.42688   0.00000  Uiso   1.00
H508   H     0.56560   0.98552   0.18677   0.00000  Uiso   1.00
H509   H     0.57132   0.69250   0.22038   0.00000  Uiso   1.00
H510   H     0.65934   0.75325   0.09125   0.00000  Uiso   1.00
H511   H     0.36789   0.86849   0.40813   0.00000  Uiso   1.00
H512   H     0.39211   0.91698   0.41753   0.00000  Uiso   1.00
H513   H     0.42594   0.78006   0.08226   0.00000  Uiso   1.00
H514   H     0.41151   0.82960   0.09985   0.00000  Uiso   1.00
H515   H     0.60641   0.76231   0.02108   0.00000  Uiso   1.00
H516   H     0.35016   0.86032   0.21485   0.00000  Uiso   1.00
H517   H     0.65139   0.80653   0.28504   0.00000  Uiso   1.00
H518   H     0.45914   0.99868   0.28518   0.00000  Uiso   1.00
H519   H     0.47865   0.83078   0.09945   0.00000  Uiso   1.00
H520   H     0.58952   0.76917   0.46121   0.00000  Uiso   1.00
H521   H     0.37793   0.87531   0.47898   0.00000  Uiso   1.00
H522   H     0.52046   0.83289   0.40191   0.00000  Uiso   1.00
N523   N     0.54909   0.67483   0.20671   0.00000  Uiso   1.00
N524   N     0.39769   0.88714   0.40350   0.00000  Uiso   1.00
N525   N     0.41347   0.80568   0.07682   0.00000  Uiso   1.00
O526   O     0.50000   0.83333   0.25000   0.00000  Uiso   1.00
O527   O     0.49027   0.79060   0.16625   0.00000  Uiso   1.00
O528   O     0.46020   0.87313   0.33749   0.00000  Uiso   1.00
O529   O     0.54421   0.84159   0.15877   0.00000  Uiso   1.00
O530   O     0.50532   0.82802   0.33749   0.00000  Uiso   1.00
O531   O     0.58955   0.76590   0.13368   0.00000  Uiso   1.00
O532   O     0.64135   0.76182   0.07532   0.00000  Uiso   1.00
O533   O     0.51182   0.74768   0.27821   0.00000  Uiso   1.00
O534   O     0.47914   0.92803   0.26767   0.00000  Uiso   1.00
O535   O     0.40785   0.79917   0.23607   0.00000  Uiso   1.00
O536   O     0.60119   0.85845   0.21806   0.00000  Uiso   1.00
O537   O     0.40323   0.85627   0.27820   0.00000  Uiso   1.00
O538   O     0.58773   0.81944   0.26768   0.00000  Uiso   1.00
O539   O     0.47133   0.73570   0.23607   0.00000  Uiso   1.00
O540   O     0.53771   0.92193   0.21806   0.00000  Uiso   1.00
Zn541  Zn    0.52577   0.80756   0.28278   0.00000  Uiso   1.00
Zn542  Zn    0.46792   0.79044   0.22258   0.00000  Uiso   1.00
Zn543  Zn    0.54500   0.86331   0.21188   0.00000  Uiso   1.00
Zn544  Zn    0.46131   0.87202   0.28277   0.00000  Uiso   1.00
C545   C     0.71919   0.82654   0.25871   0.00000  Uiso   1.00
C546   C     0.86901   0.79761   0.45860   0.00000  Uiso   1.00
C547   C     0.89368   0.78250   0.47829   0.00000  Uiso   1.00
C548   C     0.94778   0.84023   0.24117   0.00000  Uiso   1.00
C549   C     0.88261   0.78682   0.01930   0.00000  Uiso   1.00
C550   C     0.84390   0.80342   0.04119   0.00000  Uiso   1.00
C551   C     0.91084   0.77590   0.03846   0.00000  Uiso   1.00
C552   C     0.90249   0.78273   0.07958   0.00000  Uiso   1.00
C553   C     0.83735   0.81274   0.08207   0.00000  Uiso   1.00
C554   C     0.99376   0.84292   0.23755   0.00000  Uiso   1.00
C555   C     0.67381   0.82402   0.26209   0.00000  Uiso   1.00
C556   C     0.75740   0.87016   0.42205   0.00000  Uiso   1.00
C557   C     0.84787   0.98908   0.23703   0.00000  Uiso   1.00
C558   C     0.81883   0.67875   0.26203   0.00000  Uiso   1.00
C559   C     0.82211   0.72285   0.25939   0.00000  Uiso   1.00
C560   C     0.84361   0.94440   0.24104   0.00000  Uiso   1.00
C561   C     0.85494   0.81198   0.14397   0.00000  Uiso   1.00
C562   C     0.81162   0.85386   0.35637   0.00000  Uiso   1.00
C563   C     0.79740   0.85661   0.40000   0.00000  Uiso   1.00
C564   C     0.86534   0.80190   0.10128   0.00000  Uiso   1.00
C565   C     0.74242   0.86551   0.46243   0.00000  Uiso   1.00
C566   C     0.93338   0.76995   0.09838   0.00000  Uiso   1.00
C567   C     0.82235   0.84047   0.41935   0.00000  Uiso   1.00
C568   C     0.80695   0.83408   0.45969   0.00000  Uiso   1.00
C569   C     0.76637   0.84702   0.48109   0.00000  Uiso   1.00
C570   C     0.83074   0.81544   0.47935   0.00000  Uiso   1.00
C571   C     0.81522   0.81361   0.02104   0.00000  Uiso   1.00
C572   C     0.77168   0.82165   0.04029   0.00000  Uiso   1.00
C573   C     0.74885   0.83957   0.02049   0.00000  Uiso   1.00
H574   H     0.71614   0.84620   0.03582   0.00000  Uiso   1.00
H575   H     0.88042   0.79386   0.42688   0.00000  Uiso   1.00
H576   H     0.89893   0.98552   0.18677   0.00000  Uiso   1.00
H577   H     0.90466   0.69250   0.22038   0.00000  Uiso   1.00
H578   H     0.99267   0.75325   0.09125   0.00000  Uiso   1.00
H579   H     0.70122   0.86849   0.40813   0.00000  Uiso   1.00
H580   H     0.72545   0.91698   0.41753   0.00000  Uiso   1.00
H581   H     0.75928   0.78006   0.08226   0.00000  Uiso   1.00
H582   H     0.74484   0.82960   0.09985   0.00000  Uiso   1.00
H583   H     0.93974   0.76231   0.02108   0.00000  Uiso   1.00
H584   H     0.68350   0.86032   0.21485   0.00000  Uiso   1.00
H585   H     0.98473   0.80653   0.28504   0.00000  Uiso   1.00
H586   H     0.79248   0.99868   0.28518   0.00000  Uiso   1.00
H587   H     0.81198   0.83078   0.09945   0.00000  Uiso   1.00
H588   H     0.92285   0.76917   0.46121   0.00000  Uiso   1.00
H589   H     0.71126   0.87531   0.47898   0.00000  Uiso   1.00
H590   H     0.85379   0.83289   0.40191   0.00000  Uiso   1.00
N591   N     0.88242   0.67483   0.20671   0.00000  Uiso   1.00
N592   N     0.73102   0.88714   0.40350   0.00000  Uiso   1.00
N593   N     0.74680   0.80568   0.07682   0.00000  Uiso   1.00
O594   O     0.83333   0.83333   0.25000   0.00000  Uiso   1.00
O595   O     0.82360   0.79060   0.16625   0.00000  Uiso   1.00
O596   O     0.79354   0.87313   0.33749   0.00000  Uiso   1.00
O597   O     0.87755   0.84159   0.15877   0.00000  Uiso   1.00
O598   O     0.83865   0.82802   0.33749   0.00000  Uiso   1.00
O599   O     0.92288   0.76590   0.13368   0.00000  Uiso   1.00
O600   O     0.97468   0.76182   0.07532   0.00000  Uiso   1.00
O601   O     0.84515   0.74768   0.27821   0.00000  Uiso   1.00
O602   O     0.81247   0.92803   0.26767   0.00000  Uiso   1.00
O603   O     0.74119   0.79917   0.23607   0.00000  Uiso   1.00
O604   O     0.93452   0.85845   0.21806   0.00000  Uiso   1.00
O605   O     0.73656   0.85627   0.27820   0.00000  Uiso   1.00
O606   O     0.92106   0.81944   0.26768   0.00000  Uiso   1.00
O607   O     0.80467   0.73570   0.23607   0.00000  Uiso   1.00
O608   O     0.87104   0.92193   0.21806   0.00000  Uiso   1.00
Zn609  Zn    0.85910   0.80756   0.28278   0.00000  Uiso   1.00
Zn610  Zn    0.80125   0.79044   0.22258   0.00000  Uiso   1.00
Zn611  Zn    0.87833   0.86331   0.21188   0.00000  Uiso   1.00
Zn612  Zn    0.79465   0.87202   0.28277   0.00000  Uiso   1.00
C613   C     0.05252   0.15987   0.75871   0.00000  Uiso   1.00
C614   C     0.20235   0.13094   0.95860   0.00000  Uiso   1.00
C615   C     0.22701   0.11583   0.97829   0.00000  Uiso   1.00
C616   C     0.28111   0.17356   0.74117   0.00000  Uiso   1.00
C617   C     0.21594   0.12016   0.51930   0.00000  Uiso   1.00
C618   C     0.17723   0.13675   0.54119   0.00000  Uiso   1.00
C619   C     0.24418   0.10924   0.53846   0.00000  Uiso   1.00
C620   C     0.23582   0.11606   0.57958   0.00000  Uiso   1.00
C621   C     0.17069   0.14607   0.58207   0.00000  Uiso   1.00
C622   C     0.32710   0.17625   0.73755   0.00000  Uiso   1.00
C623   C     0.00714   0.15736   0.76209   0.00000  Uiso   1.00
C624   C     0.09073   0.20349   0.92205   0.00000  Uiso   1.00
C625   C     0.18120   0.32242   0.73703   0.00000  Uiso   1.00
C626   C     0.15216   0.01209   0.76203   0.00000  Uiso   1.00
C627   C     0.15545   0.05619   0.75939   0.00000  Uiso   1.00
C628   C     0.17694   0.27773   0.74104   0.00000  Uiso   1.00
C629   C     0.18827   0.14531   0.64397   0.00000  Uiso   1.00
C630   C     0.14496   0.18719   0.85637   0.00000  Uiso   1.00
C631   C     0.13073   0.18994   0.90000   0.00000  Uiso   1.00
C632   C     0.19868   0.13524   0.60128   0.00000  Uiso   1.00
C633   C     0.07576   0.19884   0.96243   0.00000  Uiso   1.00
C634   C     0.26671   0.10328   0.59838   0.00000  Uiso   1.00
C635   C     0.15569   0.17381   0.91935   0.00000  Uiso   1.00
C636   C     0.14028   0.16741   0.95969   0.00000  Uiso   1.00
C637   C     0.09970   0.18035   0.98109   0.00000  Uiso   1.00
C638   C     0.16407   0.14878   0.97935   0.00000  Uiso   1.00
C639   C     0.14855   0.14694   0.52104   0.00000  Uiso   1.00
C640   C     0.10501   0.15498   0.54029   0.00000  Uiso   1.00
C641   C     0.08218   0.17290   0.52049   0.00000  Uiso   1.00
H642   H     0.04947   0.17953   0.53582   0.00000  Uiso   1.00
H643   H     0.21375   0.12720   0.92688   0.00000  Uiso   1.00
H644   H     0.23227   0.31885   0.68677   0.00000  Uiso   1.00
H645   H     0.23799   0.02583   0.72038   0.00000  Uiso   1.00
H646   H     0.32600   0.08658   0.59125   0.00000  Uiso   1.00
H647   H     0.03455   0.20182   0.90813   0.00000  Uiso   1.00
H648   H     0.05878   0.25031   0.91753   0.00000  Uiso   1.00
H649   H     0.09261   0.11340   0.58226   0.00000  Uiso   1.00
H650   H     0.07818   0.16293   0.59985   0.00000  Uiso   1.00
H651   H     0.27307   0.09564   0.52108   0.00000  Uiso   1.00
H652   H     0.01683   0.19366   0.71485   0.00000  Uiso   1.00
H653   H     0.31806   0.13987   0.78504   0.00000  Uiso   1.00
H654   H     0.12581   0.33201   0.78518   0.00000  Uiso   1.00
H655   H     0.14532   0.16411   0.59945   0.00000  Uiso   1.00
H656   H     0.25618   0.10251   0.96121   0.00000  Uiso   1.00
H657   H     0.04460   0.20864   0.97898   0.00000  Uiso   1.00
H658   H     0.18712   0.16623   0.90191   0.00000  Uiso   1.00
N659   N     0.21576   0.00816   0.70671   0.00000  Uiso   1.00
N660   N     0.06436   0.22048   0.90350   0.00000  Uiso   1.00
N661   N     0.08013   0.13902   0.57682   0.00000  Uiso   1.00
O662   O     0.16667   0.16667   0.75000   0.00000  Uiso   1.00
O663   O     0.15693   0.12393   0.66625   0.00000  Uiso   1.00
O664   O     0.12687   0.20646   0.83749   0.00000  Uiso   1.00
O665   O     0.21088   0.17493   0.65877   0.00000  Uiso   1.00
O666   O     0.17198   0.16135   0.83749   0.00000  Uiso   1.00
O667   O     0.25622   0.09923   0.63368   0.00000  Uiso   1.00
O668   O     0.30801   0.09515   0.57532   0.00000  Uiso   1.00
O669   O     0.17849   0.08101   0.77821   0.00000  Uiso   1.00
O670   O     0.14581   0.26136   0.76767   0.00000  Uiso   1.00
O671   O     0.07452   0.13251   0.73607   0.00000  Uiso   1.00
O672   O     0.26785   0.19179   0.71806   0.00000  Uiso   1.00
O673   O     0.06990   0.18960   0.77820   0.00000  Uiso   1.00
O674   O     0.25440   0.15277   0.76768   0.00000  Uiso   1.00
O675   O     0.13800   0.06903   0.73607   0.00000  Uiso   1.00
O676   O     0.20437   0.25527   0.71806   0.00000  Uiso   1.00
Zn677  Zn    0.19244   0.14090   0.78278   0.00000  Uiso   1.00
Zn678  Zn    0.13459   0.12378   0.72258   0.00000  Uiso   1.00
Zn679  Zn    0.21166   0.19664   0.71188   0.00000  Uiso   1.00
Zn680  Zn    0.12798   0.20535   0.78277   0.00000  Uiso   1.00
C681   C     0.38585   0.15987   0.75871   0.00000  Uiso   1.00
C682   C     0.53568   0.13094   0.95860   0.00000  Uiso   1.00
C683   C     0.56035   0.11583   0.97829   0.00000  Uiso   1.00
C684   C     0.61444   0.17356   0.74117   0.00000  Uiso   1.00
C685   C     0.54927   0.12016   0.51930   0.00000  Uiso   1.00
C686   C     0.51056   0.13675   0.54119   0.00000  Uiso   1.00
C687   C     0.57751   0.10924   0.53846   0.00000  Uiso   1.00
C688   C     0.56916   0.11606   0.57958   0.00000  Uiso   1.00
C689   C     0.50402   0.14607   0.58207   0.00000  Uiso   1.00
C690   C     0.66043   0.17625   0.73755   0.00000  Uiso   1.00
C691   C     0.34047   0.15736   0.76209   0.00000  Uiso   1.00
C692   C     0.42406   0.20349   0.92205   0.00000  Uiso   1.00
C693   C     0.51453   0.32242   0.73703   0.00000  Uiso   1.00
C694   C     0.48549   0.01209   0.76203   0.00000  Uiso   1.00
C695   C     0.48878   0.05619   0.75939   0.00000  Uiso   1.00
C696   C     0.51027   0.27773   0.74104   0.00000  Uiso   1.00
C697   C     0.52161   0.14531   0.64397   0.00000  Uiso   1.00
C698   C     0.47829   0.18719   0.85637   0.00000  Uiso   1.00
C699   C     0.46406   0.18994   0.90000   0.00000  Uiso   1.00
C700   C     0.53201   0.13524   0.60128   0.00000  Uiso   1.00
C701   C     0.40909   0.19884   0.96243   0.00000  Uiso   1.00
C702   C     0.60004   0.10328   0.59838   0.00000  Uiso   1.00
C703   C     0.48902   0.17381   0.91935   0.00000  Uiso   1.00
C704   C     0.47361   0.16741   0.95969   0.00000  Uiso   1.00
C705   C     0.43303   0.18035   0.98109   0.00000  Uiso   1.00
C706   C     0.49740   0.14878   0.97935   0.00000  Uiso   1.00
C707   C     0.48188   0.14694   0.52104   0.00000  Uiso   1.00
C708   C     0.43835   0.15498   0.54029   0.00000  Uiso   1.00
C709   C     0.41551   0.17290   0.52049   0.00000  Uiso   1.00
H710   H     0.38281   0.17953   0.53582   0.00000  Uiso   1.00
H711   H     0.54708   0.12720   0.92688   0.00000  Uiso   1.00
H712   H     0.56560   0.31885   0.68677   0.00000  Uiso   1.00
H713   H     0.57132   0.02583   0.72038   0.00000  Uiso   1.00
H714   H     0.65934   0.08658   0.59125   0.00000  Uiso   1.00
H715   H     0.36789   0.20182   0.90813   0.00000  Uiso   1.00
H716   H     0.39211   0.25031   0.91753   0.00000  Uiso   1.00
H717   H     0.42594   0.11340   0.58226   0.00000  Uiso   1.00
H718   H     0.41151   0.16293   0.59985   0.00000  Uiso   1.00
H719   H     0.60641   0.09564   0.52108   0.00000  Uiso   1.00
H720   H     0.35016   0.19366   0.71485   0.00000  Uiso   1.00
H721   H     0.65139   0.13987   0.78504   0.00000  Uiso   1.00
H722   H     0.45914   0.33201   0.78518   0.00000  Uiso   1.00
H723   H     0.47865   0.16411   0.59945   0.00000  Uiso   1.00
H724   H     0.58952   0.10251   0.96121   0.00000  Uiso   1.00
H725   H     0.37793   0.20864   0.97898   0.00000  Uiso   1.00
H726   H     0.52046   0.16623   0.90191   0.00000  Uiso   1.00
N727   N     0.54909   0.00816   0.70671   0.00000  Uiso   1.00
N728   N     0.39769   0.22048   0.90350   0.00000  Uiso   1.00
N729   N     0.41347   0.13902   0.57682   0.00000  Uiso   1.00
O730   O     0.50000   0.16667   0.75000   0.00000  Uiso   1.00
O731   O     0.49027   0.12393   0.66625   0.00000  Uiso   1.00
O732   O     0.46020   0.20646   0.83749   0.00000  Uiso   1.00
O733   O     0.54421   0.17493   0.65877   0.00000  Uiso   1.00
O734   O     0.50532   0.16135   0.83749   0.00000  Uiso   1.00
O735   O     0.58955   0.09923   0.63368   0.00000  Uiso   1.00
O736   O     0.64135   0.09515   0.57532   0.00000  Uiso   1.00
O737   O     0.51182   0.08101   0.77821   0.00000  Uiso   1.00
O738   O     0.47914   0.26136   0.76767   0.00000  Uiso   1.00
O739   O     0.40785   0.13251   0.73607   0.00000  Uiso   1.00
O740   O     0.60119   0.19179   0.71806   0.00000  Uiso   1.00
O741   O     0.40323   0.18960   0.77820   0.00000  Uiso   1.00
O742   O     0.58773   0.15277   0.76768   0.00000  Uiso   1.00
O743   O     0.47133   0.06903   0.73607   0.00000  Uiso   1.00
O744   O     0.53771   0.25527   0.71806   0.00000  Uiso   1.00
Zn745  Zn    0.52577   0.14090   0.78278   0.00000  Uiso   1.00
Zn746  Zn    0.46792   0.12378   0.72258   0.00000  Uiso   1.00
Zn747  Zn    0.54500   0.19664   0.71188   0.00000  Uiso   1.00
Zn748  Zn    0.46131   0.20535   0.78277   0.00000  Uiso   1.00
C749   C     0.71919   0.15987   0.75871   0.00000  Uiso   1.00
C750   C     0.86901   0.13094   0.95860   0.00000  Uiso   1.00
C751   C     0.89368   0.11583   0.97829   0.00000  Uiso   1.00
C752   C     0.94778   0.17356   0.74117   0.00000  Uiso   1.00
C753   C     0.88261   0.12016   0.51930   0.00000  Uiso   1.00
C754   C     0.84390   0.13675   0.54119   0.00000  Uiso   1.00
C755   C     0.91084   0.10924   0.53846   0.00000  Uiso   1.00
C756   C     0.90249   0.11606   0.57958   0.00000  Uiso   1.00
C757   C     0.83735   0.14607   0.58207   0.00000  Uiso   1.00
C758   C     0.99376   0.17625   0.73755   0.00000  Uiso   1.00
C759   C     0.67381   0.15736   0.76209   0.00000  Uiso   1.00
C760   C     0.75740   0.20349   0.92205   0.00000  Uiso   1.00
C761   C     0.84787   0.32242   0.73703   0.00000  Uiso   1.00
C762   C     0.81883   0.01209   0.76203   0.00000  Uiso   1.00
C763   C     0.82211   0.05619   0.75939   0.00000  Uiso   1.00
C764   C     0.84361   0.27773   0.74104   0.00000  Uiso   1.00
C765   C     0.85494   0.14531   0.64397   0.00000  Uiso   1.00
C766   C     0.81162   0.18719   0.85637   0.00000  Uiso   1.00
C767   C     0.79740   0.18994   0.90000   0.00000  Uiso   1.00
C768   C     0.86534   0.13524   0.60128   0.00000  Uiso   1.00
C769   C     0.74242   0.19884   0.96243   0.00000  Uiso   1.00
C770   C     0.93338   0.10328   0.59838   0.00000  Uiso   1.00
C771   C     0.82235   0.17381   0.91935   0.00000  Uiso   1.00
C772   C     0.80695   0.16741   0.95969   0.00000  Uiso   1.00
C773   C     0.76637   0.18035   0.98109   0.00000  Uiso   1.00
C774   C     0.83074   0.14878   0.97935   0.00000  Uiso   1.00
C775   C     0.81522   0.14694   0.52104   0.00000  Uiso   1.00
C776   C     0.77168   0.15498   0.54029   0.00000  Uiso   1.00
C777   C     0.74885   0.17290   0.52049   0.00000  Uiso   1.00
H778   H     0.71614   0.17953   0.53582   0.00000  Uiso   1.00
H779   H     0.88042   0.12720   0.92688   0.00000  Uiso   1.00
H780   H     0.89893   0.31885   0.68677   0.00000  Uiso   1.00
H781   H     0.90466   0.02583   0.72038   0.00000  Uiso   1.00
H782   H     0.99267   0.08658   0.59125   0.00000  Uiso   1.00
H783   H     0.70122   0.20182   0.90813   0.00000  Uiso   1.00
H784   H     0.72545   0.25031   0.91753   0.00000  Uiso   1.00
H785   H     0.75928   0.11340   0.58226   0.00000  Uiso   1.00
H786   H     0.74484   0.16293   0.59985   0.00000  Uiso   1.00
H787   H     0.93974   0.09564   0.52108   0.00000  Uiso   1.00
H788   H     0.68350   0.19366   0.71485   0.00000  Uiso   1.00
H789   H     0.98473   0.13987   0.78504   0.00000  Uiso   1.00
H790   H     0.79248   0.33201   0.78518   0.00000  Uiso   1.00
H791   H     0.81198   0.16411   0.59945   0.00000  Uiso   1.00
H792   H     0.92285   0.10251   0.96121   0.00000  Uiso   1.00
H793   H     0.71126   0.20864   0.97898   0.00000  Uiso   1.00
H794   H     0.85379   0.16623   0.90191   0.00000  Uiso   1.00
N795   N     0.88242   0.00816   0.70671   0.00000  Uiso   1.00
N796   N     0.73102   0.22048   0.90350   0.00000  Uiso   1.00
N797   N     0.74680   0.13902   0.57682   0.00000  Uiso   1.00
O798   O     0.83333   0.16667   0.75000   0.00000  Uiso   1.00
O799   O     0.82360   0.12393   0.66625   0.00000  Uiso   1.00
O800   O     0.79354   0.20646   0.83749   0.00000  Uiso   1.00
O801   O     0.87755   0.17493   0.65877   0.00000  Uiso   1.00
O802   O     0.83865   0.16135   0.83749   0.00000  Uiso   1.00
O803   O     0.92288   0.09923   0.63368   0.00000  Uiso   1.00
O804   O     0.97468   0.09515   0.57532   0.00000  Uiso   1.00
O805   O     0.84515   0.08101   0.77821   0.00000  Uiso   1.00
O806   O     0.81247   0.26136   0.76767   0.00000  Uiso   1.00
O807   O     0.74119   0.13251   0.73607   0.00000  Uiso   1.00
O808   O     0.93452   0.19179   0.71806   0.00000  Uiso   1.00
O809   O     0.73656   0.18960   0.77820   0.00000  Uiso   1.00
O810   O     0.92106   0.15277   0.76768   0.00000  Uiso   1.00
O811   O     0.80467   0.06903   0.73607   0.00000  Uiso   1.00
O812   O     0.87104   0.25527   0.71806   0.00000  Uiso   1.00
Zn813  Zn    0.85910   0.14090   0.78278   0.00000  Uiso   1.00
Zn814  Zn    0.80125   0.12378   0.72258   0.00000  Uiso   1.00
Zn815  Zn    0.87833   0.19664   0.71188   0.00000  Uiso   1.00
Zn816  Zn    0.79465   0.20535   0.78277   0.00000  Uiso   1.00
C817   C     0.05252   0.49320   0.75871   0.00000  Uiso   1.00
C818   C     0.20235   0.46427   0.95860   0.00000  Uiso   1.00
C819   C     0.22701   0.44916   0.97829   0.00000  Uiso   1.00
C820   C     0.28111   0.50689   0.74117   0.00000  Uiso   1.00
C821   C     0.21594   0.45349   0.51930   0.00000  Uiso   1.00
C822   C     0.17723   0.47008   0.54119   0.00000  Uiso   1.00
C823   C     0.24418   0.44257   0.53846   0.00000  Uiso   1.00
C824   C     0.23582   0.44940   0.57958   0.00000  Uiso   1.00
C825   C     0.17069   0.47940   0.58207   0.00000  Uiso   1.00
C826   C     0.32710   0.50958   0.73755   0.00000  Uiso   1.00
C827   C     0.00714   0.49069   0.76209   0.00000  Uiso   1.00
C828   C     0.09073   0.53682   0.92205   0.00000  Uiso   1.00
C829   C     0.18120   0.65575   0.73703   0.00000  Uiso   1.00
C830   C     0.15216   0.34542   0.76203   0.00000  Uiso   1.00
C831   C     0.15545   0.38952   0.75939   0.00000  Uiso   1.00
C832   C     0.17694   0.61106   0.74104   0.00000  Uiso   1.00
C833   C     0.18827   0.47865   0.64397   0.00000  Uiso   1.00
C834   C     0.14496   0.52053   0.85637   0.00000  Uiso   1.00
C835   C     0.13073   0.52328   0.90000   0.00000  Uiso   1.00
C836   C     0.19868   0.46857   0.60128   0.00000  Uiso   1.00
C837   C     0.07576   0.53218   0.96243   0.00000  Uiso   1.00
C838   C     0.26671   0.43661   0.59838   0.00000  Uiso   1.00
C839   C     0.15569   0.50714   0.91935   0.00000  Uiso   1.00
C840   C     0.14028   0.50074   0.95969   0.00000  Uiso   1.00
C841   C     0.09970   0.51369   0.98109   0.00000  Uiso   1.00
C842   C     0.16407   0.48211   0.97935   0.00000  Uiso   1.00
C843   C     0.14855   0.48027   0.52104   0.00000  Uiso   1.00
C844   C     0.10501   0.48832   0.54029   0.00000  Uiso   1.00
C845   C     0.08218   0.50623   0.52049   0.00000  Uiso   1.00
H846   H     0.04947   0.51287   0.53582   0.00000  Uiso   1.00
H847   H     0.21375   0.46053   0.92688   0.00000  Uiso   1.00
H848   H     0.23227   0.65218   0.68677   0.00000  Uiso   1.00
H849   H     0.23799   0.35917   0.72038   0.00000  Uiso   1.00
H850   H     0.32600   0.41992   0.59125   0.00000  Uiso   1.00
H851   H     0.03455   0.53516   0.90813   0.00000  Uiso   1.00
H852   H     0.05878   0.58364   0.91753   0.00000  Uiso   1.00
H853   H     0.09261   0.44673   0.58226   0.00000  Uiso   1.00
H854   H     0.07818   0.49626   0.59985   0.00000  Uiso   1.00
H855   H     0.27307   0.42898   0.52108   0.00000  Uiso   1.00
H856   H     0.01683   0.52699   0.71485   0.00000  Uiso   1.00
H857   H     0.31806   0.47320   0.78504   0.00000  Uiso   1.00
H858   H     0.12581   0.66535   0.78518   0.00000  Uiso   1.00
H859   H     0.14532   0.49745   0.59945   0.00000  Uiso   1.00
H860   H     0.25618   0.43584   0.96121   0.00000  Uiso   1.00
H861   H     0.04460   0.54197   0.97898   0.00000  Uiso   1.00
H862   H     0.18712   0.49956   0.90191   0.00000  Uiso   1.00
N863   N     0.21576   0.34150   0.70671   0.00000  Uiso   1.00
N864   N     0.06436   0.55381   0.90350   0.00000  Uiso   1.00
N865   N     0.08013   0.47235   0.57682   0.00000  Uiso   1.00
O866   O     0.16667   0.50000   0.75000   0.00000  Uiso   1.00
O867   O     0.15693   0.45726   0.66625   0.00000  Uiso   1.00
O868   O     0.12687   0.53979   0.83749   0.00000  Uiso   1.00
O869   O     0.21088   0.50826   0.65877   0.00000  Uiso   1.00
O870   O     0.17198   0.49468   0.83749   0.00000  Uiso   1.00
O871   O     0.25622   0.43256   0.63368   0.00000  Uiso   1.00
O872   O     0.30801   0.42848   0.57532   0.00000  Uiso   1.00
O873   O     0.17849   0.41434   0.77821   0.00000  Uiso   1.00
O874   O     0.14581   0.59469   0.76767   0.00000  Uiso   1.00
O875   O     0.07452   0.46584   0.73607   0.00000  Uiso   1.00
O876   O     0.26785   0.52512   0.71806   0.00000  Uiso   1.00
O877   O     0.06990   0.52293   0.77820   0.00000  Uiso   1.00
O878   O     0.25440   0.48610   0.76768   0.00000  Uiso   1.00
O879   O     0.13800   0.40236   0.73607   0.00000  Uiso   1.00
O880   O     0.20437   0.58860   0.71806   0.00000  Uiso   1.00
Zn881  Zn    0.19244   0.47423   0.78278   0.00000  Uiso   1.00
Zn882  Zn    0.13459   0.45711   0.72258   0.00000  Uiso   1.00
Zn883  Zn    0.21166   0.52997   0.71188   0.00000  Uiso   1.00
Zn884  Zn    0.12798   0.53868   0.78277   0.00000  Uiso   1.00
C885   C     0.38585   0.49320   0.75871   0.00000  Uiso   1.00
C886   C     0.53568   0.46427   0.95860   0.00000  Uiso   1.00
C887   C     0.56035   0.44916   0.97829   0.00000  Uiso   1.00
C888   C     0.61444   0.50689   0.74117   0.00000  Uiso   1.00
C889   C     0.54927   0.45349   0.51930   0.00000  Uiso   1.00
C890   C     0.51056   0.47008   0.54119   0.00000  Uiso   1.00
C891   C     0.57751   0.44257   0.53846   0.00000  Uiso   1.00
C892   C     0.56916   0.44940   0.57958   0.00000  Uiso   1.00
C893   C     0.50402   0.47940   0.58207   0.00000  Uiso   1.00
C894   C     0.66043   0.50958   0.73755   0.00000  Uiso   1.00
C895   C     0.34047   0.49069   0.76209   0.00000  Uiso   1.00
C896   C     0.42406   0.53682   0.92205   0.00000  Uiso   1.00
C897   C     0.51453   0.65575   0.73703   0.00000  Uiso   1.00
C898   C     0.48549   0.34542   0.76203   0.00000  Uiso   1.00
C899   C     0.48878   0.38952   0.75939   0.00000  Uiso   1.00
C900   C     0.51027   0.61106   0.74104   0.00000  Uiso   1.00
C901   C     0.52161   0.47865   0.64397   0.00000  Uiso   1.00
C902   C     0.47829   0.52053   0.85637   0.00000  Uiso   1.00
C903   C     0.46406   0.52328   0.90000   0.00000  Uiso   1.00
C904   C     0.53201   0.46857   0.60128   0.00000  Uiso   1.00
C905   C     0.40909   0.53218   0.96243   0.00000  Uiso   1.00
C906   C     0.60004   0.43661   0.59838   0.00000  Uiso   1.00
C907   C     0.48902   0.50714   0.91935   0.00000  Uiso   1.00
C908   C     0.47361   0.50074   0.95969   0.00000  Uiso   1.00
C909   C     0.43303   0.51369   0.98109   0.00000  Uiso   1.00
C910   C     0.49740   0.48211   0.97935   0.00000  Uiso   1.00
C911   C     0.48188   0.48027   0.52104   0.00000  Uiso   1.00
C912   C     0.43835   0.48832   0.54029   0.00000  Uiso   1.00
C913   C     0.41551   0.50623   0.52049   0.00000  Uiso   1.00
H914   H     0.38281   0.51287   0.53582   0.00000  Uiso   1.00
H915   H     0.54708   0.46053   0.92688   0.00000  Uiso   1.00
H916   H     0.56560   0.65218   0.68677   0.00000  Uiso   1.00
H917   H     0.57132   0.35917   0.72038   0.00000  Uiso   1.00
H918   H     0.65934   0.41992   0.59125   0.00000  Uiso   1.00
H919   H     0.36789   0.53516   0.90813   0.00000  Uiso   1.00
H920   H     0.39211   0.58364   0.91753   0.00000  Uiso   1.00
H921   H     0.42594   0.44673   0.58226   0.00000  Uiso   1.00
H922   H     0.41151   0.49626   0.59985   0.00000  Uiso   1.00
H923   H     0.60641   0.42898   0.52108   0.00000  Uiso   1.00
H924   H     0.35016   0.52699   0.71485   0.00000  Uiso   1.00
H925   H     0.65139   0.47320   0.78504   0.00000  Uiso   1.00
H926   H     0.45914   0.66535   0.78518   0.00000  Uiso   1.00
H927   H     0.47865   0.49745   0.59945   0.00000  Uiso   1.00
H928   H     0.58952   0.43584   0.96121   0.00000  Uiso   1.00
H929   H     0.37793   0.54197   0.97898   0.00000  Uiso   1.00
H930   H     0.52046   0.49956   0.90191   0.00000  Uiso   1.00
N931   N     0.54909   0.34150   0.70671   0.00000  Uiso   1.00
N932   N     0.39769   0.55381   0.90350   0.00000  Uiso   1.00
N933   N     0.41347   0.47235   0.57682   0.00000  Uiso   1.00
O934   O     0.50000   0.50000   0.75000   0.00000  Uiso   1.00
O935   O     0.49027   0.45726   0.66625   0.00000  Uiso   1.00
O936   O     0.46020   0.53979   0.83749   0.00000  Uiso   1.00
O937   O     0.54421   0.50826   0.65877   0.00000  Uiso   1.00
O938   O     0.50532   0.49468   0.83749   0.00000  Uiso   1.00
O939   O     0.58955   0.43256   0.63368   0.00000  Uiso   1.00
O940   O     0.64135   0.42848   0.57532   0.00000  Uiso   1.00
O941   O     0.51182   0.41434   0.77821   0.00000  Uiso   1.00
O942   O     0.47914   0.59469   0.76767   0.00000  Uiso   1.00
O943   O     0.40785   0.46584   0.73607   0.00000  Uiso   1.00
O944   O     0.60119   0.52512   0.71806   0.00000  Uiso   1.00
O945   O     0.40323   0.52293   0.77820   0.00000  Uiso   1.00
O946   O     0.58773   0.48610   0.76768   0.00000  Uiso   1.00
O947   O     0.47133   0.40236   0.73607   0.00000  Uiso   1.00
O948   O     0.53771   0.58860   0.71806   0.00000  Uiso   1.00
Zn949  Zn    0.52577   0.47423   0.78278   0.00000  Uiso   1.00
Zn950  Zn    0.46792   0.45711   0.72258   0.00000  Uiso   1.00
Zn951  Zn    0.54500   0.52997   0.71188   0.00000  Uiso   1.00
Zn952  Zn    0.46131   0.53868   0.78277   0.00000  Uiso   1.00
C953   C     0.71919   0.49320   0.75871   0.00000  Uiso   1.00
C954   C     0.86901   0.46427   0.95860   0.00000  Uiso   1.00
C955   C     0.89368   0.44916   0.97829   0.00000  Uiso   1.00
C956   C     0.94778   0.50689   0.74117   0.00000  Uiso   1.00
C957   C     0.88261   0.45349   0.51930   0.00000  Uiso   1.00
C958   C     0.84390   0.47008   0.54119   0.00000  Uiso   1.00
C959   C     0.91084   0.44257   0.53846   0.00000  Uiso   1.00
C960   C     0.90249   0.44940   0.57958   0.00000  Uiso   1.00
C961   C     0.83735   0.47940   0.58207   0.00000  Uiso   1.00
C962   C     0.99376   0.50958   0.73755   0.00000  Uiso   1.00
C963   C     0.67381   0.49069   0.76209   0.00000  Uiso   1.00
C964   C     0.75740   0.53682   0.92205   0.00000  Uiso   1.00
C965   C     0.84787   0.65575   0.73703   0.00000  Uiso   1.00
C966   C     0.81883   0.34542   0.76203   0.00000  Uiso   1.00
C967   C     0.82211   0.38952   0.75939   0.00000  Uiso   1.00
C968   C     0.84361   0.61106   0.74104   0.00000  Uiso   1.00
C969   C     0.85494   0.47865   0.64397   0.00000  Uiso   1.00
C970   C     0.81162   0.52053   0.85637   0.00000  Uiso   1.00
C971   C     0.79740   0.52328   0.90000   0.00000  Uiso   1.00
C972   C     0.86534   0.46857   0.60128   0.00000  Uiso   1.00
C973   C     0.74242   0.53218   0.96243   0.00000  Uiso   1.00
C974   C     0.93338   0.43661   0.59838   0.00000  Uiso   1.00
C975   C     0.82235   0.50714   0.91935   0.00000  Uiso   1.00
C976   C     0.80695   0.50074   0.95969   0.00000  Uiso   1.00
C977   C     0.76637   0.51369   0.98109   0.00000  Uiso   1.00
C978   C     0.83074   0.48211   0.97935   0.00000  Uiso   1.00
C979   C     0.81522   0.48027   0.52104   0.00000  Uiso   1.00
C980   C     0.77168   0.48832   0.54029   0.00000  Uiso   1.00
C981   C     0.74885   0.50623   0.52049   0.00000  Uiso   1.00
H982   H     0.71614   0.51287   0.53582   0.00000  Uiso   1.00
H983   H     0.88042   0.46053   0.92688   0.00000  Uiso   1.00
H984   H     0.89893   0.65218   0.68677   0.00000  Uiso   1.00
H985   H     0.90466   0.35917   0.72038   0.00000  Uiso   1.00
H986   H     0.99267   0.41992   0.59125   0.00000  Uiso   1.00
H987   H     0.70122   0.53516   0.90813   0.00000  Uiso   1.00
H988   H     0.72545   0.58364   0.91753   0.00000  Uiso   1.00
H989   H     0.75928   0.44673   0.58226   0.00000  Uiso   1.00
H990   H     0.74484   0.49626   0.59985   0.00000  Uiso   1.00
H991   H     0.93974   0.42898   0.52108   0.00000  Uiso   1.00
H992   H     0.68350   0.52699   0.71485   0.00000  Uiso   1.00
H993   H     0.98473   0.47320   0.78504   0.00000  Uiso   1.00
H994   H     0.79248   0.66535   0.78518   0.00000  Uiso   1.00
H995   H     0.81198   0.49745   0.59945   0.00000  Uiso   1.00
H996   H     0.92285   0.43584   0.96121   0.00000  Uiso   1.00
H997   H     0.71126   0.54197   0.97898   0.00000  Uiso   1.00
H998   H     0.85379   0.49956   0.90191   0.00000  Uiso   1.00
N999   N     0.88242   0.34150   0.70671   0.00000  Uiso   1.00
N1000  N     0.73102   0.55381   0.90350   0.00000  Uiso   1.00
N1001  N     0.74680   0.47235   0.57682   0.00000  Uiso   1.00
O1002  O     0.83333   0.50000   0.75000   0.00000  Uiso   1.00
O1003  O     0.82360   0.45726   0.66625   0.00000  Uiso   1.00
O1004  O     0.79354   0.53979   0.83749   0.00000  Uiso   1.00
O1005  O     0.87755   0.50826   0.65877   0.00000  Uiso   1.00
O1006  O     0.83865   0.49468   0.83749   0.00000  Uiso   1.00
O1007  O     0.92288   0.43256   0.63368   0.00000  Uiso   1.00
O1008  O     0.97468   0.42848   0.57532   0.00000  Uiso   1.00
O1009  O     0.84515   0.41434   0.77821   0.00000  Uiso   1.00
O1010  O     0.81247   0.59469   0.76767   0.00000  Uiso   1.00
O1011  O     0.74119   0.46584   0.73607   0.00000  Uiso   1.00
O1012  O     0.93452   0.52512   0.71806   0.00000  Uiso   1.00
O1013  O     0.73656   0.52293   0.77820   0.00000  Uiso   1.00
O1014  O     0.92106   0.48610   0.76768   0.00000  Uiso   1.00
O1015  O     0.80467   0.40236   0.73607   0.00000  Uiso   1.00
O1016  O     0.87104   0.58860   0.71806   0.00000  Uiso   1.00
Zn1017 Zn    0.85910   0.47423   0.78278   0.00000  Uiso   1.00
Zn1018 Zn    0.80125   0.45711   0.72258   0.00000  Uiso   1.00
Zn1019 Zn    0.87833   0.52997   0.71188   0.00000  Uiso   1.00
Zn1020 Zn    0.79465   0.53868   0.78277   0.00000  Uiso   1.00
C1021  C     0.05252   0.82654   0.75871   0.00000  Uiso   1.00
C1022  C     0.20235   0.79761   0.95860   0.00000  Uiso   1.00
C1023  C     0.22701   0.78250   0.97829   0.00000  Uiso   1.00
C1024  C     0.28111   0.84023   0.74117   0.00000  Uiso   1.00
C1025  C     0.21594   0.78682   0.51930   0.00000  Uiso   1.00
C1026  C     0.17723   0.80342   0.54119   0.00000  Uiso   1.00
C1027  C     0.24418   0.77590   0.53846   0.00000  Uiso   1.00
C1028  C     0.23582   0.78273   0.57958   0.00000  Uiso   1.00
C1029  C     0.17069   0.81274   0.58207   0.00000  Uiso   1.00
C1030  C     0.32710   0.84292   0.73755   0.00000  Uiso   1.00
C1031  C     0.00714   0.82402   0.76209   0.00000  Uiso   1.00
C1032  C     0.09073   0.87016   0.92205   0.00000  Uiso   1.00
C1033  C     0.18120   0.98908   0.73703   0.00000  Uiso   1.00
C1034  C     0.15216   0.67875   0.76203   0.00000  Uiso   1.00
C1035  C     0.15545   0.72285   0.75939   0.00000  Uiso   1.00
C1036  C     0.17694   0.94440   0.74104   0.00000  Uiso   1.00
C1037  C     0.18827   0.81198   0.64397   0.00000  Uiso   1.00
C1038  C     0.14496   0.85386   0.85637   0.00000  Uiso   1.00
C1039  C     0.13073   0.85661   0.90000   0.00000  Uiso   1.00
C1040  C     0.19868   0.80190   0.60128   0.00000  Uiso   1.00
C1041  C     0.07576   0.86551   0.96243   0.00000  Uiso   1.00
C1042  C     0.26671   0.76995   0.59838   0.00000  Uiso   1.00
C1043  C     0.15569   0.84047   0.91935   0.00000  Uiso   1.00
C1044  C     0.14028   0.83408   0.95969   0.00000  Uiso   1.00
C1045  C     0.09970   0.84702   0.98109   0.00000  Uiso   1.00
C1046  C     0.16407   0.81544   0.97935   0.00000  Uiso   1.00
C1047  C     0.14855   0.81361   0.52104   0.00000  Uiso   1.00
C1048  C     0.10501   0.82165   0.54029   0.00000  Uiso   1.00
C1049  C     0.08218   0.83957   0.52049   0.00000  Uiso   1.00
H1050  H     0.04947   0.84620   0.53582   0.00000  Uiso   1.00
H1051  H     0.21375   0.79386   0.92688   0.00000  Uiso   1.00
H1052  H     0.23227   0.98552   0.68677   0.00000  Uiso   1.00
H1053  H     0.23799   0.69250   0.72038   0.00000  Uiso   1.00
H1054  H     0.32600   0.75325   0.59125   0.00000  Uiso   1.00
H1055  H     0.03455   0.86849   0.90813   0.00000  Uiso   1.00
H1056  H     0.05878   0.91698   0.91753   0.00000  Uiso   1.00
H1057  H     0.09261   0.78006   0.58226   0.00000  Uiso   1.00
H1058  H     0.07818   0.82960   0.59985   0.00000  Uiso   1.00
H1059  H     0.27307   0.76231   0.52108   0.00000  Uiso   1.00
H1060  H     0.01683   0.86032   0.71485   0.00000  Uiso   1.00
H1061  H     0.31806   0.80653   0.78504   0.00000  Uiso   1.00
H1062  H     0.12581   0.99868   0.78518   0.00000  Uiso   1.00
H1063  H     0.14532   0.83078   0.59945   0.00000  Uiso   1.00
H1064  H     0.25618   0.76917   0.96121   0.00000  Uiso   1.00
H1065  H     0.04460   0.87531   0.97898   0.00000  Uiso   1.00
H1066  H     0.18712   0.83289   0.90191   0.00000  Uiso   1.00
N1067  N     0.21576   0.67483   0.70671   0.00000  Uiso   1.00
N1068  N     0.06436   0.88714   0.90350   0.00000  Uiso   1.00
N1069  N     0.08013   0.80568   0.57682   0.00000  Uiso   1.00
O1070  O     0.16667   0.83333   0.75000   0.00000  Uiso   1.00
O1071  O     0.15693   0.79060   0.66625   0.00000  Uiso   1.00
O1072  O     0.12687   0.87313   0.83749   0.00000  Uiso   1.00
O1073  O     0.21088   0.84159   0.65877   0.00000  Uiso   1.00
O1074  O     0.17198   0.82802   0.83749   0.00000  Uiso   1.00
O1075  O     0.25622   0.76590   0.63368   0.00000  Uiso   1.00
O1076  O     0.30801   0.76182   0.57532   0.00000  Uiso   1.00
O1077  O     0.17849   0.74768   0.77821   0.00000  Uiso   1.00
O1078  O     0.14581   0.92803   0.76767   0.00000  Uiso   1.00
O1079  O     0.07452   0.79917   0.73607   0.00000  Uiso   1.00
O1080  O     0.26785   0.85845   0.71806   0.00000  Uiso   1.00
O1081  O     0.06990   0.85627   0.77820   0.00000  Uiso   1.00
O1082  O     0.25440   0.81944   0.76768   0.00000  Uiso   1.00
O1083  O     0.13800   0.73570   0.73607   0.00000  Uiso   1.00
O1084  O     0.20437   0.92193   0.71806   0.00000  Uiso   1.00
Zn1085 Zn    0.19244   0.80756   0.78278   0.00000  Uiso   1.00
Zn1086 Zn    0.13459   0.79044   0.72258   0.00000  Uiso   1.00
Zn1087 Zn    0.21166   0.86331   0.71188   0.00000  Uiso   1.00
Zn1088 Zn    0.12798   0.87202   0.78277   0.00000  Uiso   1.00
C1089  C     0.38585   0.82654   0.75871   0.00000  Uiso   1.00
C1090  C     0.53568   0.79761   0.95860   0.00000  Uiso   1.00
C1091  C     0.56035   0.78250   0.97829   0.00000  Uiso   1.00
C1092  C     0.61444   0.84023   0.74117   0.00000  Uiso   1.00
C1093  C     0.54927   0.78682   0.51930   0.00000  Uiso   1.00
C1094  C     0.51056   0.80342   0.54119   0.00000  Uiso   1.00
C1095  C     0.57751   0.77590   0.53846   0.00000  Uiso   1.00
C1096  C     0.56916   0.78273   0.57958   0.00000  Uiso   1.00
C1097  C     0.50402   0.81274   0.58207   0.00000  Uiso   1.00
C1098  C     0.66043   0.84292   0.73755   0.00000  Uiso   1.00
C1099  C     0.34047   0.82402   0.76209   0.00000  Uiso   1.00
C1100  C     0.42406   0.87016   0.92205   0.00000  Uiso   1.00
C1101  C     0.51453   0.98908   0.73703   0.00000  Uiso   1.00
C1102  C     0.48549   0.67875   0.76203   0.00000  Uiso   1.00
C1103  C     0.48878   0.72285   0.75939   0.00000  Uiso   1.00
C1104  C     0.51027   0.94440   0.74104   0.00000  Uiso   1.00
C1105  C     0.52161   0.81198   0.64397   0.00000  Uiso   1.00
C1106  C     0.47829   0.85386   0.85637   0.00000  Uiso   1.00
C1107  C     0.46406   0.85661   0.90000   0.00000  Uiso   1.00
C1108  C     0.53201   0.80190   0.60128   0.00000  Uiso   1.00
C1109  C     0.40909   0.86551   0.96243   0.00000  Uiso   1.00
C1110  C     0.60004   0.76995   0.59838   0.00000  Uiso   1.00
C1111  C     0.48902   0.84047   0.91935   0.00000  Uiso   1.00
C1112  C     0.47361   0.83408   0.95969   0.00000  Uiso   1.00
C1113  C     0.43303   0.84702   0.98109   0.00000  Uiso   1.00
C1114  C     0.49740   0.81544   0.97935   0.00000  Uiso   1.00
C1115  C     0.48188   0.81361   0.52104   0.00000  Uiso   1.00
C1116  C     0.43835   0.82165   0.54029   0.00000  Uiso   1.00
C1117  C     0.41551   0.83957   0.52049   0.00000  Uiso   1.00
H1118  H     0.38281   0.84620   0.53582   0.00000  Uiso   1.00
H1119  H     0.54708   0.79386   0.92688   0.00000  Uiso   1.00
H1120  H     0.56560   0.98552   0.68677   0.00000  Uiso   1.00
H1121  H     0.57132   0.69250   0.72038   0.00000  Uiso   1.00
H1122  H     0.65934   0.75325   0.59125   0.00000  Uiso   1.00
H1123  H     0.36789   0.86849   0.90813   0.00000  Uiso   1.00
H1124  H     0.39211   0.91698   0.91753   0.00000  Uiso   1.00
H1125  H     0.42594   0.78006   0.58226   0.00000  Uiso   1.00
H1126  H     0.41151   0.82960   0.59985   0.00000  Uiso   1.00
H1127  H     0.60641   0.76231   0.52108   0.00000  Uiso   1.00
H1128  H     0.35016   0.86032   0.71485   0.00000  Uiso   1.00
H1129  H     0.65139   0.80653   0.78504   0.00000  Uiso   1.00
H1130  H     0.45914   0.99868   0.78518   0.00000  Uiso   1.00
H1131  H     0.47865   0.83078   0.59945   0.00000  Uiso   1.00
H1132  H     0.58952   0.76917   0.96121   0.00000  Uiso   1.00
H1133  H     0.37793   0.87531   0.97898   0.00000  Uiso   1.00
H1134  H     0.52046   0.83289   0.90191   0.00000  Uiso   1.00
N1135  N     0.54909   0.67483   0.70671   0.00000  Uiso   1.00
N1136  N     0.39769   0.88714   0.90350   0.00000  Uiso   1.00
N1137  N     0.41347   0.80568   0.57682   0.00000  Uiso   1.00
O1138  O     0.50000   0.83333   0.75000   0.00000  Uiso   1.00
O1139  O     0.49027   0.79060   0.66625   0.00000  Uiso   1.00
O1140  O     0.46020   0.87313   0.83749   0.00000  Uiso   1.00
O1141  O     0.54421   0.84159   0.65877   0.00000  Uiso   1.00
O1142  O     0.50532   0.82802   0.83749   0.00000  Uiso   1.00
O1143  O     0.58955   0.76590   0.63368   0.00000  Uiso   1.00
O1144  O     0.64135   0.76182   0.57532   0.00000  Uiso   1.00
O1145  O     0.51182   0.74768   0.77821   0.00000  Uiso   1.00
O1146  O     0.47914   0.92803   0.76767   0.00000  Uiso   1.00
O1147  O     0.40785   0.79917   0.73607   0.00000  Uiso   1.00
O1148  O     0.60119   0.85845   0.71806   0.00000  Uiso   1.00
O1149  O     0.40323   0.85627   0.77820   0.00000  Uiso   1.00
O1150  O     0.58773   0.81944   0.76768   0.00000  Uiso   1.00
O1151  O     0.47133   0.73570   0.73607   0.00000  Uiso   1.00
O1152  O     0.53771   0.92193   0.71806   0.00000  Uiso   1.00
Zn1153 Zn    0.52577   0.80756   0.78278   0.00000  Uiso   1.00
Zn1154 Zn    0.46792   0.79044   0.72258   0.00000  Uiso   1.00
Zn1155 Zn    0.54500   0.86331   0.71188   0.00000  Uiso   1.00
Zn1156 Zn    0.46131   0.87202   0.78277   0.00000  Uiso   1.00
C1157  C     0.71919   0.82654   0.75871   0.00000  Uiso   1.00
C1158  C     0.86901   0.79761   0.95860   0.00000  Uiso   1.00
C1159  C     0.89368   0.78250   0.97829   0.00000  Uiso   1.00
C1160  C     0.94778   0.84023   0.74117   0.00000  Uiso   1.00
C1161  C     0.88261   0.78682   0.51930   0.00000  Uiso   1.00
C1162  C     0.84390   0.80342   0.54119   0.00000  Uiso   1.00
C1163  C     0.91084   0.77590   0.53846   0.00000  Uiso   1.00
C1164  C     0.90249   0.78273   0.57958   0.00000  Uiso   1.00
C1165  C     0.83735   0.81274   0.58207   0.00000  Uiso   1.00
C1166  C     0.99376   0.84292   0.73755   0.00000  Uiso   1.00
C1167  C     0.67381   0.82402   0.76209   0.00000  Uiso   1.00
C1168  C     0.75740   0.87016   0.92205   0.00000  Uiso   1.00
C1169  C     0.84787   0.98908   0.73703   0.00000  Uiso   1.00
C1170  C     0.81883   0.67875   0.76203   0.00000  Uiso   1.00
C1171  C     0.82211   0.72285   0.75939   0.00000  Uiso   1.00
C1172  C     0.84361   0.94440   0.74104   0.00000  Uiso   1.00
C1173  C     0.85494   0.81198   0.64397   0.00000  Uiso   1.00
C1174  C     0.81162   0.85386   0.85637   0.00000  Uiso   1.00
C1175  C     0.79740   0.85661   0.90000   0.00000  Uiso   1.00
C1176  C     0.86534   0.80190   0.60128   0.00000  Uiso   1.00
C1177  C     0.74242   0.86551   0.96243   0.00000  Uiso   1.00
C1178  C     0.93338   0.76995   0.59838   0.00000  Uiso   1.00
C1179  C     0.82235   0.84047   0.91935   0.00000  Uiso   1.00
C1180  C     0.80695   0.83408   0.95969   0.00000  Uiso   1.00
C1181  C     0.76637   0.84702   0.98109   0.00000  Uiso   1.00
C1182  C     0.83074   0.81544   0.97935   0.00000  Uiso   1.00
C1183  C     0.81522   0.81361   0.52104   0.00000  Uiso   1.00
C1184  C     0.77168   0.82165   0.54029   0.00000  Uiso   1.00
C1185  C     0.74885   0.83957   0.52049   0.00000  Uiso   1.00
H1186  H     0.71614   0.84620   0.53582   0.00000  Uiso   1.00
H1187  H     0.88042   0.79386   0.92688   0.00000  Uiso   1.00
H1188  H     0.89893   0.98552   0.68677   0.00000  Uiso   1.00
H1189  H     0.90466   0.69250   0.72038   0.00000  Uiso   1.00
H1190  H     0.99267   0.75325   0.59125   0.00000  Uiso   1.00
H1191  H     0.70122   0.86849   0.90813   0.00000  Uiso   1.00
H1192  H     0.72545   0.91698   0.91753   0.00000  Uiso   1.00
H1193  H     0.75928   0.78006   0.58226   0.00000  Uiso   1.00
H1194  H     0.74484   0.82960   0.59985   0.00000  Uiso   1.00
H1195  H     0.93974   0.76231   0.52108   0.00000  Uiso   1.00
H1196  H     0.68350   0.86032   0.71485   0.00000  Uiso   1.00
H1197  H     0.98473   0.80653   0.78504   0.00000  Uiso   1.00
H1198  H     0.79248   0.99868   0.78518   0.00000  Uiso   1.00
H1199  H     0.81198   0.83078   0.59945   0.00000  Uiso   1.00
H1200  H     0.92285   0.76917   0.96121   0.00000  Uiso   1.00
H1201  H     0.71126   0.87531   0.97898   0.00000  Uiso   1.00
H1202  H     0.85379   0.83289   0.90191   0.00000  Uiso   1.00
N1203  N     0.88242   0.67483   0.70671   0.00000  Uiso   1.00
N1204  N     0.73102   0.88714   0.90350   0.00000  Uiso   1.00
N1205  N     0.74680   0.80568   0.57682   0.00000  Uiso   1.00
O1206  O     0.83333   0.83333   0.75000   0.00000  Uiso   1.00
O1207  O     0.82360   0.79060   0.66625   0.00000  Uiso   1.00
O1208  O     0.79354   0.87313   0.83749   0.00000  Uiso   1.00
O1209  O     0.87755   0.84159   0.65877   0.00000  Uiso   1.00
O1210  O     0.83865   0.82802   0.83749   0.00000  Uiso   1.00
O1211  O     0.92288   0.76590   0.63368   0.00000  Uiso   1.00
O1212  O     0.97468   0.76182   0.57532   0.00000  Uiso   1.00
O1213  O     0.84515   0.74768   0.77821   0.00000  Uiso   1.00
O1214  O     0.81247   0.92803   0.76767   0.00000  Uiso   1.00
O1215  O     0.74119   0.79917   0.73607   0.00000  Uiso   1.00
O1216  O     0.93452   0.85845   0.71806   0.00000  Uiso   1.00
O1217  O     0.73656   0.85627   0.77820   0.00000  Uiso   1.00
O1218  O     0.92106   0.81944   0.76768   0.00000  Uiso   1.00
O1219  O     0.80467   0.73570   0.73607   0.00000  Uiso   1.00
O1220  O     0.87104   0.92193   0.71806   0.00000  Uiso   1.00
Zn1221 Zn    0.85910   0.80756   0.78278   0.00000  Uiso   1.00
Zn1222 Zn    0.80125   0.79044   0.72258   0.00000  Uiso   1.00
Zn1223 Zn    0.87833   0.86331   0.71188   0.00000  Uiso   1.00
Zn1224 Zn    0.79465   0.87202   0.78277   0.00000  Uiso   1.00
loop_
_geom_bond_atom_site_label_1
_geom_bond_atom_site_label_2
_geom_bond_distance
_geom_bond_site_symmetry_2
_ccdc_geom_bond_type
C1     O59     1.271   .     A
C1     O61     1.271   .     A
C1     C11     1.437   .     S
C2     C3      1.385   .     A
C2     C26     1.415   .     A
C2     H31     1.077   .     S
C3     H44     1.084   .     S
C3     C617    1.391   .     S
C4     O60     1.278   .     A
C4     C10     1.455   .     S
C4     O62     1.275   .     A
C5     C6      1.416   .     A
C5     C7      1.402   .     A
C5     C615    1.391   1_554 S
C6     C27     1.430   .     A
C6     C9      1.405   .     A
C7     H39     1.084   .     S
C7     C8      1.401   .     A
C8     C22     1.492   .     S
C8     C20     1.415   .     A
C9     C20     1.395   .     A
C9     H43     1.077   .     S
C10    C79     1.334   .     S
C10    H108    1.088   .     S
C11    C146    1.334   1_455 S
C11    H177    1.086   1_455 S
C12    N48     1.433   .     S
C12    C19     1.411   .     A
C12    C21     1.399   .     A
C13    C16     1.463   .     S
C13    C218    1.337   .     S
C13    N251    1.443   .     S
C14    C15     1.438   .     S
C14    C421    1.337   1_545 S
C14    H450    1.086   1_545 S
C15    O57     1.274   .     A
C15    O63     1.276   .     A
C16    O58     1.275   .     A
C16    O64     1.269   .     A
C17    O53     1.273   .     A
C17    O51     1.273   .     A
C17    C20     1.459   .     S
C18    O52     1.284   .     A
C18    O54     1.288   .     A
C18    C19     1.480   .     S
C19    C23     1.401   .     A
C21    C25     1.401   .     A
C21    H45     1.085   .     S
C22    O55     1.223   .     D
C22    O56     1.399   .     S
C23    C24     1.410   .     A
C23    H46     1.076   .     S
C24    C26     1.425   .     A
C24    C25     1.413   .     A
C25    C641    1.392   .     S
C26    C639    1.428   .     S
C27    C28     1.430   .     A
C27    C638    1.428   1_554 S
C28    N49     1.436   .     S
C28    C29     1.392   .     A
C29    H30     1.085   .     S
C29    C637    1.392   1_554 S
H32    N251    1.044   .     S
H33    N47     1.046   .     S
H34    O56     1.014   .     S
H35    N48     1.046   .     S
H36    N48     1.046   .     S
H37    N49     1.045   .     S
H38    N49     1.045   .     S
H40    C146    1.088   1_455 S
H41    C79     1.086   .     S
H42    C218    1.086   .     S
N47    C421    1.443   1_545 S
N47    H440    1.044   1_545 S
O50    Zn66    1.942   .     S
O50    Zn65    1.954   .     S
O50    Zn67    1.928   .     S
O50    Zn68    1.938   .     S
O51    Zn66    1.924   .     S
O52    Zn68    1.933   .     S
O53    Zn67    1.931   .     S
O54    Zn65    1.925   .     S
O57    Zn65    1.930   .     S
O58    Zn68    1.929   .     S
O59    Zn66    1.928   .     S
O60    Zn67    1.936   .     S
O61    Zn68    1.930   .     S
O62    Zn65    1.923   .     S
O63    Zn66    1.936   .     S
O64    Zn67    1.934   .     S
C69    O127    1.271   .     A
C69    O129    1.271   .     A
C69    C79     1.437   .     S
C70    C71     1.385   .     A
C70    C94     1.415   .     A
C70    H99     1.077   .     S
C71    H112    1.084   .     S
C71    C685    1.391   .     S
C72    O128    1.278   .     A
C72    C78     1.455   .     S
C72    O130    1.275   .     A
C73    C74     1.416   .     A
C73    C75     1.402   .     A
C73    C683    1.391   1_554 S
C74    C95     1.430   .     A
C74    C77     1.405   .     A
C75    H107    1.084   .     S
C75    C76     1.401   .     A
C76    C90     1.492   .     S
C76    C88     1.415   .     A
C77    C88     1.395   .     A
C77    H111    1.077   .     S
C78    C147    1.334   .     S
C78    H176    1.088   .     S
C80    N116    1.433   .     S
C80    C87     1.411   .     A
C80    C89     1.399   .     A
C81    C84     1.463   .     S
C81    C286    1.337   .     S
C81    N319    1.443   .     S
C82    C83     1.438   .     S
C82    C489    1.337   1_545 S
C82    H518    1.086   1_545 S
C83    O125    1.274   .     A
C83    O131    1.276   .     A
C84    O126    1.275   .     A
C84    O132    1.269   .     A
C85    O121    1.273   .     A
C85    O119    1.273   .     A
C85    C88     1.459   .     S
C86    O120    1.284   .     A
C86    O122    1.288   .     A
C86    C87     1.480   .     S
C87    C91     1.401   .     A
C89    C93     1.401   .     A
C89    H113    1.085   .     S
C90    O123    1.223   .     D
C90    O124    1.399   .     S
C91    C92     1.410   .     A
C91    H114    1.076   .     S
C92    C94     1.425   .     A
C92    C93     1.413   .     A
C93    C709    1.392   .     S
C94    C707    1.428   .     S
C95    C96     1.430   .     A
C95    C706    1.428   1_554 S
C96    N117    1.436   .     S
C96    C97     1.392   .     A
C97    H98     1.085   .     S
C97    C705    1.392   1_554 S
H100   N319    1.044   .     S
H101   N115    1.046   .     S
H102   O124    1.014   .     S
H103   N116    1.046   .     S
H104   N116    1.046   .     S
H105   N117    1.045   .     S
H106   N117    1.045   .     S
H109   C147    1.086   .     S
H110   C286    1.086   .     S
N115   C489    1.443   1_545 S
N115   H508    1.044   1_545 S
O118   Zn134   1.942   .     S
O118   Zn133   1.954   .     S
O118   Zn135   1.928   .     S
O118   Zn136   1.938   .     S
O119   Zn134   1.924   .     S
O120   Zn136   1.933   .     S
O121   Zn135   1.931   .     S
O122   Zn133   1.925   .     S
O125   Zn133   1.930   .     S
O126   Zn136   1.929   .     S
O127   Zn134   1.928   .     S
O128   Zn135   1.936   .     S
O129   Zn136   1.930   .     S
O130   Zn133   1.923   .     S
O131   Zn134   1.936   .     S
O132   Zn135   1.934   .     S
C137   O195    1.271   .     A
C137   O197    1.271   .     A
C137   C147    1.437   .     S
C138   C139    1.385   .     A
C138   C162    1.415   .     A
C138   H167    1.077   .     S
C139   H180    1.084   .     S
C139   C753    1.391   .     S
C140   O196    1.278   .     A
C140   C146    1.455   .     S
C140   O198    1.275   .     A
C141   C142    1.416   .     A
C141   C143    1.402   .     A
C141   C751    1.391   1_554 S
C142   C163    1.430   .     A
C142   C145    1.405   .     A
C143   H175    1.084   .     S
C143   C144    1.401   .     A
C144   C158    1.492   .     S
C144   C156    1.415   .     A
C145   C156    1.395   .     A
C145   H179    1.077   .     S
C146   C11     1.334   1_655 S
C146   H40     1.088   1_655 S
C148   N184    1.433   .     S
C148   C155    1.411   .     A
C148   C157    1.399   .     A
C149   C152    1.463   .     S
C149   C354    1.337   .     S
C149   N387    1.443   .     S
C150   C151    1.438   .     S
C150   C557    1.337   1_545 S
C150   H586    1.086   1_545 S
C151   O193    1.274   .     A
C151   O199    1.276   .     A
C152   O194    1.275   .     A
C152   O200    1.269   .     A
C153   O189    1.273   .     A
C153   O187    1.273   .     A
C153   C156    1.459   .     S
C154   O188    1.284   .     A
C154   O190    1.288   .     A
C154   C155    1.480   .     S
C155   C159    1.401   .     A
C157   C161    1.401   .     A
C157   H181    1.085   .     S
C158   O191    1.223   .     D
C158   O192    1.399   .     S
C159   C160    1.410   .     A
C159   H182    1.076   .     S
C160   C162    1.425   .     A
C160   C161    1.413   .     A
C161   C777    1.392   .     S
C162   C775    1.428   .     S
C163   C164    1.430   .     A
C163   C774    1.428   1_554 S
C164   N185    1.436   .     S
C164   C165    1.392   .     A
C165   H166    1.085   .     S
C165   C773    1.392   1_554 S
H168   N387    1.044   .     S
H169   N183    1.046   .     S
H170   O192    1.014   .     S
H171   N184    1.046   .     S
H172   N184    1.046   .     S
H173   N185    1.045   .     S
H174   N185    1.045   .     S
H177   C11     1.086   1_655 S
H178   C354    1.086   .     S
N183   C557    1.443   1_545 S
N183   H576    1.044   1_545 S
O186   Zn202   1.942   .     S
O186   Zn201   1.954   .     S
O186   Zn203   1.928   .     S
O186   Zn204   1.938   .     S
O187   Zn202   1.924   .     S
O188   Zn204   1.933   .     S
O189   Zn203   1.931   .     S
O190   Zn201   1.925   .     S
O193   Zn201   1.930   .     S
O194   Zn204   1.929   .     S
O195   Zn202   1.928   .     S
O196   Zn203   1.936   .     S
O197   Zn204   1.930   .     S
O198   Zn201   1.923   .     S
O199   Zn202   1.936   .     S
O200   Zn203   1.934   .     S
C205   O263    1.271   .     A
C205   O265    1.271   .     A
C205   C215    1.437   .     S
C206   C207    1.385   .     A
C206   C230    1.415   .     A
C206   H235    1.077   .     S
C207   H248    1.084   .     S
C207   C821    1.391   .     S
C208   O264    1.278   .     A
C208   C214    1.455   .     S
C208   O266    1.275   .     A
C209   C210    1.416   .     A
C209   C211    1.402   .     A
C209   C819    1.391   1_554 S
C210   C231    1.430   .     A
C210   C213    1.405   .     A
C211   H243    1.084   .     S
C211   C212    1.401   .     A
C212   C226    1.492   .     S
C212   C224    1.415   .     A
C213   C224    1.395   .     A
C213   H247    1.077   .     S
C214   C283    1.334   .     S
C214   H312    1.088   .     S
C215   C350    1.334   1_455 S
C215   H381    1.086   1_455 S
C216   N252    1.433   .     S
C216   C223    1.411   .     A
C216   C225    1.399   .     A
C217   C220    1.463   .     S
C217   C422    1.337   .     S
C217   N455    1.443   .     S
C218   C219    1.438   .     S
C219   O261    1.274   .     A
C219   O267    1.276   .     A
C220   O262    1.275   .     A
C220   O268    1.269   .     A
C221   O257    1.273   .     A
C221   O255    1.273   .     A
C221   C224    1.459   .     S
C222   O256    1.284   .     A
C222   O258    1.288   .     A
C222   C223    1.480   .     S
C223   C227    1.401   .     A
C225   C229    1.401   .     A
C225   H249    1.085   .     S
C226   O259    1.223   .     D
C226   O260    1.399   .     S
C227   C228    1.410   .     A
C227   H250    1.076   .     S
C228   C230    1.425   .     A
C228   C229    1.413   .     A
C229   C845    1.392   .     S
C230   C843    1.428   .     S
C231   C232    1.430   .     A
C231   C842    1.428   1_554 S
C232   N253    1.436   .     S
C232   C233    1.392   .     A
C233   H234    1.085   .     S
C233   C841    1.392   1_554 S
H236   N455    1.044   .     S
H237   N251    1.046   .     S
H238   O260    1.014   .     S
H239   N252    1.046   .     S
H240   N252    1.046   .     S
H241   N253    1.045   .     S
H242   N253    1.045   .     S
H244   C350    1.088   1_455 S
H245   C283    1.086   .     S
H246   C422    1.086   .     S
O254   Zn270   1.942   .     S
O254   Zn269   1.954   .     S
O254   Zn271   1.928   .     S
O254   Zn272   1.938   .     S
O255   Zn270   1.924   .     S
O256   Zn272   1.933   .     S
O257   Zn271   1.931   .     S
O258   Zn269   1.925   .     S
O261   Zn269   1.930   .     S
O262   Zn272   1.929   .     S
O263   Zn270   1.928   .     S
O264   Zn271   1.936   .     S
O265   Zn272   1.930   .     S
O266   Zn269   1.923   .     S
O267   Zn270   1.936   .     S
O268   Zn271   1.934   .     S
C273   O331    1.271   .     A
C273   O333    1.271   .     A
C273   C283    1.437   .     S
C274   C275    1.385   .     A
C274   C298    1.415   .     A
C274   H303    1.077   .     S
C275   H316    1.084   .     S
C275   C889    1.391   .     S
C276   O332    1.278   .     A
C276   C282    1.455   .     S
C276   O334    1.275   .     A
C277   C278    1.416   .     A
C277   C279    1.402   .     A
C277   C887    1.391   1_554 S
C278   C299    1.430   .     A
C278   C281    1.405   .     A
C279   H311    1.084   .     S
C279   C280    1.401   .     A
C280   C294    1.492   .     S
C280   C292    1.415   .     A
C281   C292    1.395   .     A
C281   H315    1.077   .     S
C282   C351    1.334   .     S
C282   H380    1.088   .     S
C284   N320    1.433   .     S
C284   C291    1.411   .     A
C284   C293    1.399   .     A
C285   C288    1.463   .     S
C285   C490    1.337   .     S
C285   N523    1.443   .     S
C286   C287    1.438   .     S
C287   O329    1.274   .     A
C287   O335    1.276   .     A
C288   O330    1.275   .     A
C288   O336    1.269   .     A
C289   O325    1.273   .     A
C289   O323    1.273   .     A
C289   C292    1.459   .     S
C290   O324    1.284   .     A
C290   O326    1.288   .     A
C290   C291    1.480   .     S
C291   C295    1.401   .     A
C293   C297    1.401   .     A
C293   H317    1.085   .     S
C294   O327    1.223   .     D
C294   O328    1.399   .     S
C295   C296    1.410   .     A
C295   H318    1.076   .     S
C296   C298    1.425   .     A
C296   C297    1.413   .     A
C297   C913    1.392   .     S
C298   C911    1.428   .     S
C299   C300    1.430   .     A
C299   C910    1.428   1_554 S
C300   N321    1.436   .     S
C300   C301    1.392   .     A
C301   H302    1.085   .     S
C301   C909    1.392   1_554 S
H304   N523    1.044   .     S
H305   N319    1.046   .     S
H306   O328    1.014   .     S
H307   N320    1.046   .     S
H308   N320    1.046   .     S
H309   N321    1.045   .     S
H310   N321    1.045   .     S
H313   C351    1.086   .     S
H314   C490    1.086   .     S
O322   Zn338   1.942   .     S
O322   Zn337   1.954   .     S
O322   Zn339   1.928   .     S
O322   Zn340   1.938   .     S
O323   Zn338   1.924   .     S
O324   Zn340   1.933   .     S
O325   Zn339   1.931   .     S
O326   Zn337   1.925   .     S
O329   Zn337   1.930   .     S
O330   Zn340   1.929   .     S
O331   Zn338   1.928   .     S
O332   Zn339   1.936   .     S
O333   Zn340   1.930   .     S
O334   Zn337   1.923   .     S
O335   Zn338   1.936   .     S
O336   Zn339   1.934   .     S
C341   O399    1.271   .     A
C341   O401    1.271   .     A
C341   C351    1.437   .     S
C342   C343    1.385   .     A
C342   C366    1.415   .     A
C342   H371    1.077   .     S
C343   H384    1.084   .     S
C343   C957    1.391   .     S
C344   O400    1.278   .     A
C344   C350    1.455   .     S
C344   O402    1.275   .     A
C345   C346    1.416   .     A
C345   C347    1.402   .     A
C345   C955    1.391   1_554 S
C346   C367    1.430   .     A
C346   C349    1.405   .     A
C347   H379    1.084   .     S
C347   C348    1.401   .     A
C348   C362    1.492   .     S
C348   C360    1.415   .     A
C349   C360    1.395   .     A
C349   H383    1.077   .     S
C350   C215    1.334   1_655 S
C350   H244    1.088   1_655 S
C352   N388    1.433   .     S
C352   C359    1.411   .     A
C352   C361    1.399   .     A
C353   C356    1.463   .     S
C353   C558    1.337   .     S
C353   N591    1.443   .     S
C354   C355    1.438   .     S
C355   O397    1.274   .     A
C355   O403    1.276   .     A
C356   O398    1.275   .     A
C356   O404    1.269   .     A
C357   O393    1.273   .     A
C357   O391    1.273   .     A
C357   C360    1.459   .     S
C358   O392    1.284   .     A
C358   O394    1.288   .     A
C358   C359    1.480   .     S
C359   C363    1.401   .     A
C361   C365    1.401   .     A
C361   H385    1.085   .     S
C362   O395    1.223   .     D
C362   O396    1.399   .     S
C363   C364    1.410   .     A
C363   H386    1.076   .     S
C364   C366    1.425   .     A
C364   C365    1.413   .     A
C365   C981    1.392   .     S
C366   C979    1.428   .     S
C367   C368    1.430   .     A
C367   C978    1.428   1_554 S
C368   N389    1.436   .     S
C368   C369    1.392   .     A
C369   H370    1.085   .     S
C369   C977    1.392   1_554 S
H372   N591    1.044   .     S
H373   N387    1.046   .     S
H374   O396    1.014   .     S
H375   N388    1.046   .     S
H376   N388    1.046   .     S
H377   N389    1.045   .     S
H378   N389    1.045   .     S
H381   C215    1.086   1_655 S
H382   C558    1.086   .     S
O390   Zn406   1.942   .     S
O390   Zn405   1.954   .     S
O390   Zn407   1.928   .     S
O390   Zn408   1.938   .     S
O391   Zn406   1.924   .     S
O392   Zn408   1.933   .     S
O393   Zn407   1.931   .     S
O394   Zn405   1.925   .     S
O397   Zn405   1.930   .     S
O398   Zn408   1.929   .     S
O399   Zn406   1.928   .     S
O400   Zn407   1.936   .     S
O401   Zn408   1.930   .     S
O402   Zn405   1.923   .     S
O403   Zn406   1.936   .     S
O404   Zn407   1.934   .     S
C409   O467    1.271   .     A
C409   O469    1.271   .     A
C409   C419    1.437   .     S
C410   C411    1.385   .     A
C410   C434    1.415   .     A
C410   H439    1.077   .     S
C411   H452    1.084   .     S
C411   C1025   1.391   .     S
C412   O468    1.278   .     A
C412   C418    1.455   .     S
C412   O470    1.275   .     A
C413   C414    1.416   .     A
C413   C415    1.402   .     A
C413   C1023   1.391   1_554 S
C414   C435    1.430   .     A
C414   C417    1.405   .     A
C415   H447    1.084   .     S
C415   C416    1.401   .     A
C416   C430    1.492   .     S
C416   C428    1.415   .     A
C417   C428    1.395   .     A
C417   H451    1.077   .     S
C418   C487    1.334   .     S
C418   H516    1.088   .     S
C419   C554    1.334   1_455 S
C419   H585    1.086   1_455 S
C420   N456    1.433   .     S
C420   C427    1.411   .     A
C420   C429    1.399   .     A
C421   C424    1.463   .     S
C421   C14     1.337   1_565 S
C421   N47     1.443   1_565 S
C422   C423    1.438   .     S
C423   O465    1.274   .     A
C423   O471    1.276   .     A
C424   O466    1.275   .     A
C424   O472    1.269   .     A
C425   O461    1.273   .     A
C425   O459    1.273   .     A
C425   C428    1.459   .     S
C426   O460    1.284   .     A
C426   O462    1.288   .     A
C426   C427    1.480   .     S
C427   C431    1.401   .     A
C429   C433    1.401   .     A
C429   H453    1.085   .     S
C430   O463    1.223   .     D
C430   O464    1.399   .     S
C431   C432    1.410   .     A
C431   H454    1.076   .     S
C432   C434    1.425   .     A
C432   C433    1.413   .     A
C433   C1049   1.392   .     S
C434   C1047   1.428   .     S
C435   C436    1.430   .     A
C435   C1046   1.428   1_554 S
C436   N457    1.436   .     S
C436   C437    1.392   .     A
C437   H438    1.085   .     S
C437   C1045   1.392   1_554 S
H440   N47     1.044   1_565 S
H441   N455    1.046   .     S
H442   O464    1.014   .     S
H443   N456    1.046   .     S
H444   N456    1.046   .     S
H445   N457    1.045   .     S
H446   N457    1.045   .     S
H448   C554    1.088   1_455 S
H449   C487    1.086   .     S
H450   C14     1.086   1_565 S
O458   Zn474   1.942   .     S
O458   Zn473   1.954   .     S
O458   Zn475   1.928   .     S
O458   Zn476   1.938   .     S
O459   Zn474   1.924   .     S
O460   Zn476   1.933   .     S
O461   Zn475   1.931   .     S
O462   Zn473   1.925   .     S
O465   Zn473   1.930   .     S
O466   Zn476   1.929   .     S
O467   Zn474   1.928   .     S
O468   Zn475   1.936   .     S
O469   Zn476   1.930   .     S
O470   Zn473   1.923   .     S
O471   Zn474   1.936   .     S
O472   Zn475   1.934   .     S
C477   O535    1.271   .     A
C477   O537    1.271   .     A
C477   C487    1.437   .     S
C478   C479    1.385   .     A
C478   C502    1.415   .     A
C478   H507    1.077   .     S
C479   H520    1.084   .     S
C479   C1093   1.391   .     S
C480   O536    1.278   .     A
C480   C486    1.455   .     S
C480   O538    1.275   .     A
C481   C482    1.416   .     A
C481   C483    1.402   .     A
C481   C1091   1.391   1_554 S
C482   C503    1.430   .     A
C482   C485    1.405   .     A
C483   H515    1.084   .     S
C483   C484    1.401   .     A
C484   C498    1.492   .     S
C484   C496    1.415   .     A
C485   C496    1.395   .     A
C485   H519    1.077   .     S
C486   C555    1.334   .     S
C486   H584    1.088   .     S
C488   N524    1.433   .     S
C488   C495    1.411   .     A
C488   C497    1.399   .     A
C489   C492    1.463   .     S
C489   C82     1.337   1_565 S
C489   N115    1.443   1_565 S
C490   C491    1.438   .     S
C491   O533    1.274   .     A
C491   O539    1.276   .     A
C492   O534    1.275   .     A
C492   O540    1.269   .     A
C493   O529    1.273   .     A
C493   O527    1.273   .     A
C493   C496    1.459   .     S
C494   O528    1.284   .     A
C494   O530    1.288   .     A
C494   C495    1.480   .     S
C495   C499    1.401   .     A
C497   C501    1.401   .     A
C497   H521    1.085   .     S
C498   O531    1.223   .     D
C498   O532    1.399   .     S
C499   C500    1.410   .     A
C499   H522    1.076   .     S
C500   C502    1.425   .     A
C500   C501    1.413   .     A
C501   C1117   1.392   .     S
C502   C1115   1.428   .     S
C503   C504    1.430   .     A
C503   C1114   1.428   1_554 S
C504   N525    1.436   .     S
C504   C505    1.392   .     A
C505   H506    1.085   .     S
C505   C1113   1.392   1_554 S
H508   N115    1.044   1_565 S
H509   N523    1.046   .     S
H510   O532    1.014   .     S
H511   N524    1.046   .     S
H512   N524    1.046   .     S
H513   N525    1.045   .     S
H514   N525    1.045   .     S
H517   C555    1.086   .     S
H518   C82     1.086   1_565 S
O526   Zn542   1.942   .     S
O526   Zn541   1.954   .     S
O526   Zn543   1.928   .     S
O526   Zn544   1.938   .     S
O527   Zn542   1.924   .     S
O528   Zn544   1.933   .     S
O529   Zn543   1.931   .     S
O530   Zn541   1.925   .     S
O533   Zn541   1.930   .     S
O534   Zn544   1.929   .     S
O535   Zn542   1.928   .     S
O536   Zn543   1.936   .     S
O537   Zn544   1.930   .     S
O538   Zn541   1.923   .     S
O539   Zn542   1.936   .     S
O540   Zn543   1.934   .     S
C545   O603    1.271   .     A
C545   O605    1.271   .     A
C545   C555    1.437   .     S
C546   C547    1.385   .     A
C546   C570    1.415   .     A
C546   H575    1.077   .     S
C547   H588    1.084   .     S
C547   C1161   1.391   .     S
C548   O604    1.278   .     A
C548   C554    1.455   .     S
C548   O606    1.275   .     A
C549   C550    1.416   .     A
C549   C551    1.402   .     A
C549   C1159   1.391   1_554 S
C550   C571    1.430   .     A
C550   C553    1.405   .     A
C551   H583    1.084   .     S
C551   C552    1.401   .     A
C552   C566    1.492   .     S
C552   C564    1.415   .     A
C553   C564    1.395   .     A
C553   H587    1.077   .     S
C554   C419    1.334   1_655 S
C554   H448    1.088   1_655 S
C556   N592    1.433   .     S
C556   C563    1.411   .     A
C556   C565    1.399   .     A
C557   C560    1.463   .     S
C557   C150    1.337   1_565 S
C557   N183    1.443   1_565 S
C558   C559    1.438   .     S
C559   O601    1.274   .     A
C559   O607    1.276   .     A
C560   O602    1.275   .     A
C560   O608    1.269   .     A
C561   O597    1.273   .     A
C561   O595    1.273   .     A
C561   C564    1.459   .     S
C562   O596    1.284   .     A
C562   O598    1.288   .     A
C562   C563    1.480   .     S
C563   C567    1.401   .     A
C565   C569    1.401   .     A
C565   H589    1.085   .     S
C566   O599    1.223   .     D
C566   O600    1.399   .     S
C567   C568    1.410   .     A
C567   H590    1.076   .     S
C568   C570    1.425   .     A
C568   C569    1.413   .     A
C569   C1185   1.392   .     S
C570   C1183   1.428   .     S
C571   C572    1.430   .     A
C571   C1182   1.428   1_554 S
C572   N593    1.436   .     S
C572   C573    1.392   .     A
C573   H574    1.085   .     S
C573   C1181   1.392   1_554 S
H576   N183    1.044   1_565 S
H577   N591    1.046   .     S
H578   O600    1.014   .     S
H579   N592    1.046   .     S
H580   N592    1.046   .     S
H581   N593    1.045   .     S
H582   N593    1.045   .     S
H585   C419    1.086   1_655 S
H586   C150    1.086   1_565 S
O594   Zn610   1.942   .     S
O594   Zn609   1.954   .     S
O594   Zn611   1.928   .     S
O594   Zn612   1.938   .     S
O595   Zn610   1.924   .     S
O596   Zn612   1.933   .     S
O597   Zn611   1.931   .     S
O598   Zn609   1.925   .     S
O601   Zn609   1.930   .     S
O602   Zn612   1.929   .     S
O603   Zn610   1.928   .     S
O604   Zn611   1.936   .     S
O605   Zn612   1.930   .     S
O606   Zn609   1.923   .     S
O607   Zn610   1.936   .     S
O608   Zn611   1.934   .     S
C613   O671    1.271   .     A
C613   O673    1.271   .     A
C613   C623    1.437   .     S
C614   C615    1.385   .     A
C614   C638    1.415   .     A
C614   H643    1.077   .     S
C615   H656    1.084   .     S
C615   C5      1.391   1_556 S
C616   O672    1.278   .     A
C616   C622    1.455   .     S
C616   O674    1.275   .     A
C617   C618    1.416   .     A
C617   C619    1.402   .     A
C618   C639    1.430   .     A
C618   C621    1.405   .     A
C619   H651    1.084   .     S
C619   C620    1.401   .     A
C620   C634    1.492   .     S
C620   C632    1.415   .     A
C621   C632    1.395   .     A
C621   H655    1.077   .     S
C622   C691    1.334   .     S
C622   H720    1.088   .     S
C623   C758    1.334   1_455 S
C623   H789    1.086   1_455 S
C624   N660    1.433   .     S
C624   C631    1.411   .     A
C624   C633    1.399   .     A
C625   C628    1.463   .     S
C625   C830    1.337   .     S
C625   N863    1.443   .     S
C626   C627    1.438   .     S
C626   C1033   1.337   1_545 S
C626   H1062   1.086   1_545 S
C627   O669    1.274   .     A
C627   O675    1.276   .     A
C628   O670    1.275   .     A
C628   O676    1.269   .     A
C629   O665    1.273   .     A
C629   O663    1.273   .     A
C629   C632    1.459   .     S
C630   O664    1.284   .     A
C630   O666    1.288   .     A
C630   C631    1.480   .     S
C631   C635    1.401   .     A
C633   C637    1.401   .     A
C633   H657    1.085   .     S
C634   O667    1.223   .     D
C634   O668    1.399   .     S
C635   C636    1.410   .     A
C635   H658    1.076   .     S
C636   C638    1.425   .     A
C636   C637    1.413   .     A
C637   C29     1.392   1_556 S
C638   C27     1.428   1_556 S
C639   C640    1.430   .     A
C640   N661    1.436   .     S
C640   C641    1.392   .     A
C641   H642    1.085   .     S
H644   N863    1.044   .     S
H645   N659    1.046   .     S
H646   O668    1.014   .     S
H647   N660    1.046   .     S
H648   N660    1.046   .     S
H649   N661    1.045   .     S
H650   N661    1.045   .     S
H652   C758    1.088   1_455 S
H653   C691    1.086   .     S
H654   C830    1.086   .     S
N659   C1033   1.443   1_545 S
N659   H1052   1.044   1_545 S
O662   Zn678   1.942   .     S
O662   Zn677   1.954   .     S
O662   Zn679   1.928   .     S
O662   Zn680   1.938   .     S
O663   Zn678   1.924   .     S
O664   Zn680   1.933   .     S
O665   Zn679   1.931   .     S
O666   Zn677   1.925   .     S
O669   Zn677   1.930   .     S
O670   Zn680   1.929   .     S
O671   Zn678   1.928   .     S
O672   Zn679   1.936   .     S
O673   Zn680   1.930   .     S
O674   Zn677   1.923   .     S
O675   Zn678   1.936   .     S
O676   Zn679   1.934   .     S
C681   O739    1.271   .     A
C681   O741    1.271   .     A
C681   C691    1.437   .     S
C682   C683    1.385   .     A
C682   C706    1.415   .     A
C682   H711    1.077   .     S
C683   H724    1.084   .     S
C683   C73     1.391   1_556 S
C684   O740    1.278   .     A
C684   C690    1.455   .     S
C684   O742    1.275   .     A
C685   C686    1.416   .     A
C685   C687    1.402   .     A
C686   C707    1.430   .     A
C686   C689    1.405   .     A
C687   H719    1.084   .     S
C687   C688    1.401   .     A
C688   C702    1.492   .     S
C688   C700    1.415   .     A
C689   C700    1.395   .     A
C689   H723    1.077   .     S
C690   C759    1.334   .     S
C690   H788    1.088   .     S
C692   N728    1.433   .     S
C692   C699    1.411   .     A
C692   C701    1.399   .     A
C693   C696    1.463   .     S
C693   C898    1.337   .     S
C693   N931    1.443   .     S
C694   C695    1.438   .     S
C694   C1101   1.337   1_545 S
C694   H1130   1.086   1_545 S
C695   O737    1.274   .     A
C695   O743    1.276   .     A
C696   O738    1.275   .     A
C696   O744    1.269   .     A
C697   O733    1.273   .     A
C697   O731    1.273   .     A
C697   C700    1.459   .     S
C698   O732    1.284   .     A
C698   O734    1.288   .     A
C698   C699    1.480   .     S
C699   C703    1.401   .     A
C701   C705    1.401   .     A
C701   H725    1.085   .     S
C702   O735    1.223   .     D
C702   O736    1.399   .     S
C703   C704    1.410   .     A
C703   H726    1.076   .     S
C704   C706    1.425   .     A
C704   C705    1.413   .     A
C705   C97     1.392   1_556 S
C706   C95     1.428   1_556 S
C707   C708    1.430   .     A
C708   N729    1.436   .     S
C708   C709    1.392   .     A
C709   H710    1.085   .     S
H712   N931    1.044   .     S
H713   N727    1.046   .     S
H714   O736    1.014   .     S
H715   N728    1.046   .     S
H716   N728    1.046   .     S
H717   N729    1.045   .     S
H718   N729    1.045   .     S
H721   C759    1.086   .     S
H722   C898    1.086   .     S
N727   C1101   1.443   1_545 S
N727   H1120   1.044   1_545 S
O730   Zn746   1.942   .     S
O730   Zn745   1.954   .     S
O730   Zn747   1.928   .     S
O730   Zn748   1.938   .     S
O731   Zn746   1.924   .     S
O732   Zn748   1.933   .     S
O733   Zn747   1.931   .     S
O734   Zn745   1.925   .     S
O737   Zn745   1.930   .     S
O738   Zn748   1.929   .     S
O739   Zn746   1.928   .     S
O740   Zn747   1.936   .     S
O741   Zn748   1.930   .     S
O742   Zn745   1.923   .     S
O743   Zn746   1.936   .     S
O744   Zn747   1.934   .     S
C749   O807    1.271   .     A
C749   O809    1.271   .     A
C749   C759    1.437   .     S
C750   C751    1.385   .     A
C750   C774    1.415   .     A
C750   H779    1.077   .     S
C751   H792    1.084   .     S
C751   C141    1.391   1_556 S
C752   O808    1.278   .     A
C752   C758    1.455   .     S
C752   O810    1.275   .     A
C753   C754    1.416   .     A
C753   C755    1.402   .     A
C754   C775    1.430   .     A
C754   C757    1.405   .     A
C755   H787    1.084   .     S
C755   C756    1.401   .     A
C756   C770    1.492   .     S
C756   C768    1.415   .     A
C757   C768    1.395   .     A
C757   H791    1.077   .     S
C758   C623    1.334   1_655 S
C758   H652    1.088   1_655 S
C760   N796    1.433   .     S
C760   C767    1.411   .     A
C760   C769    1.399   .     A
C761   C764    1.463   .     S
C761   C966    1.337   .     S
C761   N999    1.443   .     S
C762   C763    1.438   .     S
C762   C1169   1.337   1_545 S
C762   H1198   1.086   1_545 S
C763   O805    1.274   .     A
C763   O811    1.276   .     A
C764   O806    1.275   .     A
C764   O812    1.269   .     A
C765   O801    1.273   .     A
C765   O799    1.273   .     A
C765   C768    1.459   .     S
C766   O800    1.284   .     A
C766   O802    1.288   .     A
C766   C767    1.480   .     S
C767   C771    1.401   .     A
C769   C773    1.401   .     A
C769   H793    1.085   .     S
C770   O803    1.223   .     D
C770   O804    1.399   .     S
C771   C772    1.410   .     A
C771   H794    1.076   .     S
C772   C774    1.425   .     A
C772   C773    1.413   .     A
C773   C165    1.392   1_556 S
C774   C163    1.428   1_556 S
C775   C776    1.430   .     A
C776   N797    1.436   .     S
C776   C777    1.392   .     A
C777   H778    1.085   .     S
H780   N999    1.044   .     S
H781   N795    1.046   .     S
H782   O804    1.014   .     S
H783   N796    1.046   .     S
H784   N796    1.046   .     S
H785   N797    1.045   .     S
H786   N797    1.045   .     S
H789   C623    1.086   1_655 S
H790   C966    1.086   .     S
N795   C1169   1.443   1_545 S
N795   H1188   1.044   1_545 S
O798   Zn814   1.942   .     S
O798   Zn813   1.954   .     S
O798   Zn815   1.928   .     S
O798   Zn816   1.938   .     S
O799   Zn814   1.924   .     S
O800   Zn816   1.933   .     S
O801   Zn815   1.931   .     S
O802   Zn813   1.925   .     S
O805   Zn813   1.930   .     S
O806   Zn816   1.929   .     S
O807   Zn814   1.928   .     S
O808   Zn815   1.936   .     S
O809   Zn816   1.930   .     S
O810   Zn813   1.923   .     S
O811   Zn814   1.936   .     S
O812   Zn815   1.934   .     S
C817   O875    1.271   .     A
C817   O877    1.271   .     A
C817   C827    1.437   .     S
C818   C819    1.385   .     A
C818   C842    1.415   .     A
C818   H847    1.077   .     S
C819   H860    1.084   .     S
C819   C209    1.391   1_556 S
C820   O876    1.278   .     A
C820   C826    1.455   .     S
C820   O878    1.275   .     A
C821   C822    1.416   .     A
C821   C823    1.402   .     A
C822   C843    1.430   .     A
C822   C825    1.405   .     A
C823   H855    1.084   .     S
C823   C824    1.401   .     A
C824   C838    1.492   .     S
C824   C836    1.415   .     A
C825   C836    1.395   .     A
C825   H859    1.077   .     S
C826   C895    1.334   .     S
C826   H924    1.088   .     S
C827   C962    1.334   1_455 S
C827   H993    1.086   1_455 S
C828   N864    1.433   .     S
C828   C835    1.411   .     A
C828   C837    1.399   .     A
C829   C832    1.463   .     S
C829   C1034   1.337   .     S
C829   N1067   1.443   .     S
C830   C831    1.438   .     S
C831   O873    1.274   .     A
C831   O879    1.276   .     A
C832   O874    1.275   .     A
C832   O880    1.269   .     A
C833   O869    1.273   .     A
C833   O867    1.273   .     A
C833   C836    1.459   .     S
C834   O868    1.284   .     A
C834   O870    1.288   .     A
C834   C835    1.480   .     S
C835   C839    1.401   .     A
C837   C841    1.401   .     A
C837   H861    1.085   .     S
C838   O871    1.223   .     D
C838   O872    1.399   .     S
C839   C840    1.410   .     A
C839   H862    1.076   .     S
C840   C842    1.425   .     A
C840   C841    1.413   .     A
C841   C233    1.392   1_556 S
C842   C231    1.428   1_556 S
C843   C844    1.430   .     A
C844   N865    1.436   .     S
C844   C845    1.392   .     A
C845   H846    1.085   .     S
H848   N1067   1.044   .     S
H849   N863    1.046   .     S
H850   O872    1.014   .     S
H851   N864    1.046   .     S
H852   N864    1.046   .     S
H853   N865    1.045   .     S
H854   N865    1.045   .     S
H856   C962    1.088   1_455 S
H857   C895    1.086   .     S
H858   C1034   1.086   .     S
O866   Zn882   1.942   .     S
O866   Zn881   1.954   .     S
O866   Zn883   1.928   .     S
O866   Zn884   1.938   .     S
O867   Zn882   1.924   .     S
O868   Zn884   1.933   .     S
O869   Zn883   1.931   .     S
O870   Zn881   1.925   .     S
O873   Zn881   1.930   .     S
O874   Zn884   1.929   .     S
O875   Zn882   1.928   .     S
O876   Zn883   1.936   .     S
O877   Zn884   1.930   .     S
O878   Zn881   1.923   .     S
O879   Zn882   1.936   .     S
O880   Zn883   1.934   .     S
C885   O943    1.271   .     A
C885   O945    1.271   .     A
C885   C895    1.437   .     S
C886   C887    1.385   .     A
C886   C910    1.415   .     A
C886   H915    1.077   .     S
C887   H928    1.084   .     S
C887   C277    1.391   1_556 S
C888   O944    1.278   .     A
C888   C894    1.455   .     S
C888   O946    1.275   .     A
C889   C890    1.416   .     A
C889   C891    1.402   .     A
C890   C911    1.430   .     A
C890   C893    1.405   .     A
C891   H923    1.084   .     S
C891   C892    1.401   .     A
C892   C906    1.492   .     S
C892   C904    1.415   .     A
C893   C904    1.395   .     A
C893   H927    1.077   .     S
C894   C963    1.334   .     S
C894   H992    1.088   .     S
C896   N932    1.433   .     S
C896   C903    1.411   .     A
C896   C905    1.399   .     A
C897   C900    1.463   .     S
C897   C1102   1.337   .     S
C897   N1135   1.443   .     S
C898   C899    1.438   .     S
C899   O941    1.274   .     A
C899   O947    1.276   .     A
C900   O942    1.275   .     A
C900   O948    1.269   .     A
C901   O937    1.273   .     A
C901   O935    1.273   .     A
C901   C904    1.459   .     S
C902   O936    1.284   .     A
C902   O938    1.288   .     A
C902   C903    1.480   .     S
C903   C907    1.401   .     A
C905   C909    1.401   .     A
C905   H929    1.085   .     S
C906   O939    1.223   .     D
C906   O940    1.399   .     S
C907   C908    1.410   .     A
C907   H930    1.076   .     S
C908   C910    1.425   .     A
C908   C909    1.413   .     A
C909   C301    1.392   1_556 S
C910   C299    1.428   1_556 S
C911   C912    1.430   .     A
C912   N933    1.436   .     S
C912   C913    1.392   .     A
C913   H914    1.085   .     S
H916   N1135   1.044   .     S
H917   N931    1.046   .     S
H918   O940    1.014   .     S
H919   N932    1.046   .     S
H920   N932    1.046   .     S
H921   N933    1.045   .     S
H922   N933    1.045   .     S
H925   C963    1.086   .     S
H926   C1102   1.086   .     S
O934   Zn950   1.942   .     S
O934   Zn949   1.954   .     S
O934   Zn951   1.928   .     S
O934   Zn952   1.938   .     S
O935   Zn950   1.924   .     S
O936   Zn952   1.933   .     S
O937   Zn951   1.931   .     S
O938   Zn949   1.925   .     S
O941   Zn949   1.930   .     S
O942   Zn952   1.929   .     S
O943   Zn950   1.928   .     S
O944   Zn951   1.936   .     S
O945   Zn952   1.930   .     S
O946   Zn949   1.923   .     S
O947   Zn950   1.936   .     S
O948   Zn951   1.934   .     S
C953   O1011   1.271   .     A
C953   O1013   1.271   .     A
C953   C963    1.437   .     S
C954   C955    1.385   .     A
C954   C978    1.415   .     A
C954   H983    1.077   .     S
C955   H996    1.084   .     S
C955   C345    1.391   1_556 S
C956   O1012   1.278   .     A
C956   C962    1.455   .     S
C956   O1014   1.275   .     A
C957   C958    1.416   .     A
C957   C959    1.402   .     A
C958   C979    1.430   .     A
C958   C961    1.405   .     A
C959   H991    1.084   .     S
C959   C960    1.401   .     A
C960   C974    1.492   .     S
C960   C972    1.415   .     A
C961   C972    1.395   .     A
C961   H995    1.077   .     S
C962   C827    1.334   1_655 S
C962   H856    1.088   1_655 S
C964   N1000   1.433   .     S
C964   C971    1.411   .     A
C964   C973    1.399   .     A
C965   C968    1.463   .     S
C965   C1170   1.337   .     S
C965   N1203   1.443   .     S
C966   C967    1.438   .     S
C967   O1009   1.274   .     A
C967   O1015   1.276   .     A
C968   O1010   1.275   .     A
C968   O1016   1.269   .     A
C969   O1005   1.273   .     A
C969   O1003   1.273   .     A
C969   C972    1.459   .     S
C970   O1004   1.284   .     A
C970   O1006   1.288   .     A
C970   C971    1.480   .     S
C971   C975    1.401   .     A
C973   C977    1.401   .     A
C973   H997    1.085   .     S
C974   O1007   1.223   .     D
C974   O1008   1.399   .     S
C975   C976    1.410   .     A
C975   H998    1.076   .     S
C976   C978    1.425   .     A
C976   C977    1.413   .     A
C977   C369    1.392   1_556 S
C978   C367    1.428   1_556 S
C979   C980    1.430   .     A
C980   N1001   1.436   .     S
C980   C981    1.392   .     A
C981   H982    1.085   .     S
H984   N1203   1.044   .     S
H985   N999    1.046   .     S
H986   O1008   1.014   .     S
H987   N1000   1.046   .     S
H988   N1000   1.046   .     S
H989   N1001   1.045   .     S
H990   N1001   1.045   .     S
H993   C827    1.086   1_655 S
H994   C1170   1.086   .     S
O1002  Zn1018  1.942   .     S
O1002  Zn1017  1.954   .     S
O1002  Zn1019  1.928   .     S
O1002  Zn1020  1.938   .     S
O1003  Zn1018  1.924   .     S
O1004  Zn1020  1.933   .     S
O1005  Zn1019  1.931   .     S
O1006  Zn1017  1.925   .     S
O1009  Zn1017  1.930   .     S
O1010  Zn1020  1.929   .     S
O1011  Zn1018  1.928   .     S
O1012  Zn1019  1.936   .     S
O1013  Zn1020  1.930   .     S
O1014  Zn1017  1.923   .     S
O1015  Zn1018  1.936   .     S
O1016  Zn1019  1.934   .     S
C1021  O1079   1.271   .     A
C1021  O1081   1.271   .     A
C1021  C1031   1.437   .     S
C1022  C1023   1.385   .     A
C1022  C1046   1.415   .     A
C1022  H1051   1.077   .     S
C1023  H1064   1.084   .     S
C1023  C413    1.391   1_556 S
C1024  O1080   1.278   .     A
C1024  C1030   1.455   .     S
C1024  O1082   1.275   .     A
C1025  C1026   1.416   .     A
C1025  C1027   1.402   .     A
C1026  C1047   1.430   .     A
C1026  C1029   1.405   .     A
C1027  H1059   1.084   .     S
C1027  C1028   1.401   .     A
C1028  C1042   1.492   .     S
C1028  C1040   1.415   .     A
C1029  C1040   1.395   .     A
C1029  H1063   1.077   .     S
C1030  C1099   1.334   .     S
C1030  H1128   1.088   .     S
C1031  C1166   1.334   1_455 S
C1031  H1197   1.086   1_455 S
C1032  N1068   1.433   .     S
C1032  C1039   1.411   .     A
C1032  C1041   1.399   .     A
C1033  C1036   1.463   .     S
C1033  C626    1.337   1_565 S
C1033  N659    1.443   1_565 S
C1034  C1035   1.438   .     S
C1035  O1077   1.274   .     A
C1035  O1083   1.276   .     A
C1036  O1078   1.275   .     A
C1036  O1084   1.269   .     A
C1037  O1073   1.273   .     A
C1037  O1071   1.273   .     A
C1037  C1040   1.459   .     S
C1038  O1072   1.284   .     A
C1038  O1074   1.288   .     A
C1038  C1039   1.480   .     S
C1039  C1043   1.401   .     A
C1041  C1045   1.401   .     A
C1041  H1065   1.085   .     S
C1042  O1075   1.223   .     D
C1042  O1076   1.399   .     S
C1043  C1044   1.410   .     A
C1043  H1066   1.076   .     S
C1044  C1046   1.425   .     A
C1044  C1045   1.413   .     A
C1045  C437    1.392   1_556 S
C1046  C435    1.428   1_556 S
C1047  C1048   1.430   .     A
C1048  N1069   1.436   .     S
C1048  C1049   1.392   .     A
C1049  H1050   1.085   .     S
H1052  N659    1.044   1_565 S
H1053  N1067   1.046   .     S
H1054  O1076   1.014   .     S
H1055  N1068   1.046   .     S
H1056  N1068   1.046   .     S
H1057  N1069   1.045   .     S
H1058  N1069   1.045   .     S
H1060  C1166   1.088   1_455 S
H1061  C1099   1.086   .     S
H1062  C626    1.086   1_565 S
O1070  Zn1086  1.942   .     S
O1070  Zn1085  1.954   .     S
O1070  Zn1087  1.928   .     S
O1070  Zn1088  1.938   .     S
O1071  Zn1086  1.924   .     S
O1072  Zn1088  1.933   .     S
O1073  Zn1087  1.931   .     S
O1074  Zn1085  1.925   .     S
O1077  Zn1085  1.930   .     S
O1078  Zn1088  1.929   .     S
O1079  Zn1086  1.928   .     S
O1080  Zn1087  1.936   .     S
O1081  Zn1088  1.930   .     S
O1082  Zn1085  1.923   .     S
O1083  Zn1086  1.936   .     S
O1084  Zn1087  1.934   .     S
C1089  O1147   1.271   .     A
C1089  O1149   1.271   .     A
C1089  C1099   1.437   .     S
C1090  C1091   1.385   .     A
C1090  C1114   1.415   .     A
C1090  H1119   1.077   .     S
C1091  H1132   1.084   .     S
C1091  C481    1.391   1_556 S
C1092  O1148   1.278   .     A
C1092  C1098   1.455   .     S
C1092  O1150   1.275   .     A
C1093  C1094   1.416   .     A
C1093  C1095   1.402   .     A
C1094  C1115   1.430   .     A
C1094  C1097   1.405   .     A
C1095  H1127   1.084   .     S
C1095  C1096   1.401   .     A
C1096  C1110   1.492   .     S
C1096  C1108   1.415   .     A
C1097  C1108   1.395   .     A
C1097  H1131   1.077   .     S
C1098  C1167   1.334   .     S
C1098  H1196   1.088   .     S
C1100  N1136   1.433   .     S
C1100  C1107   1.411   .     A
C1100  C1109   1.399   .     A
C1101  C1104   1.463   .     S
C1101  C694    1.337   1_565 S
C1101  N727    1.443   1_565 S
C1102  C1103   1.438   .     S
C1103  O1145   1.274   .     A
C1103  O1151   1.276   .     A
C1104  O1146   1.275   .     A
C1104  O1152   1.269   .     A
C1105  O1141   1.273   .     A
C1105  O1139   1.273   .     A
C1105  C1108   1.459   .     S
C1106  O1140   1.284   .     A
C1106  O1142   1.288   .     A
C1106  C1107   1.480   .     S
C1107  C1111   1.401   .     A
C1109  C1113   1.401   .     A
C1109  H1133   1.085   .     S
C1110  O1143   1.223   .     D
C1110  O1144   1.399   .     S
C1111  C1112   1.410   .     A
C1111  H1134   1.076   .     S
C1112  C1114   1.425   .     A
C1112  C1113   1.413   .     A
C1113  C505    1.392   1_556 S
C1114  C503    1.428   1_556 S
C1115  C1116   1.430   .     A
C1116  N1137   1.436   .     S
C1116  C1117   1.392   .     A
C1117  H1118   1.085   .     S
H1120  N727    1.044   1_565 S
H1121  N1135   1.046   .     S
H1122  O1144   1.014   .     S
H1123  N1136   1.046   .     S
H1124  N1136   1.046   .     S
H1125  N1137   1.045   .     S
H1126  N1137   1.045   .     S
H1129  C1167   1.086   .     S
H1130  C694    1.086   1_565 S
O1138  Zn1154  1.942   .     S
O1138  Zn1153  1.954   .     S
O1138  Zn1155  1.928   .     S
O1138  Zn1156  1.938   .     S
O1139  Zn1154  1.924   .     S
O1140  Zn1156  1.933   .     S
O1141  Zn1155  1.931   .     S
O1142  Zn1153  1.925   .     S
O1145  Zn1153  1.930   .     S
O1146  Zn1156  1.929   .     S
O1147  Zn1154  1.928   .     S
O1148  Zn1155  1.936   .     S
O1149  Zn1156  1.930   .     S
O1150  Zn1153  1.923   .     S
O1151  Zn1154  1.936   .     S
O1152  Zn1155  1.934   .     S
C1157  O1215   1.271   .     A
C1157  O1217   1.271   .     A
C1157  C1167   1.437   .     S
C1158  C1159   1.385   .     A
C1158  C1182   1.415   .     A
C1158  H1187   1.077   .     S
C1159  H1200   1.084   .     S
C1159  C549    1.391   1_556 S
C1160  O1216   1.278   .     A
C1160  C1166   1.455   .     S
C1160  O1218   1.275   .     A
C1161  C1162   1.416   .     A
C1161  C1163   1.402   .     A
C1162  C1183   1.430   .     A
C1162  C1165   1.405   .     A
C1163  H1195   1.084   .     S
C1163  C1164   1.401   .     A
C1164  C1178   1.492   .     S
C1164  C1176   1.415   .     A
C1165  C1176   1.395   .     A
C1165  H1199   1.077   .     S
C1166  C1031   1.334   1_655 S
C1166  H1060   1.088   1_655 S
C1168  N1204   1.433   .     S
C1168  C1175   1.411   .     A
C1168  C1177   1.399   .     A
C1169  C1172   1.463   .     S
C1169  C762    1.337   1_565 S
C1169  N795    1.443   1_565 S
C1170  C1171   1.438   .     S
C1171  O1213   1.274   .     A
C1171  O1219   1.276   .     A
C1172  O1214   1.275   .     A
C1172  O1220   1.269   .     A
C1173  O1209   1.273   .     A
C1173  O1207   1.273   .     A
C1173  C1176   1.459   .     S
C1174  O1208   1.284   .     A
C1174  O1210   1.288   .     A
C1174  C1175   1.480   .     S
C1175  C1179   1.401   .     A
C1177  C1181   1.401   .     A
C1177  H1201   1.085   .     S
C1178  O1211   1.223   .     D
C1178  O1212   1.399   .     S
C1179  C1180   1.410   .     A
C1179  H1202   1.076   .     S
C1180  C1182   1.425   .     A
C1180  C1181   1.413   .     A
C1181  C573    1.392   1_556 S
C1182  C571    1.428   1_556 S
C1183  C1184   1.430   .     A
C1184  N1205   1.436   .     S
C1184  C1185   1.392   .     A
C1185  H1186   1.085   .     S
H1188  N795    1.044   1_565 S
H1189  N1203   1.046   .     S
H1190  O1212   1.014   .     S
H1191  N1204   1.046   .     S
H1192  N1204   1.046   .     S
H1193  N1205   1.045   .     S
H1194  N1205   1.045   .     S
H1197  C1031   1.086   1_655 S
H1198  C762    1.086   1_565 S
O1206  Zn1222  1.942   .     S
O1206  Zn1221  1.954   .     S
O1206  Zn1223  1.928   .     S
O1206  Zn1224  1.938   .     S
O1207  Zn1222  1.924   .     S
O1208  Zn1224  1.933   .     S
O1209  Zn1223  1.931   .     S
O1210  Zn1221  1.925   .     S
O1213  Zn1221  1.930   .     S
O1214  Zn1224  1.929   .     S
O1215  Zn1222  1.928   .     S
O1216  Zn1223  1.936   .     S
O1217  Zn1224  1.930   .     S
O1218  Zn1221  1.923   .     S
O1219  Zn1222  1.936   .     S
O1220  Zn1223  1.934   .     S
