data_str_m1_o1_o2_pcu_sym.49
_audit_creation_date              2020-01-03
_audit_creation_method            'Materials Studio'
_symmetry_space_group_name_H-M    'P1'
_symmetry_Int_Tables_number       1
_symmetry_cell_setting            triclinic
loop_
_symmetry_equiv_pos_as_xyz
  x,y,z
_cell_length_a                    36.5454
_cell_length_b                    36.6222
_cell_length_c                    34.5821
_cell_angle_alpha                 89.9876
_cell_angle_beta                  90.1070
_cell_angle_gamma                 90.0202
loop_
_atom_site_label
_atom_site_type_symbol
_atom_site_fract_x
_atom_site_fract_y
_atom_site_fract_z
_atom_site_U_iso_or_equiv
_atom_site_adp_type
_atom_site_occupancy
C1     C     0.21863   0.48915   0.04175   0.00000  Uiso   1.00
C2     C     0.03137   0.26085   0.45825   0.00000  Uiso   1.00
C3     C     0.34811   0.40194   0.75046   0.00000  Uiso   1.00
C4     C     0.40190   0.15194   0.24965   0.00000  Uiso   1.00
C5     C     0.09810   0.34806   0.75036   0.00000  Uiso   1.00
C6     C     0.34810   0.40194   0.25035   0.00000  Uiso   1.00
C7     C     0.15190   0.09806   0.74965   0.00000  Uiso   1.00
C8     C     0.09810   0.15194   0.75035   0.00000  Uiso   1.00
C9     C     0.40190   0.34806   0.24965   0.00000  Uiso   1.00
C10    C     0.15190   0.40194   0.74964   0.00000  Uiso   1.00
C11    C     0.34810   0.09806   0.25036   0.00000  Uiso   1.00
C12    C     0.40189   0.34806   0.74953   0.00000  Uiso   1.00
C13    C     0.26085   0.46872   0.54185   0.00000  Uiso   1.00
C14    C     0.09811   0.15194   0.25047   0.00000  Uiso   1.00
C15    C     0.34806   0.09810   0.75029   0.00000  Uiso   1.00
C16    C     0.15194   0.40190   0.24972   0.00000  Uiso   1.00
C17    C     0.24995   0.00003   0.10242   0.00000  Uiso   1.00
C18    C     0.25005   0.00003   0.89758   0.00000  Uiso   1.00
C19    C     0.00001   0.25001   0.10243   0.00000  Uiso   1.00
C20    C    -0.00000   0.24999   0.89757   0.00000  Uiso   1.00
C21    C     0.49995   0.24997   0.60242   0.00000  Uiso   1.00
C22    C     0.00005   0.24997   0.39758   0.00000  Uiso   1.00
C23    C     0.25001   0.00001   0.60243   0.00000  Uiso   1.00
C24    C     0.26088   0.03128   0.45819   0.00000  Uiso   1.00
C25    C     0.25000   0.49999   0.39756   0.00000  Uiso   1.00
C26    C     0.19531   0.36105   0.21122   0.00000  Uiso   1.00
C27    C     0.30459   0.13906   0.78852   0.00000  Uiso   1.00
C28    C     0.14041   0.19867   0.22032   0.00000  Uiso   1.00
C29    C     0.44727   0.39098   0.71647   0.00000  Uiso   1.00
C30    C     0.39131   0.05282   0.28334   0.00000  Uiso   1.00
C31    C     0.10866   0.44721   0.71675   0.00000  Uiso   1.00
C32    C     0.44871   0.38987   0.28073   0.00000  Uiso   1.00
C33    C     0.05132   0.11016   0.71918   0.00000  Uiso   1.00
C34    C     0.10884   0.05302   0.71613   0.00000  Uiso   1.00
C35    C     0.03132   0.23914   0.54189   0.00000  Uiso   1.00
C36    C     0.39119   0.44701   0.28378   0.00000  Uiso   1.00
C37    C     0.05109   0.39012   0.72001   0.00000  Uiso   1.00
C38    C     0.44887   0.10991   0.28009   0.00000  Uiso   1.00
C39    C     0.39035   0.44862   0.72015   0.00000  Uiso   1.00
C40    C     0.19732   0.14103   0.21661   0.00000  Uiso   1.00
C41    C     0.36218   0.19626   0.78672   0.00000  Uiso   1.00
C42    C     0.13770   0.30385   0.21299   0.00000  Uiso   1.00
C43    C     0.44541   0.11094   0.71148   0.00000  Uiso   1.00
C44    C     0.05469   0.38895   0.28878   0.00000  Uiso   1.00
C45    C     0.30273   0.35902   0.78353   0.00000  Uiso   1.00
C46    C     0.46868   0.23913   0.45811   0.00000  Uiso   1.00
C47    C     0.10958   0.05132   0.27965   0.00000  Uiso   1.00
C48    C     0.14133   0.30279   0.78327   0.00000  Uiso   1.00
C49    C     0.35869   0.19719   0.21668   0.00000  Uiso   1.00
C50    C     0.19868   0.13985   0.78081   0.00000  Uiso   1.00
C51    C     0.30129   0.36013   0.21927   0.00000  Uiso   1.00
C52    C     0.35881   0.30299   0.21620   0.00000  Uiso   1.00
C53    C     0.14117   0.19699   0.78385   0.00000  Uiso   1.00
C54    C     0.30112   0.14009   0.21992   0.00000  Uiso   1.00
C55    C     0.19890   0.35988   0.77999   0.00000  Uiso   1.00
C56    C     0.05268   0.10897   0.28339   0.00000  Uiso   1.00
C57    C     0.23915   0.03129   0.54179   0.00000  Uiso   1.00
C58    C     0.35964   0.30137   0.77983   0.00000  Uiso   1.00
C59    C     0.11231   0.44614   0.28704   0.00000  Uiso   1.00
C60    C     0.38783   0.05373   0.71331   0.00000  Uiso   1.00
C61    C     0.23911   0.46872   0.45816   0.00000  Uiso   1.00
C62    C     0.21852   0.48943   0.08199   0.00000  Uiso   1.00
C63    C     0.28148   0.48945   0.91801   0.00000  Uiso   1.00
C64    C     0.01060   0.21864   0.08209   0.00000  Uiso   1.00
C65    C     0.28138   0.48917   0.95826   0.00000  Uiso   1.00
C66    C     0.01062   0.28136   0.91795   0.00000  Uiso   1.00
C67    C     0.28138   0.01063   0.08212   0.00000  Uiso   1.00
C68    C     0.21862   0.01061   0.91787   0.00000  Uiso   1.00
C69    C     0.48941   0.28137   0.08204   0.00000  Uiso   1.00
C70    C     0.48937   0.21863   0.91792   0.00000  Uiso   1.00
C71    C     0.46852   0.26055   0.58199   0.00000  Uiso   1.00
C72    C     0.03148   0.26057   0.41801   0.00000  Uiso   1.00
C73    C     0.26060   0.46864   0.58209   0.00000  Uiso   1.00
C74    C     0.26062   0.03136   0.41795   0.00000  Uiso   1.00
C75    C     0.03138   0.23939   0.58213   0.00000  Uiso   1.00
C76    C     0.01085   0.21872   0.04185   0.00000  Uiso   1.00
C77    C     0.46862   0.23937   0.41788   0.00000  Uiso   1.00
C78    C     0.23941   0.03137   0.58204   0.00000  Uiso   1.00
C79    C     0.23937   0.46864   0.41792   0.00000  Uiso   1.00
C80    C     0.24999  -0.00000   0.02132   0.00000  Uiso   1.00
C81    C     0.25001   0.00000   0.97868   0.00000  Uiso   1.00
C82    C    -0.00000   0.25000   0.02132   0.00000  Uiso   1.00
C83    C    -0.00000   0.25000   0.97868   0.00000  Uiso   1.00
C84    C     0.49999   0.25000   0.52132   0.00000  Uiso   1.00
C85    C     0.00001   0.25000   0.47868   0.00000  Uiso   1.00
C86    C     0.25000   0.00000   0.52132   0.00000  Uiso   1.00
C87    C     0.01088   0.28128   0.95819   0.00000  Uiso   1.00
C88    C     0.24999  -0.00000   0.47868   0.00000  Uiso   1.00
C89    C     0.25000  -0.00000   0.35522   0.00000  Uiso   1.00
C90    C     0.25000   0.00000   0.64478   0.00000  Uiso   1.00
C91    C     0.00003   0.24999   0.35525   0.00000  Uiso   1.00
C92    C     0.49997   0.24999   0.64475   0.00000  Uiso   1.00
C93    C    -0.00000   0.25000   0.85522   0.00000  Uiso   1.00
C94    C     0.00000   0.25000   0.14478   0.00000  Uiso   1.00
C95    C     0.25003   0.00001   0.85525   0.00000  Uiso   1.00
C96    C     0.24997   0.00001   0.14475   0.00000  Uiso   1.00
C97    C     0.17996   0.06992   0.24996   0.00000  Uiso   1.00
C98    C     0.28132   0.01087   0.04189   0.00000  Uiso   1.00
C99    C     0.32004   0.43008   0.75004   0.00000  Uiso   1.00
C100   C     0.43007   0.18000   0.25000   0.00000  Uiso   1.00
C101   C     0.06993   0.32000   0.75000   0.00000  Uiso   1.00
C102   C     0.31994   0.43000   0.25001   0.00000  Uiso   1.00
C103   C     0.18006   0.07000   0.74999   0.00000  Uiso   1.00
C104   C     0.07003   0.31993   0.25000   0.00000  Uiso   1.00
C105   C     0.42997   0.18008   0.75000   0.00000  Uiso   1.00
C106   C     0.18007   0.43000   0.75000   0.00000  Uiso   1.00
C107   C     0.31993   0.07000   0.25000   0.00000  Uiso   1.00
C108   C     0.42996   0.31992   0.74996   0.00000  Uiso   1.00
C109   C     0.21868   0.01085   0.95811   0.00000  Uiso   1.00
C110   C     0.07004   0.18008   0.25004   0.00000  Uiso   1.00
C111   C     0.32003   0.06993   0.75000   0.00000  Uiso   1.00
C112   C     0.17997   0.43008   0.25000   0.00000  Uiso   1.00
C113   C     0.06994   0.18000   0.75001   0.00000  Uiso   1.00
C114   C     0.43006   0.32000   0.24999   0.00000  Uiso   1.00
C115   C     0.15911   0.36808   0.23155   0.00000  Uiso   1.00
C116   C     0.34083   0.13198   0.76832   0.00000  Uiso   1.00
C117   C     0.13305   0.16033   0.23536   0.00000  Uiso   1.00
C118   C     0.41015   0.38297   0.73440   0.00000  Uiso   1.00
C119   C     0.38315   0.08989   0.26547   0.00000  Uiso   1.00
C120   C     0.48915   0.28129   0.04179   0.00000  Uiso   1.00
C121   C     0.11684   0.41013   0.73458   0.00000  Uiso   1.00
C122   C     0.41039   0.38285   0.26497   0.00000  Uiso   1.00
C123   C     0.08962   0.11717   0.73499   0.00000  Uiso   1.00
C124   C     0.11693   0.08998   0.73424   0.00000  Uiso   1.00
C125   C     0.38309   0.41003   0.26571   0.00000  Uiso   1.00
C126   C     0.08952   0.38295   0.73535   0.00000  Uiso   1.00
C127   C     0.41046   0.11707   0.26470   0.00000  Uiso   1.00
C128   C     0.38302   0.41030   0.73527   0.00000  Uiso   1.00
C129   C     0.16018   0.13299   0.23447   0.00000  Uiso   1.00
C130   C     0.36811   0.15921   0.76788   0.00000  Uiso   1.00
C131   C     0.48911   0.21872   0.95816   0.00000  Uiso   1.00
C132   C     0.13183   0.34085   0.23198   0.00000  Uiso   1.00
C133   C     0.40917   0.11802   0.73168   0.00000  Uiso   1.00
C134   C     0.09089   0.38192   0.26846   0.00000  Uiso   1.00
C135   C     0.33985   0.36703   0.76560   0.00000  Uiso   1.00
C136   C     0.11695   0.08967   0.26463   0.00000  Uiso   1.00
C137   C     0.13316   0.33987   0.76543   0.00000  Uiso   1.00
C138   C     0.36685   0.16012   0.23454   0.00000  Uiso   1.00
C139   C     0.16038   0.13283   0.76501   0.00000  Uiso   1.00
C140   C     0.33961   0.36716   0.23503   0.00000  Uiso   1.00
C141   C     0.36692   0.33997   0.23428   0.00000  Uiso   1.00
C142   C     0.46863   0.26083   0.54174   0.00000  Uiso   1.00
C143   C     0.13308   0.16002   0.76575   0.00000  Uiso   1.00
C144   C     0.33954   0.13294   0.23531   0.00000  Uiso   1.00
C145   C     0.16048   0.36705   0.76465   0.00000  Uiso   1.00
C146   C     0.08982   0.11701   0.26552   0.00000  Uiso   1.00
C147   C     0.36698   0.33970   0.76472   0.00000  Uiso   1.00
C148   C     0.11817   0.40915   0.26803   0.00000  Uiso   1.00
C149   C     0.38189   0.09079   0.73213   0.00000  Uiso   1.00
C150   C     0.09806   0.34810   0.25028   0.00000  Uiso   1.00
C151   C     0.40194   0.15190   0.74972   0.00000  Uiso   1.00
C152   C     0.15189   0.09806   0.24953   0.00000  Uiso   1.00
H153   H     0.19431   0.48001   0.02666   0.00000  Uiso   1.00
H154   H     0.05569   0.26999   0.47334   0.00000  Uiso   1.00
H155   H     0.20289   0.16729   0.79332   0.00000  Uiso   1.00
H156   H     0.20501   0.11978   0.80395   0.00000  Uiso   1.00
H157   H     0.28098   0.36308   0.24287   0.00000  Uiso   1.00
H158   H     0.29494   0.38018   0.19611   0.00000  Uiso   1.00
H159   H     0.29707   0.33267   0.20678   0.00000  Uiso   1.00
H160   H     0.38253   0.28426   0.21531   0.00000  Uiso   1.00
H161   H     0.33686   0.28903   0.23272   0.00000  Uiso   1.00
H162   H     0.35012   0.30671   0.18567   0.00000  Uiso   1.00
H163   H     0.11746   0.21573   0.78472   0.00000  Uiso   1.00
H164   H     0.14984   0.19326   0.81439   0.00000  Uiso   1.00
H165   H     0.26999   0.44444   0.52684   0.00000  Uiso   1.00
H166   H     0.16314   0.21095   0.76736   0.00000  Uiso   1.00
H167   H     0.28105   0.13714   0.24375   0.00000  Uiso   1.00
H168   H     0.29687   0.16758   0.20754   0.00000  Uiso   1.00
H169   H     0.29450   0.12011   0.19679   0.00000  Uiso   1.00
H170   H     0.21896   0.36285   0.75615   0.00000  Uiso   1.00
H171   H     0.20555   0.37984   0.80313   0.00000  Uiso   1.00
H172   H     0.20317   0.33238   0.79234   0.00000  Uiso   1.00
H173   H     0.03395   0.13267   0.28440   0.00000  Uiso   1.00
H174   H     0.03867   0.08719   0.26663   0.00000  Uiso   1.00
H175   H     0.05631   0.10009   0.31386   0.00000  Uiso   1.00
H176   H     0.27005   0.05555   0.47323   0.00000  Uiso   1.00
H177   H     0.36202   0.28171   0.75561   0.00000  Uiso   1.00
H178   H     0.37994   0.29432   0.80257   0.00000  Uiso   1.00
H179   H     0.33224   0.29727   0.79257   0.00000  Uiso   1.00
H180   H     0.13374   0.45082   0.30930   0.00000  Uiso   1.00
H181   H     0.11420   0.46779   0.26475   0.00000  Uiso   1.00
H182   H     0.08557   0.44956   0.30145   0.00000  Uiso   1.00
H183   H     0.36646   0.04893   0.69101   0.00000  Uiso   1.00
H184   H     0.41461   0.05027   0.69898   0.00000  Uiso   1.00
H185   H     0.38592   0.03218   0.73570   0.00000  Uiso   1.00
H186   H     0.05565   0.23002   0.52692   0.00000  Uiso   1.00
H187   H     0.44435   0.22999   0.47309   0.00000  Uiso   1.00
H188   H     0.23001   0.05556   0.52674   0.00000  Uiso   1.00
H189   H     0.22994   0.44445   0.47318   0.00000  Uiso   1.00
H190   H     0.19405   0.48085   0.09711   0.00000  Uiso   1.00
H191   H     0.30595   0.48089   0.90290   0.00000  Uiso   1.00
H192   H     0.01918   0.19422   0.09728   0.00000  Uiso   1.00
H193   H     0.30569   0.48005   0.97335   0.00000  Uiso   1.00
H194   H     0.01923   0.30577   0.90280   0.00000  Uiso   1.00
H195   H     0.30585   0.01921   0.09734   0.00000  Uiso   1.00
H196   H     0.19415   0.01918   0.90266   0.00000  Uiso   1.00
H197   H     0.48084   0.30579   0.09718   0.00000  Uiso   1.00
H198   H     0.48076   0.19422   0.90275   0.00000  Uiso   1.00
H199   H     0.44405   0.26911   0.59710   0.00000  Uiso   1.00
H200   H     0.05595   0.26915   0.40289   0.00000  Uiso   1.00
H201   H     0.26918   0.44422   0.59728   0.00000  Uiso   1.00
H202   H     0.26923   0.05577   0.40280   0.00000  Uiso   1.00
H203   H     0.05585   0.23082   0.59734   0.00000  Uiso   1.00
H204   H     0.01999   0.19444   0.02684   0.00000  Uiso   1.00
H205   H     0.44415   0.23079   0.40266   0.00000  Uiso   1.00
H206   H     0.23084   0.05579   0.59718   0.00000  Uiso   1.00
H207   H     0.23076   0.44422   0.40275   0.00000  Uiso   1.00
H208   H     0.21450   0.38443   0.21172   0.00000  Uiso   1.00
H209   H     0.20957   0.33774   0.22519   0.00000  Uiso   1.00
H210   H     0.19023   0.35483   0.18025   0.00000  Uiso   1.00
H211   H     0.28540   0.11567   0.78807   0.00000  Uiso   1.00
H212   H     0.30958   0.14538   0.81948   0.00000  Uiso   1.00
H213   H     0.29035   0.16232   0.77443   0.00000  Uiso   1.00
H214   H     0.12014   0.20576   0.19757   0.00000  Uiso   1.00
H215   H     0.02005   0.30555   0.97323   0.00000  Uiso   1.00
H216   H     0.13800   0.21831   0.24457   0.00000  Uiso   1.00
H217   H     0.16783   0.20279   0.20762   0.00000  Uiso   1.00
H218   H     0.46602   0.36728   0.71550   0.00000  Uiso   1.00
H219   H     0.44360   0.39978   0.68598   0.00000  Uiso   1.00
H220   H     0.46129   0.41281   0.73315   0.00000  Uiso   1.00
H221   H     0.36757   0.03411   0.28435   0.00000  Uiso   1.00
H222   H     0.41313   0.03891   0.26659   0.00000  Uiso   1.00
H223   H     0.40022   0.05640   0.31382   0.00000  Uiso   1.00
H224   H     0.13240   0.46592   0.71574   0.00000  Uiso   1.00
H225   H     0.09972   0.44366   0.68628   0.00000  Uiso   1.00
H226   H     0.30565   0.02001   0.02691   0.00000  Uiso   1.00
H227   H     0.08686   0.46111   0.73354   0.00000  Uiso   1.00
H228   H     0.46902   0.38693   0.25712   0.00000  Uiso   1.00
H229   H     0.45293   0.41733   0.29322   0.00000  Uiso   1.00
H230   H     0.45506   0.36982   0.30388   0.00000  Uiso   1.00
H231   H     0.03099   0.11309   0.74277   0.00000  Uiso   1.00
H232   H     0.04499   0.13023   0.69604   0.00000  Uiso   1.00
H233   H     0.04711   0.08271   0.70667   0.00000  Uiso   1.00
H234   H     0.13255   0.03428   0.71525   0.00000  Uiso   1.00
H235   H     0.08687   0.03905   0.73262   0.00000  Uiso   1.00
H236   H     0.10017   0.05675   0.68559   0.00000  Uiso   1.00
H237   H     0.19435   0.01998   0.97308   0.00000  Uiso   1.00
H238   H     0.36748   0.46575   0.28466   0.00000  Uiso   1.00
H239   H     0.39989   0.44331   0.31431   0.00000  Uiso   1.00
H240   H     0.41315   0.46096   0.26725   0.00000  Uiso   1.00
H241   H     0.03104   0.38716   0.74386   0.00000  Uiso   1.00
H242   H     0.04683   0.41762   0.70766   0.00000  Uiso   1.00
H243   H     0.04445   0.37016   0.69687   0.00000  Uiso   1.00
H244   H     0.46895   0.11286   0.25626   0.00000  Uiso   1.00
H245   H     0.45549   0.12989   0.30322   0.00000  Uiso   1.00
H246   H     0.45313   0.08242   0.29247   0.00000  Uiso   1.00
H247   H     0.38797   0.46829   0.74436   0.00000  Uiso   1.00
H248   H     0.48001   0.30556   0.02674   0.00000  Uiso   1.00
H249   H     0.41775   0.45272   0.70740   0.00000  Uiso   1.00
H250   H     0.37005   0.45566   0.69741   0.00000  Uiso   1.00
H251   H     0.21605   0.11733   0.21560   0.00000  Uiso   1.00
H252   H     0.19369   0.14990   0.18614   0.00000  Uiso   1.00
H253   H     0.21132   0.16282   0.23335   0.00000  Uiso   1.00
H254   H     0.38356   0.20105   0.80902   0.00000  Uiso   1.00
H255   H     0.36410   0.21782   0.76434   0.00000  Uiso   1.00
H256   H     0.33541   0.19972   0.80106   0.00000  Uiso   1.00
H257   H     0.11628   0.29915   0.19073   0.00000  Uiso   1.00
H258   H     0.16445   0.30043   0.19858   0.00000  Uiso   1.00
H259   H     0.47994   0.19445   0.97318   0.00000  Uiso   1.00
H260   H     0.13582   0.28221   0.23529   0.00000  Uiso   1.00
H261   H     0.46460   0.13434   0.71193   0.00000  Uiso   1.00
H262   H     0.45966   0.08769   0.72558   0.00000  Uiso   1.00
H263   H     0.44042   0.10461   0.68053   0.00000  Uiso   1.00
H264   H     0.03549   0.36557   0.28828   0.00000  Uiso   1.00
H265   H     0.05977   0.39516   0.31976   0.00000  Uiso   1.00
H266   H     0.04043   0.41227   0.27483   0.00000  Uiso   1.00
H267   H     0.28399   0.38272   0.78450   0.00000  Uiso   1.00
H268   H     0.28871   0.33720   0.76684   0.00000  Uiso   1.00
H269   H     0.30640   0.35021   0.81401   0.00000  Uiso   1.00
H270   H     0.44431   0.26995   0.52665   0.00000  Uiso   1.00
H271   H     0.12985   0.04422   0.30241   0.00000  Uiso   1.00
H272   H     0.08216   0.04720   0.29235   0.00000  Uiso   1.00
H273   H     0.11200   0.03169   0.25540   0.00000  Uiso   1.00
H274   H     0.11759   0.28409   0.78429   0.00000  Uiso   1.00
H275   H     0.16313   0.28889   0.76648   0.00000  Uiso   1.00
H276   H     0.15028   0.30635   0.81373   0.00000  Uiso   1.00
H277   H     0.38242   0.21590   0.21568   0.00000  Uiso   1.00
H278   H     0.34978   0.19361   0.18620   0.00000  Uiso   1.00
H279   H     0.33687   0.21109   0.23343   0.00000  Uiso   1.00
H280   H     0.21901   0.13691   0.75722   0.00000  Uiso   1.00
O281   O     0.25000   0.00000   0.25000   0.00000  Uiso   1.00
O282   O     0.25000   0.46964   0.66317   0.00000  Uiso   1.00
O283   O     0.46964   0.25000   0.33683   0.00000  Uiso   1.00
O284   O     0.03036   0.25000   0.66317   0.00000  Uiso   1.00
O285   O     0.00000   0.21964   0.83683   0.00000  Uiso   1.00
O286   O     0.00000   0.28036   0.16317   0.00000  Uiso   1.00
O287   O     0.28036   0.00000   0.83683   0.00000  Uiso   1.00
O288   O     0.21964   0.00000   0.16317   0.00000  Uiso   1.00
O289   O     0.00000   0.28036   0.83683   0.00000  Uiso   1.00
O290   O     0.00000   0.21964   0.16317   0.00000  Uiso   1.00
O291   O     0.21964   0.00000   0.83683   0.00000  Uiso   1.00
O292   O     0.25000   0.00000   0.75000   0.00000  Uiso   1.00
O293   O     0.28036   0.00000   0.16317   0.00000  Uiso   1.00
O294   O     0.20726   0.07307   0.27282   0.00000  Uiso   1.00
O295   O     0.29275   0.42693   0.72718   0.00000  Uiso   1.00
O296   O     0.42693   0.20726   0.27282   0.00000  Uiso   1.00
O297   O     0.07307   0.29274   0.72718   0.00000  Uiso   1.00
O298   O     0.29275   0.42693   0.27282   0.00000  Uiso   1.00
O299   O     0.20726   0.07307   0.72718   0.00000  Uiso   1.00
O300   O     0.07307   0.29274   0.27282   0.00000  Uiso   1.00
O301   O     0.42693   0.20726   0.72718   0.00000  Uiso   1.00
O302   O     0.20726   0.42693   0.72718   0.00000  Uiso   1.00
O303   O     0.00000   0.25000   0.25000   0.00000  Uiso   1.00
O304   O     0.29275   0.07307   0.27282   0.00000  Uiso   1.00
O305   O     0.42693   0.29275   0.72718   0.00000  Uiso   1.00
O306   O     0.07307   0.20726   0.27282   0.00000  Uiso   1.00
O307   O     0.29275   0.07307   0.72718   0.00000  Uiso   1.00
O308   O     0.20726   0.42693   0.27282   0.00000  Uiso   1.00
O309   O     0.07307   0.20726   0.72718   0.00000  Uiso   1.00
O310   O     0.42693   0.29275   0.27282   0.00000  Uiso   1.00
O311   O     0.45726   0.32307   0.77282   0.00000  Uiso   1.00
O312   O     0.04275   0.17693   0.22718   0.00000  Uiso   1.00
O313   O     0.17693   0.45726   0.77282   0.00000  Uiso   1.00
O314   O     0.00000   0.25000   0.75000   0.00000  Uiso   1.00
O315   O     0.32307   0.04275   0.22718   0.00000  Uiso   1.00
O316   O     0.04275   0.17693   0.77282   0.00000  Uiso   1.00
O317   O     0.45726   0.32307   0.22718   0.00000  Uiso   1.00
O318   O     0.32307   0.04275   0.77282   0.00000  Uiso   1.00
O319   O     0.17693   0.45726   0.22718   0.00000  Uiso   1.00
O320   O     0.45726   0.17693   0.22718   0.00000  Uiso   1.00
O321   O     0.04275   0.32307   0.77282   0.00000  Uiso   1.00
O322   O     0.17693   0.04275   0.22718   0.00000  Uiso   1.00
O323   O     0.32307   0.45726   0.77282   0.00000  Uiso   1.00
O324   O     0.04275   0.32307   0.22718   0.00000  Uiso   1.00
O325   O     0.25000   0.46964   0.33683   0.00000  Uiso   1.00
O326   O     0.45726   0.17693   0.77282   0.00000  Uiso   1.00
O327   O     0.32307   0.45726   0.22718   0.00000  Uiso   1.00
O328   O     0.17693   0.04275   0.77282   0.00000  Uiso   1.00
O329   O     0.25000   0.03036   0.66317   0.00000  Uiso   1.00
O330   O     0.03036   0.25000   0.33683   0.00000  Uiso   1.00
O331   O     0.46964   0.25000   0.66317   0.00000  Uiso   1.00
O332   O     0.25000   0.03036   0.33683   0.00000  Uiso   1.00
Zn333  Zn    0.20660   0.00000   0.21760   0.00000  Uiso   1.00
Zn334  Zn    0.04340   0.25000   0.28240   0.00000  Uiso   1.00
Zn335  Zn    0.25000   0.45660   0.71760   0.00000  Uiso   1.00
Zn336  Zn    0.25000   0.04340   0.28240   0.00000  Uiso   1.00
Zn337  Zn    0.04340   0.25000   0.71760   0.00000  Uiso   1.00
Zn338  Zn    0.45660   0.25000   0.28240   0.00000  Uiso   1.00
Zn339  Zn    0.25000   0.04340   0.71760   0.00000  Uiso   1.00
Zn340  Zn    0.25000   0.45660   0.28240   0.00000  Uiso   1.00
Zn341  Zn    0.29340   0.00000   0.78240   0.00000  Uiso   1.00
Zn342  Zn    0.00000   0.20660   0.21760   0.00000  Uiso   1.00
Zn343  Zn    0.00000   0.29340   0.78240   0.00000  Uiso   1.00
Zn344  Zn    0.29340   0.00000   0.21760   0.00000  Uiso   1.00
Zn345  Zn    0.20660   0.00000   0.78240   0.00000  Uiso   1.00
Zn346  Zn    0.00000   0.29340   0.21760   0.00000  Uiso   1.00
Zn347  Zn    0.00000   0.20660   0.78240   0.00000  Uiso   1.00
Zn348  Zn    0.45660   0.25000   0.71760   0.00000  Uiso   1.00
C349   C     0.71863   0.48915   0.04175   0.00000  Uiso   1.00
C350   C     0.53137   0.26085   0.45825   0.00000  Uiso   1.00
C351   C     0.84811   0.40194   0.75046   0.00000  Uiso   1.00
C352   C     0.90190   0.15194   0.24965   0.00000  Uiso   1.00
C353   C     0.59810   0.34806   0.75036   0.00000  Uiso   1.00
C354   C     0.84810   0.40194   0.25035   0.00000  Uiso   1.00
C355   C     0.65190   0.09806   0.74965   0.00000  Uiso   1.00
C356   C     0.59810   0.15194   0.75035   0.00000  Uiso   1.00
C357   C     0.90190   0.34806   0.24965   0.00000  Uiso   1.00
C358   C     0.65190   0.40194   0.74964   0.00000  Uiso   1.00
C359   C     0.84810   0.09806   0.25036   0.00000  Uiso   1.00
C360   C     0.90189   0.34806   0.74953   0.00000  Uiso   1.00
C361   C     0.76085   0.46872   0.54185   0.00000  Uiso   1.00
C362   C     0.59811   0.15194   0.25047   0.00000  Uiso   1.00
C363   C     0.84806   0.09810   0.75029   0.00000  Uiso   1.00
C364   C     0.65194   0.40190   0.24972   0.00000  Uiso   1.00
C365   C     0.74995   0.00003   0.10242   0.00000  Uiso   1.00
C366   C     0.75005   0.00003   0.89758   0.00000  Uiso   1.00
C367   C     0.50001   0.25001   0.10243   0.00000  Uiso   1.00
C368   C     0.50000   0.24999   0.89757   0.00000  Uiso   1.00
C369   C     0.99995   0.24997   0.60242   0.00000  Uiso   1.00
C370   C     0.50005   0.24997   0.39758   0.00000  Uiso   1.00
C371   C     0.75001   0.00001   0.60243   0.00000  Uiso   1.00
C372   C     0.76088   0.03128   0.45819   0.00000  Uiso   1.00
C373   C     0.75000   0.49999   0.39756   0.00000  Uiso   1.00
C374   C     0.69531   0.36105   0.21122   0.00000  Uiso   1.00
C375   C     0.80459   0.13906   0.78852   0.00000  Uiso   1.00
C376   C     0.64041   0.19867   0.22032   0.00000  Uiso   1.00
C377   C     0.94727   0.39098   0.71647   0.00000  Uiso   1.00
C378   C     0.89131   0.05282   0.28334   0.00000  Uiso   1.00
C379   C     0.60866   0.44721   0.71675   0.00000  Uiso   1.00
C380   C     0.94871   0.38987   0.28073   0.00000  Uiso   1.00
C381   C     0.55132   0.11016   0.71918   0.00000  Uiso   1.00
C382   C     0.60884   0.05302   0.71613   0.00000  Uiso   1.00
C383   C     0.53132   0.23914   0.54189   0.00000  Uiso   1.00
C384   C     0.89119   0.44701   0.28378   0.00000  Uiso   1.00
C385   C     0.55109   0.39012   0.72001   0.00000  Uiso   1.00
C386   C     0.94887   0.10991   0.28009   0.00000  Uiso   1.00
C387   C     0.89035   0.44862   0.72015   0.00000  Uiso   1.00
C388   C     0.69732   0.14103   0.21661   0.00000  Uiso   1.00
C389   C     0.86218   0.19626   0.78672   0.00000  Uiso   1.00
C390   C     0.63770   0.30385   0.21299   0.00000  Uiso   1.00
C391   C     0.94541   0.11094   0.71148   0.00000  Uiso   1.00
C392   C     0.55469   0.38895   0.28878   0.00000  Uiso   1.00
C393   C     0.80273   0.35902   0.78353   0.00000  Uiso   1.00
C394   C     0.96868   0.23913   0.45811   0.00000  Uiso   1.00
C395   C     0.60958   0.05132   0.27965   0.00000  Uiso   1.00
C396   C     0.64133   0.30279   0.78327   0.00000  Uiso   1.00
C397   C     0.85869   0.19719   0.21668   0.00000  Uiso   1.00
C398   C     0.69868   0.13985   0.78081   0.00000  Uiso   1.00
C399   C     0.80129   0.36013   0.21927   0.00000  Uiso   1.00
C400   C     0.85881   0.30299   0.21620   0.00000  Uiso   1.00
C401   C     0.64117   0.19699   0.78385   0.00000  Uiso   1.00
C402   C     0.80112   0.14009   0.21992   0.00000  Uiso   1.00
C403   C     0.69890   0.35988   0.77999   0.00000  Uiso   1.00
C404   C     0.55268   0.10897   0.28339   0.00000  Uiso   1.00
C405   C     0.73915   0.03129   0.54179   0.00000  Uiso   1.00
C406   C     0.85964   0.30137   0.77983   0.00000  Uiso   1.00
C407   C     0.61231   0.44614   0.28704   0.00000  Uiso   1.00
C408   C     0.88783   0.05373   0.71331   0.00000  Uiso   1.00
C409   C     0.73911   0.46872   0.45816   0.00000  Uiso   1.00
C410   C     0.71852   0.48943   0.08199   0.00000  Uiso   1.00
C411   C     0.78148   0.48945   0.91801   0.00000  Uiso   1.00
C412   C     0.51060   0.21864   0.08209   0.00000  Uiso   1.00
C413   C     0.78138   0.48917   0.95826   0.00000  Uiso   1.00
C414   C     0.51062   0.28136   0.91795   0.00000  Uiso   1.00
C415   C     0.78138   0.01063   0.08212   0.00000  Uiso   1.00
C416   C     0.71862   0.01061   0.91787   0.00000  Uiso   1.00
C417   C     0.98941   0.28137   0.08204   0.00000  Uiso   1.00
C418   C     0.98937   0.21863   0.91792   0.00000  Uiso   1.00
C419   C     0.96852   0.26055   0.58199   0.00000  Uiso   1.00
C420   C     0.53148   0.26057   0.41801   0.00000  Uiso   1.00
C421   C     0.76060   0.46864   0.58209   0.00000  Uiso   1.00
C422   C     0.76062   0.03136   0.41795   0.00000  Uiso   1.00
C423   C     0.53138   0.23939   0.58213   0.00000  Uiso   1.00
C424   C     0.51085   0.21872   0.04185   0.00000  Uiso   1.00
C425   C     0.96862   0.23937   0.41788   0.00000  Uiso   1.00
C426   C     0.73941   0.03137   0.58204   0.00000  Uiso   1.00
C427   C     0.73937   0.46864   0.41792   0.00000  Uiso   1.00
C428   C     0.74999  -0.00000   0.02132   0.00000  Uiso   1.00
C429   C     0.75001   0.00000   0.97868   0.00000  Uiso   1.00
C430   C     0.50000   0.25000   0.02132   0.00000  Uiso   1.00
C431   C     0.50000   0.25000   0.97868   0.00000  Uiso   1.00
C432   C     0.99999   0.25000   0.52132   0.00000  Uiso   1.00
C433   C     0.50001   0.25000   0.47868   0.00000  Uiso   1.00
C434   C     0.75000   0.00000   0.52132   0.00000  Uiso   1.00
C435   C     0.51088   0.28128   0.95819   0.00000  Uiso   1.00
C436   C     0.74999  -0.00000   0.47868   0.00000  Uiso   1.00
C437   C     0.75000  -0.00000   0.35522   0.00000  Uiso   1.00
C438   C     0.75000   0.00000   0.64478   0.00000  Uiso   1.00
C439   C     0.50003   0.24999   0.35525   0.00000  Uiso   1.00
C440   C     0.99997   0.24999   0.64475   0.00000  Uiso   1.00
C441   C     0.50000   0.25000   0.85522   0.00000  Uiso   1.00
C442   C     0.50000   0.25000   0.14478   0.00000  Uiso   1.00
C443   C     0.75003   0.00001   0.85525   0.00000  Uiso   1.00
C444   C     0.74997   0.00001   0.14475   0.00000  Uiso   1.00
C445   C     0.67996   0.06992   0.24996   0.00000  Uiso   1.00
C446   C     0.78132   0.01087   0.04189   0.00000  Uiso   1.00
C447   C     0.82004   0.43008   0.75004   0.00000  Uiso   1.00
C448   C     0.93007   0.18000   0.25000   0.00000  Uiso   1.00
C449   C     0.56993   0.32000   0.75000   0.00000  Uiso   1.00
C450   C     0.81994   0.43000   0.25001   0.00000  Uiso   1.00
C451   C     0.68006   0.07000   0.74999   0.00000  Uiso   1.00
C452   C     0.57003   0.31993   0.25000   0.00000  Uiso   1.00
C453   C     0.92997   0.18008   0.75000   0.00000  Uiso   1.00
C454   C     0.68007   0.43000   0.75000   0.00000  Uiso   1.00
C455   C     0.81993   0.07000   0.25000   0.00000  Uiso   1.00
C456   C     0.92996   0.31992   0.74996   0.00000  Uiso   1.00
C457   C     0.71868   0.01085   0.95811   0.00000  Uiso   1.00
C458   C     0.57004   0.18008   0.25004   0.00000  Uiso   1.00
C459   C     0.82003   0.06993   0.75000   0.00000  Uiso   1.00
C460   C     0.67997   0.43008   0.25000   0.00000  Uiso   1.00
C461   C     0.56994   0.18000   0.75001   0.00000  Uiso   1.00
C462   C     0.93006   0.32000   0.24999   0.00000  Uiso   1.00
C463   C     0.65911   0.36808   0.23155   0.00000  Uiso   1.00
C464   C     0.84083   0.13198   0.76832   0.00000  Uiso   1.00
C465   C     0.63305   0.16033   0.23536   0.00000  Uiso   1.00
C466   C     0.91015   0.38297   0.73440   0.00000  Uiso   1.00
C467   C     0.88315   0.08989   0.26547   0.00000  Uiso   1.00
C468   C     0.98915   0.28129   0.04179   0.00000  Uiso   1.00
C469   C     0.61684   0.41013   0.73458   0.00000  Uiso   1.00
C470   C     0.91039   0.38285   0.26497   0.00000  Uiso   1.00
C471   C     0.58962   0.11717   0.73499   0.00000  Uiso   1.00
C472   C     0.61693   0.08998   0.73424   0.00000  Uiso   1.00
C473   C     0.88309   0.41003   0.26571   0.00000  Uiso   1.00
C474   C     0.58952   0.38295   0.73535   0.00000  Uiso   1.00
C475   C     0.91046   0.11707   0.26470   0.00000  Uiso   1.00
C476   C     0.88302   0.41030   0.73527   0.00000  Uiso   1.00
C477   C     0.66018   0.13299   0.23447   0.00000  Uiso   1.00
C478   C     0.86811   0.15921   0.76788   0.00000  Uiso   1.00
C479   C     0.98911   0.21872   0.95816   0.00000  Uiso   1.00
C480   C     0.63183   0.34085   0.23198   0.00000  Uiso   1.00
C481   C     0.90917   0.11802   0.73168   0.00000  Uiso   1.00
C482   C     0.59089   0.38192   0.26846   0.00000  Uiso   1.00
C483   C     0.83985   0.36703   0.76560   0.00000  Uiso   1.00
C484   C     0.61695   0.08967   0.26463   0.00000  Uiso   1.00
C485   C     0.63316   0.33987   0.76543   0.00000  Uiso   1.00
C486   C     0.86685   0.16012   0.23454   0.00000  Uiso   1.00
C487   C     0.66038   0.13283   0.76501   0.00000  Uiso   1.00
C488   C     0.83961   0.36716   0.23503   0.00000  Uiso   1.00
C489   C     0.86692   0.33997   0.23428   0.00000  Uiso   1.00
C490   C     0.96863   0.26083   0.54174   0.00000  Uiso   1.00
C491   C     0.63308   0.16002   0.76575   0.00000  Uiso   1.00
C492   C     0.83954   0.13294   0.23531   0.00000  Uiso   1.00
C493   C     0.66048   0.36705   0.76465   0.00000  Uiso   1.00
C494   C     0.58982   0.11701   0.26552   0.00000  Uiso   1.00
C495   C     0.86698   0.33970   0.76472   0.00000  Uiso   1.00
C496   C     0.61817   0.40915   0.26803   0.00000  Uiso   1.00
C497   C     0.88189   0.09079   0.73213   0.00000  Uiso   1.00
C498   C     0.59806   0.34810   0.25028   0.00000  Uiso   1.00
C499   C     0.90194   0.15190   0.74972   0.00000  Uiso   1.00
C500   C     0.65189   0.09806   0.24953   0.00000  Uiso   1.00
H501   H     0.69431   0.48001   0.02666   0.00000  Uiso   1.00
H502   H     0.55569   0.26999   0.47334   0.00000  Uiso   1.00
H503   H     0.70289   0.16729   0.79332   0.00000  Uiso   1.00
H504   H     0.70501   0.11978   0.80395   0.00000  Uiso   1.00
H505   H     0.78098   0.36308   0.24287   0.00000  Uiso   1.00
H506   H     0.79494   0.38018   0.19611   0.00000  Uiso   1.00
H507   H     0.79707   0.33267   0.20678   0.00000  Uiso   1.00
H508   H     0.88253   0.28426   0.21531   0.00000  Uiso   1.00
H509   H     0.83686   0.28903   0.23272   0.00000  Uiso   1.00
H510   H     0.85012   0.30671   0.18567   0.00000  Uiso   1.00
H511   H     0.61746   0.21573   0.78472   0.00000  Uiso   1.00
H512   H     0.64984   0.19326   0.81439   0.00000  Uiso   1.00
H513   H     0.76999   0.44444   0.52684   0.00000  Uiso   1.00
H514   H     0.66314   0.21095   0.76736   0.00000  Uiso   1.00
H515   H     0.78105   0.13714   0.24375   0.00000  Uiso   1.00
H516   H     0.79687   0.16758   0.20754   0.00000  Uiso   1.00
H517   H     0.79450   0.12011   0.19679   0.00000  Uiso   1.00
H518   H     0.71896   0.36285   0.75615   0.00000  Uiso   1.00
H519   H     0.70555   0.37984   0.80313   0.00000  Uiso   1.00
H520   H     0.70317   0.33238   0.79234   0.00000  Uiso   1.00
H521   H     0.53395   0.13267   0.28440   0.00000  Uiso   1.00
H522   H     0.53867   0.08719   0.26663   0.00000  Uiso   1.00
H523   H     0.55631   0.10009   0.31386   0.00000  Uiso   1.00
H524   H     0.77005   0.05555   0.47323   0.00000  Uiso   1.00
H525   H     0.86202   0.28171   0.75561   0.00000  Uiso   1.00
H526   H     0.87994   0.29432   0.80257   0.00000  Uiso   1.00
H527   H     0.83224   0.29727   0.79257   0.00000  Uiso   1.00
H528   H     0.63374   0.45082   0.30930   0.00000  Uiso   1.00
H529   H     0.61420   0.46779   0.26475   0.00000  Uiso   1.00
H530   H     0.58557   0.44956   0.30145   0.00000  Uiso   1.00
H531   H     0.86646   0.04893   0.69101   0.00000  Uiso   1.00
H532   H     0.91461   0.05027   0.69898   0.00000  Uiso   1.00
H533   H     0.88592   0.03218   0.73570   0.00000  Uiso   1.00
H534   H     0.55565   0.23002   0.52692   0.00000  Uiso   1.00
H535   H     0.94435   0.22999   0.47309   0.00000  Uiso   1.00
H536   H     0.73001   0.05556   0.52674   0.00000  Uiso   1.00
H537   H     0.72994   0.44445   0.47318   0.00000  Uiso   1.00
H538   H     0.69405   0.48085   0.09711   0.00000  Uiso   1.00
H539   H     0.80595   0.48089   0.90290   0.00000  Uiso   1.00
H540   H     0.51918   0.19422   0.09728   0.00000  Uiso   1.00
H541   H     0.80569   0.48005   0.97335   0.00000  Uiso   1.00
H542   H     0.51923   0.30577   0.90280   0.00000  Uiso   1.00
H543   H     0.80585   0.01921   0.09734   0.00000  Uiso   1.00
H544   H     0.69415   0.01918   0.90266   0.00000  Uiso   1.00
H545   H     0.98084   0.30579   0.09718   0.00000  Uiso   1.00
H546   H     0.98076   0.19422   0.90275   0.00000  Uiso   1.00
H547   H     0.94405   0.26911   0.59710   0.00000  Uiso   1.00
H548   H     0.55595   0.26915   0.40289   0.00000  Uiso   1.00
H549   H     0.76918   0.44422   0.59728   0.00000  Uiso   1.00
H550   H     0.76923   0.05577   0.40280   0.00000  Uiso   1.00
H551   H     0.55585   0.23082   0.59734   0.00000  Uiso   1.00
H552   H     0.51999   0.19444   0.02684   0.00000  Uiso   1.00
H553   H     0.94415   0.23079   0.40266   0.00000  Uiso   1.00
H554   H     0.73084   0.05579   0.59718   0.00000  Uiso   1.00
H555   H     0.73076   0.44422   0.40275   0.00000  Uiso   1.00
H556   H     0.71450   0.38443   0.21172   0.00000  Uiso   1.00
H557   H     0.70957   0.33774   0.22519   0.00000  Uiso   1.00
H558   H     0.69023   0.35483   0.18025   0.00000  Uiso   1.00
H559   H     0.78540   0.11567   0.78807   0.00000  Uiso   1.00
H560   H     0.80958   0.14538   0.81948   0.00000  Uiso   1.00
H561   H     0.79035   0.16232   0.77443   0.00000  Uiso   1.00
H562   H     0.62014   0.20576   0.19757   0.00000  Uiso   1.00
H563   H     0.52005   0.30555   0.97323   0.00000  Uiso   1.00
H564   H     0.63800   0.21831   0.24457   0.00000  Uiso   1.00
H565   H     0.66783   0.20279   0.20762   0.00000  Uiso   1.00
H566   H     0.96602   0.36728   0.71550   0.00000  Uiso   1.00
H567   H     0.94360   0.39978   0.68598   0.00000  Uiso   1.00
H568   H     0.96129   0.41281   0.73315   0.00000  Uiso   1.00
H569   H     0.86757   0.03411   0.28435   0.00000  Uiso   1.00
H570   H     0.91313   0.03891   0.26659   0.00000  Uiso   1.00
H571   H     0.90022   0.05640   0.31382   0.00000  Uiso   1.00
H572   H     0.63240   0.46592   0.71574   0.00000  Uiso   1.00
H573   H     0.59972   0.44366   0.68628   0.00000  Uiso   1.00
H574   H     0.80565   0.02001   0.02691   0.00000  Uiso   1.00
H575   H     0.58686   0.46111   0.73354   0.00000  Uiso   1.00
H576   H     0.96902   0.38693   0.25712   0.00000  Uiso   1.00
H577   H     0.95293   0.41733   0.29322   0.00000  Uiso   1.00
H578   H     0.95506   0.36982   0.30388   0.00000  Uiso   1.00
H579   H     0.53099   0.11309   0.74277   0.00000  Uiso   1.00
H580   H     0.54499   0.13023   0.69604   0.00000  Uiso   1.00
H581   H     0.54711   0.08271   0.70667   0.00000  Uiso   1.00
H582   H     0.63255   0.03428   0.71525   0.00000  Uiso   1.00
H583   H     0.58687   0.03905   0.73262   0.00000  Uiso   1.00
H584   H     0.60017   0.05675   0.68559   0.00000  Uiso   1.00
H585   H     0.69435   0.01998   0.97308   0.00000  Uiso   1.00
H586   H     0.86748   0.46575   0.28466   0.00000  Uiso   1.00
H587   H     0.89989   0.44331   0.31431   0.00000  Uiso   1.00
H588   H     0.91315   0.46096   0.26725   0.00000  Uiso   1.00
H589   H     0.53104   0.38716   0.74386   0.00000  Uiso   1.00
H590   H     0.54683   0.41762   0.70766   0.00000  Uiso   1.00
H591   H     0.54445   0.37016   0.69687   0.00000  Uiso   1.00
H592   H     0.96895   0.11286   0.25626   0.00000  Uiso   1.00
H593   H     0.95549   0.12989   0.30322   0.00000  Uiso   1.00
H594   H     0.95313   0.08242   0.29247   0.00000  Uiso   1.00
H595   H     0.88797   0.46829   0.74436   0.00000  Uiso   1.00
H596   H     0.98001   0.30556   0.02674   0.00000  Uiso   1.00
H597   H     0.91775   0.45272   0.70740   0.00000  Uiso   1.00
H598   H     0.87005   0.45566   0.69741   0.00000  Uiso   1.00
H599   H     0.71605   0.11733   0.21560   0.00000  Uiso   1.00
H600   H     0.69369   0.14990   0.18614   0.00000  Uiso   1.00
H601   H     0.71132   0.16282   0.23335   0.00000  Uiso   1.00
H602   H     0.88356   0.20105   0.80902   0.00000  Uiso   1.00
H603   H     0.86410   0.21782   0.76434   0.00000  Uiso   1.00
H604   H     0.83541   0.19972   0.80106   0.00000  Uiso   1.00
H605   H     0.61628   0.29915   0.19073   0.00000  Uiso   1.00
H606   H     0.66445   0.30043   0.19858   0.00000  Uiso   1.00
H607   H     0.97994   0.19445   0.97318   0.00000  Uiso   1.00
H608   H     0.63582   0.28221   0.23529   0.00000  Uiso   1.00
H609   H     0.96460   0.13434   0.71193   0.00000  Uiso   1.00
H610   H     0.95966   0.08769   0.72558   0.00000  Uiso   1.00
H611   H     0.94042   0.10461   0.68053   0.00000  Uiso   1.00
H612   H     0.53549   0.36557   0.28828   0.00000  Uiso   1.00
H613   H     0.55977   0.39516   0.31976   0.00000  Uiso   1.00
H614   H     0.54043   0.41227   0.27483   0.00000  Uiso   1.00
H615   H     0.78399   0.38272   0.78450   0.00000  Uiso   1.00
H616   H     0.78871   0.33720   0.76684   0.00000  Uiso   1.00
H617   H     0.80640   0.35021   0.81401   0.00000  Uiso   1.00
H618   H     0.94431   0.26995   0.52665   0.00000  Uiso   1.00
H619   H     0.62985   0.04422   0.30241   0.00000  Uiso   1.00
H620   H     0.58216   0.04720   0.29235   0.00000  Uiso   1.00
H621   H     0.61200   0.03169   0.25540   0.00000  Uiso   1.00
H622   H     0.61759   0.28409   0.78429   0.00000  Uiso   1.00
H623   H     0.66313   0.28889   0.76648   0.00000  Uiso   1.00
H624   H     0.65028   0.30635   0.81373   0.00000  Uiso   1.00
H625   H     0.88242   0.21590   0.21568   0.00000  Uiso   1.00
H626   H     0.84978   0.19361   0.18620   0.00000  Uiso   1.00
H627   H     0.83687   0.21109   0.23343   0.00000  Uiso   1.00
H628   H     0.71901   0.13691   0.75722   0.00000  Uiso   1.00
O629   O     0.75000   0.00000   0.25000   0.00000  Uiso   1.00
O630   O     0.75000   0.46964   0.66317   0.00000  Uiso   1.00
O631   O     0.96964   0.25000   0.33683   0.00000  Uiso   1.00
O632   O     0.53036   0.25000   0.66317   0.00000  Uiso   1.00
O633   O     0.50000   0.21964   0.83683   0.00000  Uiso   1.00
O634   O     0.50000   0.28036   0.16317   0.00000  Uiso   1.00
O635   O     0.78036   0.00000   0.83683   0.00000  Uiso   1.00
O636   O     0.71964   0.00000   0.16317   0.00000  Uiso   1.00
O637   O     0.50000   0.28036   0.83683   0.00000  Uiso   1.00
O638   O     0.50000   0.21964   0.16317   0.00000  Uiso   1.00
O639   O     0.71964   0.00000   0.83683   0.00000  Uiso   1.00
O640   O     0.75000   0.00000   0.75000   0.00000  Uiso   1.00
O641   O     0.78036   0.00000   0.16317   0.00000  Uiso   1.00
O642   O     0.70726   0.07307   0.27282   0.00000  Uiso   1.00
O643   O     0.79275   0.42693   0.72718   0.00000  Uiso   1.00
O644   O     0.92693   0.20726   0.27282   0.00000  Uiso   1.00
O645   O     0.57307   0.29274   0.72718   0.00000  Uiso   1.00
O646   O     0.79275   0.42693   0.27282   0.00000  Uiso   1.00
O647   O     0.70726   0.07307   0.72718   0.00000  Uiso   1.00
O648   O     0.57307   0.29274   0.27282   0.00000  Uiso   1.00
O649   O     0.92693   0.20726   0.72718   0.00000  Uiso   1.00
O650   O     0.70726   0.42693   0.72718   0.00000  Uiso   1.00
O651   O     0.50000   0.25000   0.25000   0.00000  Uiso   1.00
O652   O     0.79275   0.07307   0.27282   0.00000  Uiso   1.00
O653   O     0.92693   0.29275   0.72718   0.00000  Uiso   1.00
O654   O     0.57307   0.20726   0.27282   0.00000  Uiso   1.00
O655   O     0.79275   0.07307   0.72718   0.00000  Uiso   1.00
O656   O     0.70726   0.42693   0.27282   0.00000  Uiso   1.00
O657   O     0.57307   0.20726   0.72718   0.00000  Uiso   1.00
O658   O     0.92693   0.29275   0.27282   0.00000  Uiso   1.00
O659   O     0.95726   0.32307   0.77282   0.00000  Uiso   1.00
O660   O     0.54275   0.17693   0.22718   0.00000  Uiso   1.00
O661   O     0.67693   0.45726   0.77282   0.00000  Uiso   1.00
O662   O     0.50000   0.25000   0.75000   0.00000  Uiso   1.00
O663   O     0.82307   0.04275   0.22718   0.00000  Uiso   1.00
O664   O     0.54275   0.17693   0.77282   0.00000  Uiso   1.00
O665   O     0.95726   0.32307   0.22718   0.00000  Uiso   1.00
O666   O     0.82307   0.04275   0.77282   0.00000  Uiso   1.00
O667   O     0.67693   0.45726   0.22718   0.00000  Uiso   1.00
O668   O     0.95726   0.17693   0.22718   0.00000  Uiso   1.00
O669   O     0.54275   0.32307   0.77282   0.00000  Uiso   1.00
O670   O     0.67693   0.04275   0.22718   0.00000  Uiso   1.00
O671   O     0.82307   0.45726   0.77282   0.00000  Uiso   1.00
O672   O     0.54275   0.32307   0.22718   0.00000  Uiso   1.00
O673   O     0.75000   0.46964   0.33683   0.00000  Uiso   1.00
O674   O     0.95726   0.17693   0.77282   0.00000  Uiso   1.00
O675   O     0.82307   0.45726   0.22718   0.00000  Uiso   1.00
O676   O     0.67693   0.04275   0.77282   0.00000  Uiso   1.00
O677   O     0.75000   0.03036   0.66317   0.00000  Uiso   1.00
O678   O     0.53036   0.25000   0.33683   0.00000  Uiso   1.00
O679   O     0.96964   0.25000   0.66317   0.00000  Uiso   1.00
O680   O     0.75000   0.03036   0.33683   0.00000  Uiso   1.00
Zn681  Zn    0.70660   0.00000   0.21760   0.00000  Uiso   1.00
Zn682  Zn    0.54340   0.25000   0.28240   0.00000  Uiso   1.00
Zn683  Zn    0.75000   0.45660   0.71760   0.00000  Uiso   1.00
Zn684  Zn    0.75000   0.04340   0.28240   0.00000  Uiso   1.00
Zn685  Zn    0.54340   0.25000   0.71760   0.00000  Uiso   1.00
Zn686  Zn    0.95660   0.25000   0.28240   0.00000  Uiso   1.00
Zn687  Zn    0.75000   0.04340   0.71760   0.00000  Uiso   1.00
Zn688  Zn    0.75000   0.45660   0.28240   0.00000  Uiso   1.00
Zn689  Zn    0.79340   0.00000   0.78240   0.00000  Uiso   1.00
Zn690  Zn    0.50000   0.20660   0.21760   0.00000  Uiso   1.00
Zn691  Zn    0.50000   0.29340   0.78240   0.00000  Uiso   1.00
Zn692  Zn    0.79340   0.00000   0.21760   0.00000  Uiso   1.00
Zn693  Zn    0.70660   0.00000   0.78240   0.00000  Uiso   1.00
Zn694  Zn    0.50000   0.29340   0.21760   0.00000  Uiso   1.00
Zn695  Zn    0.50000   0.20660   0.78240   0.00000  Uiso   1.00
Zn696  Zn    0.95660   0.25000   0.71760   0.00000  Uiso   1.00
C697   C     0.21863   0.98915   0.04175   0.00000  Uiso   1.00
C698   C     0.03137   0.76085   0.45825   0.00000  Uiso   1.00
C699   C     0.34811   0.90194   0.75046   0.00000  Uiso   1.00
C700   C     0.40190   0.65194   0.24965   0.00000  Uiso   1.00
C701   C     0.09810   0.84806   0.75036   0.00000  Uiso   1.00
C702   C     0.34810   0.90194   0.25035   0.00000  Uiso   1.00
C703   C     0.15190   0.59806   0.74965   0.00000  Uiso   1.00
C704   C     0.09810   0.65194   0.75035   0.00000  Uiso   1.00
C705   C     0.40190   0.84806   0.24965   0.00000  Uiso   1.00
C706   C     0.15190   0.90194   0.74964   0.00000  Uiso   1.00
C707   C     0.34810   0.59806   0.25036   0.00000  Uiso   1.00
C708   C     0.40189   0.84806   0.74953   0.00000  Uiso   1.00
C709   C     0.26085   0.96872   0.54185   0.00000  Uiso   1.00
C710   C     0.09811   0.65194   0.25047   0.00000  Uiso   1.00
C711   C     0.34806   0.59810   0.75029   0.00000  Uiso   1.00
C712   C     0.15194   0.90190   0.24972   0.00000  Uiso   1.00
C713   C     0.24995   0.50003   0.10242   0.00000  Uiso   1.00
C714   C     0.25005   0.50003   0.89758   0.00000  Uiso   1.00
C715   C     0.00001   0.75001   0.10243   0.00000  Uiso   1.00
C716   C    -0.00000   0.74999   0.89757   0.00000  Uiso   1.00
C717   C     0.49995   0.74997   0.60242   0.00000  Uiso   1.00
C718   C     0.00005   0.74997   0.39758   0.00000  Uiso   1.00
C719   C     0.25001   0.50001   0.60243   0.00000  Uiso   1.00
C720   C     0.26088   0.53128   0.45819   0.00000  Uiso   1.00
C721   C     0.25000   0.99999   0.39756   0.00000  Uiso   1.00
C722   C     0.19531   0.86105   0.21122   0.00000  Uiso   1.00
C723   C     0.30459   0.63906   0.78852   0.00000  Uiso   1.00
C724   C     0.14041   0.69867   0.22032   0.00000  Uiso   1.00
C725   C     0.44727   0.89098   0.71647   0.00000  Uiso   1.00
C726   C     0.39131   0.55282   0.28334   0.00000  Uiso   1.00
C727   C     0.10866   0.94721   0.71675   0.00000  Uiso   1.00
C728   C     0.44871   0.88987   0.28073   0.00000  Uiso   1.00
C729   C     0.05132   0.61016   0.71918   0.00000  Uiso   1.00
C730   C     0.10884   0.55302   0.71613   0.00000  Uiso   1.00
C731   C     0.03132   0.73914   0.54189   0.00000  Uiso   1.00
C732   C     0.39119   0.94701   0.28378   0.00000  Uiso   1.00
C733   C     0.05109   0.89012   0.72001   0.00000  Uiso   1.00
C734   C     0.44887   0.60991   0.28009   0.00000  Uiso   1.00
C735   C     0.39035   0.94862   0.72015   0.00000  Uiso   1.00
C736   C     0.19732   0.64103   0.21661   0.00000  Uiso   1.00
C737   C     0.36218   0.69626   0.78672   0.00000  Uiso   1.00
C738   C     0.13770   0.80385   0.21299   0.00000  Uiso   1.00
C739   C     0.44541   0.61094   0.71148   0.00000  Uiso   1.00
C740   C     0.05469   0.88895   0.28878   0.00000  Uiso   1.00
C741   C     0.30273   0.85902   0.78353   0.00000  Uiso   1.00
C742   C     0.46868   0.73913   0.45811   0.00000  Uiso   1.00
C743   C     0.10958   0.55132   0.27965   0.00000  Uiso   1.00
C744   C     0.14133   0.80279   0.78327   0.00000  Uiso   1.00
C745   C     0.35869   0.69719   0.21668   0.00000  Uiso   1.00
C746   C     0.19868   0.63985   0.78081   0.00000  Uiso   1.00
C747   C     0.30129   0.86013   0.21927   0.00000  Uiso   1.00
C748   C     0.35881   0.80299   0.21620   0.00000  Uiso   1.00
C749   C     0.14117   0.69699   0.78385   0.00000  Uiso   1.00
C750   C     0.30112   0.64009   0.21992   0.00000  Uiso   1.00
C751   C     0.19890   0.85988   0.77999   0.00000  Uiso   1.00
C752   C     0.05268   0.60897   0.28339   0.00000  Uiso   1.00
C753   C     0.23915   0.53129   0.54179   0.00000  Uiso   1.00
C754   C     0.35964   0.80137   0.77983   0.00000  Uiso   1.00
C755   C     0.11231   0.94614   0.28704   0.00000  Uiso   1.00
C756   C     0.38783   0.55373   0.71331   0.00000  Uiso   1.00
C757   C     0.23911   0.96872   0.45816   0.00000  Uiso   1.00
C758   C     0.21852   0.98943   0.08199   0.00000  Uiso   1.00
C759   C     0.28148   0.98945   0.91801   0.00000  Uiso   1.00
C760   C     0.01060   0.71864   0.08209   0.00000  Uiso   1.00
C761   C     0.28138   0.98917   0.95826   0.00000  Uiso   1.00
C762   C     0.01062   0.78136   0.91795   0.00000  Uiso   1.00
C763   C     0.28138   0.51063   0.08212   0.00000  Uiso   1.00
C764   C     0.21862   0.51061   0.91787   0.00000  Uiso   1.00
C765   C     0.48941   0.78137   0.08204   0.00000  Uiso   1.00
C766   C     0.48937   0.71863   0.91792   0.00000  Uiso   1.00
C767   C     0.46852   0.76055   0.58199   0.00000  Uiso   1.00
C768   C     0.03148   0.76057   0.41801   0.00000  Uiso   1.00
C769   C     0.26060   0.96864   0.58209   0.00000  Uiso   1.00
C770   C     0.26062   0.53136   0.41795   0.00000  Uiso   1.00
C771   C     0.03138   0.73939   0.58213   0.00000  Uiso   1.00
C772   C     0.01085   0.71872   0.04185   0.00000  Uiso   1.00
C773   C     0.46862   0.73937   0.41788   0.00000  Uiso   1.00
C774   C     0.23941   0.53137   0.58204   0.00000  Uiso   1.00
C775   C     0.23937   0.96864   0.41792   0.00000  Uiso   1.00
C776   C     0.24999   0.50000   0.02132   0.00000  Uiso   1.00
C777   C     0.25001   0.50000   0.97868   0.00000  Uiso   1.00
C778   C    -0.00000   0.75000   0.02132   0.00000  Uiso   1.00
C779   C    -0.00000   0.75000   0.97868   0.00000  Uiso   1.00
C780   C     0.49999   0.75000   0.52132   0.00000  Uiso   1.00
C781   C     0.00001   0.75000   0.47868   0.00000  Uiso   1.00
C782   C     0.25000   0.50000   0.52132   0.00000  Uiso   1.00
C783   C     0.01088   0.78128   0.95819   0.00000  Uiso   1.00
C784   C     0.24999   0.50000   0.47868   0.00000  Uiso   1.00
C785   C     0.25000   0.50000   0.35522   0.00000  Uiso   1.00
C786   C     0.25000   0.50000   0.64478   0.00000  Uiso   1.00
C787   C     0.00003   0.74999   0.35525   0.00000  Uiso   1.00
C788   C     0.49997   0.74999   0.64475   0.00000  Uiso   1.00
C789   C    -0.00000   0.75000   0.85522   0.00000  Uiso   1.00
C790   C     0.00000   0.75000   0.14478   0.00000  Uiso   1.00
C791   C     0.25003   0.50001   0.85525   0.00000  Uiso   1.00
C792   C     0.24997   0.50001   0.14475   0.00000  Uiso   1.00
C793   C     0.17996   0.56992   0.24996   0.00000  Uiso   1.00
C794   C     0.28132   0.51087   0.04189   0.00000  Uiso   1.00
C795   C     0.32004   0.93008   0.75004   0.00000  Uiso   1.00
C796   C     0.43007   0.68000   0.25000   0.00000  Uiso   1.00
C797   C     0.06993   0.82000   0.75000   0.00000  Uiso   1.00
C798   C     0.31994   0.93000   0.25001   0.00000  Uiso   1.00
C799   C     0.18006   0.57000   0.74999   0.00000  Uiso   1.00
C800   C     0.07003   0.81993   0.25000   0.00000  Uiso   1.00
C801   C     0.42997   0.68008   0.75000   0.00000  Uiso   1.00
C802   C     0.18007   0.93000   0.75000   0.00000  Uiso   1.00
C803   C     0.31993   0.57000   0.25000   0.00000  Uiso   1.00
C804   C     0.42996   0.81992   0.74996   0.00000  Uiso   1.00
C805   C     0.21868   0.51085   0.95811   0.00000  Uiso   1.00
C806   C     0.07004   0.68008   0.25004   0.00000  Uiso   1.00
C807   C     0.32003   0.56993   0.75000   0.00000  Uiso   1.00
C808   C     0.17997   0.93008   0.25000   0.00000  Uiso   1.00
C809   C     0.06994   0.68000   0.75001   0.00000  Uiso   1.00
C810   C     0.43006   0.82000   0.24999   0.00000  Uiso   1.00
C811   C     0.15911   0.86808   0.23155   0.00000  Uiso   1.00
C812   C     0.34083   0.63198   0.76832   0.00000  Uiso   1.00
C813   C     0.13305   0.66033   0.23536   0.00000  Uiso   1.00
C814   C     0.41015   0.88297   0.73440   0.00000  Uiso   1.00
C815   C     0.38315   0.58989   0.26547   0.00000  Uiso   1.00
C816   C     0.48915   0.78129   0.04179   0.00000  Uiso   1.00
C817   C     0.11684   0.91013   0.73458   0.00000  Uiso   1.00
C818   C     0.41039   0.88285   0.26497   0.00000  Uiso   1.00
C819   C     0.08962   0.61717   0.73499   0.00000  Uiso   1.00
C820   C     0.11693   0.58998   0.73424   0.00000  Uiso   1.00
C821   C     0.38309   0.91003   0.26571   0.00000  Uiso   1.00
C822   C     0.08952   0.88295   0.73535   0.00000  Uiso   1.00
C823   C     0.41046   0.61707   0.26470   0.00000  Uiso   1.00
C824   C     0.38302   0.91030   0.73527   0.00000  Uiso   1.00
C825   C     0.16018   0.63299   0.23447   0.00000  Uiso   1.00
C826   C     0.36811   0.65921   0.76788   0.00000  Uiso   1.00
C827   C     0.48911   0.71872   0.95816   0.00000  Uiso   1.00
C828   C     0.13183   0.84085   0.23198   0.00000  Uiso   1.00
C829   C     0.40917   0.61802   0.73168   0.00000  Uiso   1.00
C830   C     0.09089   0.88192   0.26846   0.00000  Uiso   1.00
C831   C     0.33985   0.86703   0.76560   0.00000  Uiso   1.00
C832   C     0.11695   0.58967   0.26463   0.00000  Uiso   1.00
C833   C     0.13316   0.83987   0.76543   0.00000  Uiso   1.00
C834   C     0.36685   0.66012   0.23454   0.00000  Uiso   1.00
C835   C     0.16038   0.63283   0.76501   0.00000  Uiso   1.00
C836   C     0.33961   0.86716   0.23503   0.00000  Uiso   1.00
C837   C     0.36692   0.83997   0.23428   0.00000  Uiso   1.00
C838   C     0.46863   0.76083   0.54174   0.00000  Uiso   1.00
C839   C     0.13308   0.66002   0.76575   0.00000  Uiso   1.00
C840   C     0.33954   0.63294   0.23531   0.00000  Uiso   1.00
C841   C     0.16048   0.86705   0.76465   0.00000  Uiso   1.00
C842   C     0.08982   0.61701   0.26552   0.00000  Uiso   1.00
C843   C     0.36698   0.83970   0.76472   0.00000  Uiso   1.00
C844   C     0.11817   0.90915   0.26803   0.00000  Uiso   1.00
C845   C     0.38189   0.59079   0.73213   0.00000  Uiso   1.00
C846   C     0.09806   0.84810   0.25028   0.00000  Uiso   1.00
C847   C     0.40194   0.65190   0.74972   0.00000  Uiso   1.00
C848   C     0.15189   0.59806   0.24953   0.00000  Uiso   1.00
H849   H     0.19431   0.98001   0.02666   0.00000  Uiso   1.00
H850   H     0.05569   0.76999   0.47334   0.00000  Uiso   1.00
H851   H     0.20289   0.66729   0.79332   0.00000  Uiso   1.00
H852   H     0.20501   0.61978   0.80395   0.00000  Uiso   1.00
H853   H     0.28098   0.86308   0.24287   0.00000  Uiso   1.00
H854   H     0.29494   0.88018   0.19611   0.00000  Uiso   1.00
H855   H     0.29707   0.83267   0.20678   0.00000  Uiso   1.00
H856   H     0.38253   0.78426   0.21531   0.00000  Uiso   1.00
H857   H     0.33686   0.78903   0.23272   0.00000  Uiso   1.00
H858   H     0.35012   0.80671   0.18567   0.00000  Uiso   1.00
H859   H     0.11746   0.71573   0.78472   0.00000  Uiso   1.00
H860   H     0.14984   0.69326   0.81439   0.00000  Uiso   1.00
H861   H     0.26999   0.94444   0.52684   0.00000  Uiso   1.00
H862   H     0.16314   0.71095   0.76736   0.00000  Uiso   1.00
H863   H     0.28105   0.63714   0.24375   0.00000  Uiso   1.00
H864   H     0.29687   0.66758   0.20754   0.00000  Uiso   1.00
H865   H     0.29450   0.62011   0.19679   0.00000  Uiso   1.00
H866   H     0.21896   0.86285   0.75615   0.00000  Uiso   1.00
H867   H     0.20555   0.87984   0.80313   0.00000  Uiso   1.00
H868   H     0.20317   0.83238   0.79234   0.00000  Uiso   1.00
H869   H     0.03395   0.63267   0.28440   0.00000  Uiso   1.00
H870   H     0.03867   0.58719   0.26663   0.00000  Uiso   1.00
H871   H     0.05631   0.60009   0.31386   0.00000  Uiso   1.00
H872   H     0.27005   0.55555   0.47323   0.00000  Uiso   1.00
H873   H     0.36202   0.78171   0.75561   0.00000  Uiso   1.00
H874   H     0.37994   0.79432   0.80257   0.00000  Uiso   1.00
H875   H     0.33224   0.79727   0.79257   0.00000  Uiso   1.00
H876   H     0.13374   0.95082   0.30930   0.00000  Uiso   1.00
H877   H     0.11420   0.96779   0.26475   0.00000  Uiso   1.00
H878   H     0.08557   0.94956   0.30145   0.00000  Uiso   1.00
H879   H     0.36646   0.54893   0.69101   0.00000  Uiso   1.00
H880   H     0.41461   0.55027   0.69898   0.00000  Uiso   1.00
H881   H     0.38592   0.53218   0.73570   0.00000  Uiso   1.00
H882   H     0.05565   0.73002   0.52692   0.00000  Uiso   1.00
H883   H     0.44435   0.72999   0.47309   0.00000  Uiso   1.00
H884   H     0.23001   0.55556   0.52674   0.00000  Uiso   1.00
H885   H     0.22994   0.94445   0.47318   0.00000  Uiso   1.00
H886   H     0.19405   0.98085   0.09711   0.00000  Uiso   1.00
H887   H     0.30595   0.98089   0.90290   0.00000  Uiso   1.00
H888   H     0.01918   0.69422   0.09728   0.00000  Uiso   1.00
H889   H     0.30569   0.98005   0.97335   0.00000  Uiso   1.00
H890   H     0.01923   0.80577   0.90280   0.00000  Uiso   1.00
H891   H     0.30585   0.51921   0.09734   0.00000  Uiso   1.00
H892   H     0.19415   0.51918   0.90266   0.00000  Uiso   1.00
H893   H     0.48084   0.80579   0.09718   0.00000  Uiso   1.00
H894   H     0.48076   0.69422   0.90275   0.00000  Uiso   1.00
H895   H     0.44405   0.76911   0.59710   0.00000  Uiso   1.00
H896   H     0.05595   0.76915   0.40289   0.00000  Uiso   1.00
H897   H     0.26918   0.94422   0.59728   0.00000  Uiso   1.00
H898   H     0.26923   0.55577   0.40280   0.00000  Uiso   1.00
H899   H     0.05585   0.73082   0.59734   0.00000  Uiso   1.00
H900   H     0.01999   0.69444   0.02684   0.00000  Uiso   1.00
H901   H     0.44415   0.73079   0.40266   0.00000  Uiso   1.00
H902   H     0.23084   0.55579   0.59718   0.00000  Uiso   1.00
H903   H     0.23076   0.94422   0.40275   0.00000  Uiso   1.00
H904   H     0.21450   0.88443   0.21172   0.00000  Uiso   1.00
H905   H     0.20957   0.83774   0.22519   0.00000  Uiso   1.00
H906   H     0.19023   0.85483   0.18025   0.00000  Uiso   1.00
H907   H     0.28540   0.61567   0.78807   0.00000  Uiso   1.00
H908   H     0.30958   0.64538   0.81948   0.00000  Uiso   1.00
H909   H     0.29035   0.66232   0.77443   0.00000  Uiso   1.00
H910   H     0.12014   0.70576   0.19757   0.00000  Uiso   1.00
H911   H     0.02005   0.80555   0.97323   0.00000  Uiso   1.00
H912   H     0.13800   0.71831   0.24457   0.00000  Uiso   1.00
H913   H     0.16783   0.70279   0.20762   0.00000  Uiso   1.00
H914   H     0.46602   0.86728   0.71550   0.00000  Uiso   1.00
H915   H     0.44360   0.89978   0.68598   0.00000  Uiso   1.00
H916   H     0.46129   0.91281   0.73315   0.00000  Uiso   1.00
H917   H     0.36757   0.53411   0.28435   0.00000  Uiso   1.00
H918   H     0.41313   0.53891   0.26659   0.00000  Uiso   1.00
H919   H     0.40022   0.55640   0.31382   0.00000  Uiso   1.00
H920   H     0.13240   0.96592   0.71574   0.00000  Uiso   1.00
H921   H     0.09972   0.94366   0.68628   0.00000  Uiso   1.00
H922   H     0.30565   0.52001   0.02691   0.00000  Uiso   1.00
H923   H     0.08686   0.96111   0.73354   0.00000  Uiso   1.00
H924   H     0.46902   0.88693   0.25712   0.00000  Uiso   1.00
H925   H     0.45293   0.91733   0.29322   0.00000  Uiso   1.00
H926   H     0.45506   0.86982   0.30388   0.00000  Uiso   1.00
H927   H     0.03099   0.61309   0.74277   0.00000  Uiso   1.00
H928   H     0.04499   0.63023   0.69604   0.00000  Uiso   1.00
H929   H     0.04711   0.58271   0.70667   0.00000  Uiso   1.00
H930   H     0.13255   0.53428   0.71525   0.00000  Uiso   1.00
H931   H     0.08687   0.53905   0.73262   0.00000  Uiso   1.00
H932   H     0.10017   0.55675   0.68559   0.00000  Uiso   1.00
H933   H     0.19435   0.51998   0.97308   0.00000  Uiso   1.00
H934   H     0.36748   0.96575   0.28466   0.00000  Uiso   1.00
H935   H     0.39989   0.94331   0.31431   0.00000  Uiso   1.00
H936   H     0.41315   0.96096   0.26725   0.00000  Uiso   1.00
H937   H     0.03104   0.88716   0.74386   0.00000  Uiso   1.00
H938   H     0.04683   0.91762   0.70766   0.00000  Uiso   1.00
H939   H     0.04445   0.87016   0.69687   0.00000  Uiso   1.00
H940   H     0.46895   0.61286   0.25626   0.00000  Uiso   1.00
H941   H     0.45549   0.62989   0.30322   0.00000  Uiso   1.00
H942   H     0.45313   0.58242   0.29247   0.00000  Uiso   1.00
H943   H     0.38797   0.96829   0.74436   0.00000  Uiso   1.00
H944   H     0.48001   0.80556   0.02674   0.00000  Uiso   1.00
H945   H     0.41775   0.95272   0.70740   0.00000  Uiso   1.00
H946   H     0.37005   0.95566   0.69741   0.00000  Uiso   1.00
H947   H     0.21605   0.61733   0.21560   0.00000  Uiso   1.00
H948   H     0.19369   0.64990   0.18614   0.00000  Uiso   1.00
H949   H     0.21132   0.66282   0.23335   0.00000  Uiso   1.00
H950   H     0.38356   0.70105   0.80902   0.00000  Uiso   1.00
H951   H     0.36410   0.71782   0.76434   0.00000  Uiso   1.00
H952   H     0.33541   0.69972   0.80106   0.00000  Uiso   1.00
H953   H     0.11628   0.79915   0.19073   0.00000  Uiso   1.00
H954   H     0.16445   0.80043   0.19858   0.00000  Uiso   1.00
H955   H     0.47994   0.69445   0.97318   0.00000  Uiso   1.00
H956   H     0.13582   0.78221   0.23529   0.00000  Uiso   1.00
H957   H     0.46460   0.63434   0.71193   0.00000  Uiso   1.00
H958   H     0.45966   0.58769   0.72558   0.00000  Uiso   1.00
H959   H     0.44042   0.60461   0.68053   0.00000  Uiso   1.00
H960   H     0.03549   0.86557   0.28828   0.00000  Uiso   1.00
H961   H     0.05977   0.89516   0.31976   0.00000  Uiso   1.00
H962   H     0.04043   0.91227   0.27483   0.00000  Uiso   1.00
H963   H     0.28399   0.88272   0.78450   0.00000  Uiso   1.00
H964   H     0.28871   0.83720   0.76684   0.00000  Uiso   1.00
H965   H     0.30640   0.85021   0.81401   0.00000  Uiso   1.00
H966   H     0.44431   0.76995   0.52665   0.00000  Uiso   1.00
H967   H     0.12985   0.54422   0.30241   0.00000  Uiso   1.00
H968   H     0.08216   0.54720   0.29235   0.00000  Uiso   1.00
H969   H     0.11200   0.53169   0.25540   0.00000  Uiso   1.00
H970   H     0.11759   0.78409   0.78429   0.00000  Uiso   1.00
H971   H     0.16313   0.78889   0.76648   0.00000  Uiso   1.00
H972   H     0.15028   0.80635   0.81373   0.00000  Uiso   1.00
H973   H     0.38242   0.71590   0.21568   0.00000  Uiso   1.00
H974   H     0.34978   0.69361   0.18620   0.00000  Uiso   1.00
H975   H     0.33687   0.71109   0.23343   0.00000  Uiso   1.00
H976   H     0.21901   0.63691   0.75722   0.00000  Uiso   1.00
O977   O     0.25000   0.50000   0.25000   0.00000  Uiso   1.00
O978   O     0.25000   0.96964   0.66317   0.00000  Uiso   1.00
O979   O     0.46964   0.75000   0.33683   0.00000  Uiso   1.00
O980   O     0.03036   0.75000   0.66317   0.00000  Uiso   1.00
O981   O     0.00000   0.71964   0.83683   0.00000  Uiso   1.00
O982   O     0.00000   0.78036   0.16317   0.00000  Uiso   1.00
O983   O     0.28036   0.50000   0.83683   0.00000  Uiso   1.00
O984   O     0.21964   0.50000   0.16317   0.00000  Uiso   1.00
O985   O     0.00000   0.78036   0.83683   0.00000  Uiso   1.00
O986   O     0.00000   0.71964   0.16317   0.00000  Uiso   1.00
O987   O     0.21964   0.50000   0.83683   0.00000  Uiso   1.00
O988   O     0.25000   0.50000   0.75000   0.00000  Uiso   1.00
O989   O     0.28036   0.50000   0.16317   0.00000  Uiso   1.00
O990   O     0.20726   0.57307   0.27282   0.00000  Uiso   1.00
O991   O     0.29275   0.92693   0.72718   0.00000  Uiso   1.00
O992   O     0.42693   0.70726   0.27282   0.00000  Uiso   1.00
O993   O     0.07307   0.79274   0.72718   0.00000  Uiso   1.00
O994   O     0.29275   0.92693   0.27282   0.00000  Uiso   1.00
O995   O     0.20726   0.57307   0.72718   0.00000  Uiso   1.00
O996   O     0.07307   0.79274   0.27282   0.00000  Uiso   1.00
O997   O     0.42693   0.70726   0.72718   0.00000  Uiso   1.00
O998   O     0.20726   0.92693   0.72718   0.00000  Uiso   1.00
O999   O     0.00000   0.75000   0.25000   0.00000  Uiso   1.00
O1000  O     0.29275   0.57307   0.27282   0.00000  Uiso   1.00
O1001  O     0.42693   0.79275   0.72718   0.00000  Uiso   1.00
O1002  O     0.07307   0.70726   0.27282   0.00000  Uiso   1.00
O1003  O     0.29275   0.57307   0.72718   0.00000  Uiso   1.00
O1004  O     0.20726   0.92693   0.27282   0.00000  Uiso   1.00
O1005  O     0.07307   0.70726   0.72718   0.00000  Uiso   1.00
O1006  O     0.42693   0.79275   0.27282   0.00000  Uiso   1.00
O1007  O     0.45726   0.82307   0.77282   0.00000  Uiso   1.00
O1008  O     0.04275   0.67693   0.22718   0.00000  Uiso   1.00
O1009  O     0.17693   0.95726   0.77282   0.00000  Uiso   1.00
O1010  O     0.00000   0.75000   0.75000   0.00000  Uiso   1.00
O1011  O     0.32307   0.54275   0.22718   0.00000  Uiso   1.00
O1012  O     0.04275   0.67693   0.77282   0.00000  Uiso   1.00
O1013  O     0.45726   0.82307   0.22718   0.00000  Uiso   1.00
O1014  O     0.32307   0.54275   0.77282   0.00000  Uiso   1.00
O1015  O     0.17693   0.95726   0.22718   0.00000  Uiso   1.00
O1016  O     0.45726   0.67693   0.22718   0.00000  Uiso   1.00
O1017  O     0.04275   0.82307   0.77282   0.00000  Uiso   1.00
O1018  O     0.17693   0.54275   0.22718   0.00000  Uiso   1.00
O1019  O     0.32307   0.95726   0.77282   0.00000  Uiso   1.00
O1020  O     0.04275   0.82307   0.22718   0.00000  Uiso   1.00
O1021  O     0.25000   0.96964   0.33683   0.00000  Uiso   1.00
O1022  O     0.45726   0.67693   0.77282   0.00000  Uiso   1.00
O1023  O     0.32307   0.95726   0.22718   0.00000  Uiso   1.00
O1024  O     0.17693   0.54275   0.77282   0.00000  Uiso   1.00
O1025  O     0.25000   0.53036   0.66317   0.00000  Uiso   1.00
O1026  O     0.03036   0.75000   0.33683   0.00000  Uiso   1.00
O1027  O     0.46964   0.75000   0.66317   0.00000  Uiso   1.00
O1028  O     0.25000   0.53036   0.33683   0.00000  Uiso   1.00
Zn1029 Zn    0.20660   0.50000   0.21760   0.00000  Uiso   1.00
Zn1030 Zn    0.04340   0.75000   0.28240   0.00000  Uiso   1.00
Zn1031 Zn    0.25000   0.95660   0.71760   0.00000  Uiso   1.00
Zn1032 Zn    0.25000   0.54340   0.28240   0.00000  Uiso   1.00
Zn1033 Zn    0.04340   0.75000   0.71760   0.00000  Uiso   1.00
Zn1034 Zn    0.45660   0.75000   0.28240   0.00000  Uiso   1.00
Zn1035 Zn    0.25000   0.54340   0.71760   0.00000  Uiso   1.00
Zn1036 Zn    0.25000   0.95660   0.28240   0.00000  Uiso   1.00
Zn1037 Zn    0.29340   0.50000   0.78240   0.00000  Uiso   1.00
Zn1038 Zn    0.00000   0.70660   0.21760   0.00000  Uiso   1.00
Zn1039 Zn    0.00000   0.79340   0.78240   0.00000  Uiso   1.00
Zn1040 Zn    0.29340   0.50000   0.21760   0.00000  Uiso   1.00
Zn1041 Zn    0.20660   0.50000   0.78240   0.00000  Uiso   1.00
Zn1042 Zn    0.00000   0.79340   0.21760   0.00000  Uiso   1.00
Zn1043 Zn    0.00000   0.70660   0.78240   0.00000  Uiso   1.00
Zn1044 Zn    0.45660   0.75000   0.71760   0.00000  Uiso   1.00
C1045  C     0.71863   0.98915   0.04175   0.00000  Uiso   1.00
C1046  C     0.53137   0.76085   0.45825   0.00000  Uiso   1.00
C1047  C     0.84811   0.90194   0.75046   0.00000  Uiso   1.00
C1048  C     0.90190   0.65194   0.24965   0.00000  Uiso   1.00
C1049  C     0.59810   0.84806   0.75036   0.00000  Uiso   1.00
C1050  C     0.84810   0.90194   0.25035   0.00000  Uiso   1.00
C1051  C     0.65190   0.59806   0.74965   0.00000  Uiso   1.00
C1052  C     0.59810   0.65194   0.75035   0.00000  Uiso   1.00
C1053  C     0.90190   0.84806   0.24965   0.00000  Uiso   1.00
C1054  C     0.65190   0.90194   0.74964   0.00000  Uiso   1.00
C1055  C     0.84810   0.59806   0.25036   0.00000  Uiso   1.00
C1056  C     0.90189   0.84806   0.74953   0.00000  Uiso   1.00
C1057  C     0.76085   0.96872   0.54185   0.00000  Uiso   1.00
C1058  C     0.59811   0.65194   0.25047   0.00000  Uiso   1.00
C1059  C     0.84806   0.59810   0.75029   0.00000  Uiso   1.00
C1060  C     0.65194   0.90190   0.24972   0.00000  Uiso   1.00
C1061  C     0.74995   0.50003   0.10242   0.00000  Uiso   1.00
C1062  C     0.75005   0.50003   0.89758   0.00000  Uiso   1.00
C1063  C     0.50001   0.75001   0.10243   0.00000  Uiso   1.00
C1064  C     0.50000   0.74999   0.89757   0.00000  Uiso   1.00
C1065  C     0.99995   0.74997   0.60242   0.00000  Uiso   1.00
C1066  C     0.50005   0.74997   0.39758   0.00000  Uiso   1.00
C1067  C     0.75001   0.50001   0.60243   0.00000  Uiso   1.00
C1068  C     0.76088   0.53128   0.45819   0.00000  Uiso   1.00
C1069  C     0.75000   0.99999   0.39756   0.00000  Uiso   1.00
C1070  C     0.69531   0.86105   0.21122   0.00000  Uiso   1.00
C1071  C     0.80459   0.63906   0.78852   0.00000  Uiso   1.00
C1072  C     0.64041   0.69867   0.22032   0.00000  Uiso   1.00
C1073  C     0.94727   0.89098   0.71647   0.00000  Uiso   1.00
C1074  C     0.89131   0.55282   0.28334   0.00000  Uiso   1.00
C1075  C     0.60866   0.94721   0.71675   0.00000  Uiso   1.00
C1076  C     0.94871   0.88987   0.28073   0.00000  Uiso   1.00
C1077  C     0.55132   0.61016   0.71918   0.00000  Uiso   1.00
C1078  C     0.60884   0.55302   0.71613   0.00000  Uiso   1.00
C1079  C     0.53132   0.73914   0.54189   0.00000  Uiso   1.00
C1080  C     0.89119   0.94701   0.28378   0.00000  Uiso   1.00
C1081  C     0.55109   0.89012   0.72001   0.00000  Uiso   1.00
C1082  C     0.94887   0.60991   0.28009   0.00000  Uiso   1.00
C1083  C     0.89035   0.94862   0.72015   0.00000  Uiso   1.00
C1084  C     0.69732   0.64103   0.21661   0.00000  Uiso   1.00
C1085  C     0.86218   0.69626   0.78672   0.00000  Uiso   1.00
C1086  C     0.63770   0.80385   0.21299   0.00000  Uiso   1.00
C1087  C     0.94541   0.61094   0.71148   0.00000  Uiso   1.00
C1088  C     0.55469   0.88895   0.28878   0.00000  Uiso   1.00
C1089  C     0.80273   0.85902   0.78353   0.00000  Uiso   1.00
C1090  C     0.96868   0.73913   0.45811   0.00000  Uiso   1.00
C1091  C     0.60958   0.55132   0.27965   0.00000  Uiso   1.00
C1092  C     0.64133   0.80279   0.78327   0.00000  Uiso   1.00
C1093  C     0.85869   0.69719   0.21668   0.00000  Uiso   1.00
C1094  C     0.69868   0.63985   0.78081   0.00000  Uiso   1.00
C1095  C     0.80129   0.86013   0.21927   0.00000  Uiso   1.00
C1096  C     0.85881   0.80299   0.21620   0.00000  Uiso   1.00
C1097  C     0.64117   0.69699   0.78385   0.00000  Uiso   1.00
C1098  C     0.80112   0.64009   0.21992   0.00000  Uiso   1.00
C1099  C     0.69890   0.85988   0.77999   0.00000  Uiso   1.00
C1100  C     0.55268   0.60897   0.28339   0.00000  Uiso   1.00
C1101  C     0.73915   0.53129   0.54179   0.00000  Uiso   1.00
C1102  C     0.85964   0.80137   0.77983   0.00000  Uiso   1.00
C1103  C     0.61231   0.94614   0.28704   0.00000  Uiso   1.00
C1104  C     0.88783   0.55373   0.71331   0.00000  Uiso   1.00
C1105  C     0.73911   0.96872   0.45816   0.00000  Uiso   1.00
C1106  C     0.71852   0.98943   0.08199   0.00000  Uiso   1.00
C1107  C     0.78148   0.98945   0.91801   0.00000  Uiso   1.00
C1108  C     0.51060   0.71864   0.08209   0.00000  Uiso   1.00
C1109  C     0.78138   0.98917   0.95826   0.00000  Uiso   1.00
C1110  C     0.51062   0.78136   0.91795   0.00000  Uiso   1.00
C1111  C     0.78138   0.51063   0.08212   0.00000  Uiso   1.00
C1112  C     0.71862   0.51061   0.91787   0.00000  Uiso   1.00
C1113  C     0.98941   0.78137   0.08204   0.00000  Uiso   1.00
C1114  C     0.98937   0.71863   0.91792   0.00000  Uiso   1.00
C1115  C     0.96852   0.76055   0.58199   0.00000  Uiso   1.00
C1116  C     0.53148   0.76057   0.41801   0.00000  Uiso   1.00
C1117  C     0.76060   0.96864   0.58209   0.00000  Uiso   1.00
C1118  C     0.76062   0.53136   0.41795   0.00000  Uiso   1.00
C1119  C     0.53138   0.73939   0.58213   0.00000  Uiso   1.00
C1120  C     0.51085   0.71872   0.04185   0.00000  Uiso   1.00
C1121  C     0.96862   0.73937   0.41788   0.00000  Uiso   1.00
C1122  C     0.73941   0.53137   0.58204   0.00000  Uiso   1.00
C1123  C     0.73937   0.96864   0.41792   0.00000  Uiso   1.00
C1124  C     0.74999   0.50000   0.02132   0.00000  Uiso   1.00
C1125  C     0.75001   0.50000   0.97868   0.00000  Uiso   1.00
C1126  C     0.50000   0.75000   0.02132   0.00000  Uiso   1.00
C1127  C     0.50000   0.75000   0.97868   0.00000  Uiso   1.00
C1128  C     0.99999   0.75000   0.52132   0.00000  Uiso   1.00
C1129  C     0.50001   0.75000   0.47868   0.00000  Uiso   1.00
C1130  C     0.75000   0.50000   0.52132   0.00000  Uiso   1.00
C1131  C     0.51088   0.78128   0.95819   0.00000  Uiso   1.00
C1132  C     0.74999   0.50000   0.47868   0.00000  Uiso   1.00
C1133  C     0.75000   0.50000   0.35522   0.00000  Uiso   1.00
C1134  C     0.75000   0.50000   0.64478   0.00000  Uiso   1.00
C1135  C     0.50003   0.74999   0.35525   0.00000  Uiso   1.00
C1136  C     0.99997   0.74999   0.64475   0.00000  Uiso   1.00
C1137  C     0.50000   0.75000   0.85522   0.00000  Uiso   1.00
C1138  C     0.50000   0.75000   0.14478   0.00000  Uiso   1.00
C1139  C     0.75003   0.50001   0.85525   0.00000  Uiso   1.00
C1140  C     0.74997   0.50001   0.14475   0.00000  Uiso   1.00
C1141  C     0.67996   0.56992   0.24996   0.00000  Uiso   1.00
C1142  C     0.78132   0.51087   0.04189   0.00000  Uiso   1.00
C1143  C     0.82004   0.93008   0.75004   0.00000  Uiso   1.00
C1144  C     0.93007   0.68000   0.25000   0.00000  Uiso   1.00
C1145  C     0.56993   0.82000   0.75000   0.00000  Uiso   1.00
C1146  C     0.81994   0.93000   0.25001   0.00000  Uiso   1.00
C1147  C     0.68006   0.57000   0.74999   0.00000  Uiso   1.00
C1148  C     0.57003   0.81993   0.25000   0.00000  Uiso   1.00
C1149  C     0.92997   0.68008   0.75000   0.00000  Uiso   1.00
C1150  C     0.68007   0.93000   0.75000   0.00000  Uiso   1.00
C1151  C     0.81993   0.57000   0.25000   0.00000  Uiso   1.00
C1152  C     0.92996   0.81992   0.74996   0.00000  Uiso   1.00
C1153  C     0.71868   0.51085   0.95811   0.00000  Uiso   1.00
C1154  C     0.57004   0.68008   0.25004   0.00000  Uiso   1.00
C1155  C     0.82003   0.56993   0.75000   0.00000  Uiso   1.00
C1156  C     0.67997   0.93008   0.25000   0.00000  Uiso   1.00
C1157  C     0.56994   0.68000   0.75001   0.00000  Uiso   1.00
C1158  C     0.93006   0.82000   0.24999   0.00000  Uiso   1.00
C1159  C     0.65911   0.86808   0.23155   0.00000  Uiso   1.00
C1160  C     0.84083   0.63198   0.76832   0.00000  Uiso   1.00
C1161  C     0.63305   0.66033   0.23536   0.00000  Uiso   1.00
C1162  C     0.91015   0.88297   0.73440   0.00000  Uiso   1.00
C1163  C     0.88315   0.58989   0.26547   0.00000  Uiso   1.00
C1164  C     0.98915   0.78129   0.04179   0.00000  Uiso   1.00
C1165  C     0.61684   0.91013   0.73458   0.00000  Uiso   1.00
C1166  C     0.91039   0.88285   0.26497   0.00000  Uiso   1.00
C1167  C     0.58962   0.61717   0.73499   0.00000  Uiso   1.00
C1168  C     0.61693   0.58998   0.73424   0.00000  Uiso   1.00
C1169  C     0.88309   0.91003   0.26571   0.00000  Uiso   1.00
C1170  C     0.58952   0.88295   0.73535   0.00000  Uiso   1.00
C1171  C     0.91046   0.61707   0.26470   0.00000  Uiso   1.00
C1172  C     0.88302   0.91030   0.73527   0.00000  Uiso   1.00
C1173  C     0.66018   0.63299   0.23447   0.00000  Uiso   1.00
C1174  C     0.86811   0.65921   0.76788   0.00000  Uiso   1.00
C1175  C     0.98911   0.71872   0.95816   0.00000  Uiso   1.00
C1176  C     0.63183   0.84085   0.23198   0.00000  Uiso   1.00
C1177  C     0.90917   0.61802   0.73168   0.00000  Uiso   1.00
C1178  C     0.59089   0.88192   0.26846   0.00000  Uiso   1.00
C1179  C     0.83985   0.86703   0.76560   0.00000  Uiso   1.00
C1180  C     0.61695   0.58967   0.26463   0.00000  Uiso   1.00
C1181  C     0.63316   0.83987   0.76543   0.00000  Uiso   1.00
C1182  C     0.86685   0.66012   0.23454   0.00000  Uiso   1.00
C1183  C     0.66038   0.63283   0.76501   0.00000  Uiso   1.00
C1184  C     0.83961   0.86716   0.23503   0.00000  Uiso   1.00
C1185  C     0.86692   0.83997   0.23428   0.00000  Uiso   1.00
C1186  C     0.96863   0.76083   0.54174   0.00000  Uiso   1.00
C1187  C     0.63308   0.66002   0.76575   0.00000  Uiso   1.00
C1188  C     0.83954   0.63294   0.23531   0.00000  Uiso   1.00
C1189  C     0.66048   0.86705   0.76465   0.00000  Uiso   1.00
C1190  C     0.58982   0.61701   0.26552   0.00000  Uiso   1.00
C1191  C     0.86698   0.83970   0.76472   0.00000  Uiso   1.00
C1192  C     0.61817   0.90915   0.26803   0.00000  Uiso   1.00
C1193  C     0.88189   0.59079   0.73213   0.00000  Uiso   1.00
C1194  C     0.59806   0.84810   0.25028   0.00000  Uiso   1.00
C1195  C     0.90194   0.65190   0.74972   0.00000  Uiso   1.00
C1196  C     0.65189   0.59806   0.24953   0.00000  Uiso   1.00
H1197  H     0.69431   0.98001   0.02666   0.00000  Uiso   1.00
H1198  H     0.55569   0.76999   0.47334   0.00000  Uiso   1.00
H1199  H     0.70289   0.66729   0.79332   0.00000  Uiso   1.00
H1200  H     0.70501   0.61978   0.80395   0.00000  Uiso   1.00
H1201  H     0.78098   0.86308   0.24287   0.00000  Uiso   1.00
H1202  H     0.79494   0.88018   0.19611   0.00000  Uiso   1.00
H1203  H     0.79707   0.83267   0.20678   0.00000  Uiso   1.00
H1204  H     0.88253   0.78426   0.21531   0.00000  Uiso   1.00
H1205  H     0.83686   0.78903   0.23272   0.00000  Uiso   1.00
H1206  H     0.85012   0.80671   0.18567   0.00000  Uiso   1.00
H1207  H     0.61746   0.71573   0.78472   0.00000  Uiso   1.00
H1208  H     0.64984   0.69326   0.81439   0.00000  Uiso   1.00
H1209  H     0.76999   0.94444   0.52684   0.00000  Uiso   1.00
H1210  H     0.66314   0.71095   0.76736   0.00000  Uiso   1.00
H1211  H     0.78105   0.63714   0.24375   0.00000  Uiso   1.00
H1212  H     0.79687   0.66758   0.20754   0.00000  Uiso   1.00
H1213  H     0.79450   0.62011   0.19679   0.00000  Uiso   1.00
H1214  H     0.71896   0.86285   0.75615   0.00000  Uiso   1.00
H1215  H     0.70555   0.87984   0.80313   0.00000  Uiso   1.00
H1216  H     0.70317   0.83238   0.79234   0.00000  Uiso   1.00
H1217  H     0.53395   0.63267   0.28440   0.00000  Uiso   1.00
H1218  H     0.53867   0.58719   0.26663   0.00000  Uiso   1.00
H1219  H     0.55631   0.60009   0.31386   0.00000  Uiso   1.00
H1220  H     0.77005   0.55555   0.47323   0.00000  Uiso   1.00
H1221  H     0.86202   0.78171   0.75561   0.00000  Uiso   1.00
H1222  H     0.87994   0.79432   0.80257   0.00000  Uiso   1.00
H1223  H     0.83224   0.79727   0.79257   0.00000  Uiso   1.00
H1224  H     0.63374   0.95082   0.30930   0.00000  Uiso   1.00
H1225  H     0.61420   0.96779   0.26475   0.00000  Uiso   1.00
H1226  H     0.58557   0.94956   0.30145   0.00000  Uiso   1.00
H1227  H     0.86646   0.54893   0.69101   0.00000  Uiso   1.00
H1228  H     0.91461   0.55027   0.69898   0.00000  Uiso   1.00
H1229  H     0.88592   0.53218   0.73570   0.00000  Uiso   1.00
H1230  H     0.55565   0.73002   0.52692   0.00000  Uiso   1.00
H1231  H     0.94435   0.72999   0.47309   0.00000  Uiso   1.00
H1232  H     0.73001   0.55556   0.52674   0.00000  Uiso   1.00
H1233  H     0.72994   0.94445   0.47318   0.00000  Uiso   1.00
H1234  H     0.69405   0.98085   0.09711   0.00000  Uiso   1.00
H1235  H     0.80595   0.98089   0.90290   0.00000  Uiso   1.00
H1236  H     0.51918   0.69422   0.09728   0.00000  Uiso   1.00
H1237  H     0.80569   0.98005   0.97335   0.00000  Uiso   1.00
H1238  H     0.51923   0.80577   0.90280   0.00000  Uiso   1.00
H1239  H     0.80585   0.51921   0.09734   0.00000  Uiso   1.00
H1240  H     0.69415   0.51918   0.90266   0.00000  Uiso   1.00
H1241  H     0.98084   0.80579   0.09718   0.00000  Uiso   1.00
H1242  H     0.98076   0.69422   0.90275   0.00000  Uiso   1.00
H1243  H     0.94405   0.76911   0.59710   0.00000  Uiso   1.00
H1244  H     0.55595   0.76915   0.40289   0.00000  Uiso   1.00
H1245  H     0.76918   0.94422   0.59728   0.00000  Uiso   1.00
H1246  H     0.76923   0.55577   0.40280   0.00000  Uiso   1.00
H1247  H     0.55585   0.73082   0.59734   0.00000  Uiso   1.00
H1248  H     0.51999   0.69444   0.02684   0.00000  Uiso   1.00
H1249  H     0.94415   0.73079   0.40266   0.00000  Uiso   1.00
H1250  H     0.73084   0.55579   0.59718   0.00000  Uiso   1.00
H1251  H     0.73076   0.94422   0.40275   0.00000  Uiso   1.00
H1252  H     0.71450   0.88443   0.21172   0.00000  Uiso   1.00
H1253  H     0.70957   0.83774   0.22519   0.00000  Uiso   1.00
H1254  H     0.69023   0.85483   0.18025   0.00000  Uiso   1.00
H1255  H     0.78540   0.61567   0.78807   0.00000  Uiso   1.00
H1256  H     0.80958   0.64538   0.81948   0.00000  Uiso   1.00
H1257  H     0.79035   0.66232   0.77443   0.00000  Uiso   1.00
H1258  H     0.62014   0.70576   0.19757   0.00000  Uiso   1.00
H1259  H     0.52005   0.80555   0.97323   0.00000  Uiso   1.00
H1260  H     0.63800   0.71831   0.24457   0.00000  Uiso   1.00
H1261  H     0.66783   0.70279   0.20762   0.00000  Uiso   1.00
H1262  H     0.96602   0.86728   0.71550   0.00000  Uiso   1.00
H1263  H     0.94360   0.89978   0.68598   0.00000  Uiso   1.00
H1264  H     0.96129   0.91281   0.73315   0.00000  Uiso   1.00
H1265  H     0.86757   0.53411   0.28435   0.00000  Uiso   1.00
H1266  H     0.91313   0.53891   0.26659   0.00000  Uiso   1.00
H1267  H     0.90022   0.55640   0.31382   0.00000  Uiso   1.00
H1268  H     0.63240   0.96592   0.71574   0.00000  Uiso   1.00
H1269  H     0.59972   0.94366   0.68628   0.00000  Uiso   1.00
H1270  H     0.80565   0.52001   0.02691   0.00000  Uiso   1.00
H1271  H     0.58686   0.96111   0.73354   0.00000  Uiso   1.00
H1272  H     0.96902   0.88693   0.25712   0.00000  Uiso   1.00
H1273  H     0.95293   0.91733   0.29322   0.00000  Uiso   1.00
H1274  H     0.95506   0.86982   0.30388   0.00000  Uiso   1.00
H1275  H     0.53099   0.61309   0.74277   0.00000  Uiso   1.00
H1276  H     0.54499   0.63023   0.69604   0.00000  Uiso   1.00
H1277  H     0.54711   0.58271   0.70667   0.00000  Uiso   1.00
H1278  H     0.63255   0.53428   0.71525   0.00000  Uiso   1.00
H1279  H     0.58687   0.53905   0.73262   0.00000  Uiso   1.00
H1280  H     0.60017   0.55675   0.68559   0.00000  Uiso   1.00
H1281  H     0.69435   0.51998   0.97308   0.00000  Uiso   1.00
H1282  H     0.86748   0.96575   0.28466   0.00000  Uiso   1.00
H1283  H     0.89989   0.94331   0.31431   0.00000  Uiso   1.00
H1284  H     0.91315   0.96096   0.26725   0.00000  Uiso   1.00
H1285  H     0.53104   0.88716   0.74386   0.00000  Uiso   1.00
H1286  H     0.54683   0.91762   0.70766   0.00000  Uiso   1.00
H1287  H     0.54445   0.87016   0.69687   0.00000  Uiso   1.00
H1288  H     0.96895   0.61286   0.25626   0.00000  Uiso   1.00
H1289  H     0.95549   0.62989   0.30322   0.00000  Uiso   1.00
H1290  H     0.95313   0.58242   0.29247   0.00000  Uiso   1.00
H1291  H     0.88797   0.96829   0.74436   0.00000  Uiso   1.00
H1292  H     0.98001   0.80556   0.02674   0.00000  Uiso   1.00
H1293  H     0.91775   0.95272   0.70740   0.00000  Uiso   1.00
H1294  H     0.87005   0.95566   0.69741   0.00000  Uiso   1.00
H1295  H     0.71605   0.61733   0.21560   0.00000  Uiso   1.00
H1296  H     0.69369   0.64990   0.18614   0.00000  Uiso   1.00
H1297  H     0.71132   0.66282   0.23335   0.00000  Uiso   1.00
H1298  H     0.88356   0.70105   0.80902   0.00000  Uiso   1.00
H1299  H     0.86410   0.71782   0.76434   0.00000  Uiso   1.00
H1300  H     0.83541   0.69972   0.80106   0.00000  Uiso   1.00
H1301  H     0.61628   0.79915   0.19073   0.00000  Uiso   1.00
H1302  H     0.66445   0.80043   0.19858   0.00000  Uiso   1.00
H1303  H     0.97994   0.69445   0.97318   0.00000  Uiso   1.00
H1304  H     0.63582   0.78221   0.23529   0.00000  Uiso   1.00
H1305  H     0.96460   0.63434   0.71193   0.00000  Uiso   1.00
H1306  H     0.95966   0.58769   0.72558   0.00000  Uiso   1.00
H1307  H     0.94042   0.60461   0.68053   0.00000  Uiso   1.00
H1308  H     0.53549   0.86557   0.28828   0.00000  Uiso   1.00
H1309  H     0.55977   0.89516   0.31976   0.00000  Uiso   1.00
H1310  H     0.54043   0.91227   0.27483   0.00000  Uiso   1.00
H1311  H     0.78399   0.88272   0.78450   0.00000  Uiso   1.00
H1312  H     0.78871   0.83720   0.76684   0.00000  Uiso   1.00
H1313  H     0.80640   0.85021   0.81401   0.00000  Uiso   1.00
H1314  H     0.94431   0.76995   0.52665   0.00000  Uiso   1.00
H1315  H     0.62985   0.54422   0.30241   0.00000  Uiso   1.00
H1316  H     0.58216   0.54720   0.29235   0.00000  Uiso   1.00
H1317  H     0.61200   0.53169   0.25540   0.00000  Uiso   1.00
H1318  H     0.61759   0.78409   0.78429   0.00000  Uiso   1.00
H1319  H     0.66313   0.78889   0.76648   0.00000  Uiso   1.00
H1320  H     0.65028   0.80635   0.81373   0.00000  Uiso   1.00
H1321  H     0.88242   0.71590   0.21568   0.00000  Uiso   1.00
H1322  H     0.84978   0.69361   0.18620   0.00000  Uiso   1.00
H1323  H     0.83687   0.71109   0.23343   0.00000  Uiso   1.00
H1324  H     0.71901   0.63691   0.75722   0.00000  Uiso   1.00
O1325  O     0.75000   0.50000   0.25000   0.00000  Uiso   1.00
O1326  O     0.75000   0.96964   0.66317   0.00000  Uiso   1.00
O1327  O     0.96964   0.75000   0.33683   0.00000  Uiso   1.00
O1328  O     0.53036   0.75000   0.66317   0.00000  Uiso   1.00
O1329  O     0.50000   0.71964   0.83683   0.00000  Uiso   1.00
O1330  O     0.50000   0.78036   0.16317   0.00000  Uiso   1.00
O1331  O     0.78036   0.50000   0.83683   0.00000  Uiso   1.00
O1332  O     0.71964   0.50000   0.16317   0.00000  Uiso   1.00
O1333  O     0.50000   0.78036   0.83683   0.00000  Uiso   1.00
O1334  O     0.50000   0.71964   0.16317   0.00000  Uiso   1.00
O1335  O     0.71964   0.50000   0.83683   0.00000  Uiso   1.00
O1336  O     0.75000   0.50000   0.75000   0.00000  Uiso   1.00
O1337  O     0.78036   0.50000   0.16317   0.00000  Uiso   1.00
O1338  O     0.70726   0.57307   0.27282   0.00000  Uiso   1.00
O1339  O     0.79275   0.92693   0.72718   0.00000  Uiso   1.00
O1340  O     0.92693   0.70726   0.27282   0.00000  Uiso   1.00
O1341  O     0.57307   0.79274   0.72718   0.00000  Uiso   1.00
O1342  O     0.79275   0.92693   0.27282   0.00000  Uiso   1.00
O1343  O     0.70726   0.57307   0.72718   0.00000  Uiso   1.00
O1344  O     0.57307   0.79274   0.27282   0.00000  Uiso   1.00
O1345  O     0.92693   0.70726   0.72718   0.00000  Uiso   1.00
O1346  O     0.70726   0.92693   0.72718   0.00000  Uiso   1.00
O1347  O     0.50000   0.75000   0.25000   0.00000  Uiso   1.00
O1348  O     0.79275   0.57307   0.27282   0.00000  Uiso   1.00
O1349  O     0.92693   0.79275   0.72718   0.00000  Uiso   1.00
O1350  O     0.57307   0.70726   0.27282   0.00000  Uiso   1.00
O1351  O     0.79275   0.57307   0.72718   0.00000  Uiso   1.00
O1352  O     0.70726   0.92693   0.27282   0.00000  Uiso   1.00
O1353  O     0.57307   0.70726   0.72718   0.00000  Uiso   1.00
O1354  O     0.92693   0.79275   0.27282   0.00000  Uiso   1.00
O1355  O     0.95726   0.82307   0.77282   0.00000  Uiso   1.00
O1356  O     0.54275   0.67693   0.22718   0.00000  Uiso   1.00
O1357  O     0.67693   0.95726   0.77282   0.00000  Uiso   1.00
O1358  O     0.50000   0.75000   0.75000   0.00000  Uiso   1.00
O1359  O     0.82307   0.54275   0.22718   0.00000  Uiso   1.00
O1360  O     0.54275   0.67693   0.77282   0.00000  Uiso   1.00
O1361  O     0.95726   0.82307   0.22718   0.00000  Uiso   1.00
O1362  O     0.82307   0.54275   0.77282   0.00000  Uiso   1.00
O1363  O     0.67693   0.95726   0.22718   0.00000  Uiso   1.00
O1364  O     0.95726   0.67693   0.22718   0.00000  Uiso   1.00
O1365  O     0.54275   0.82307   0.77282   0.00000  Uiso   1.00
O1366  O     0.67693   0.54275   0.22718   0.00000  Uiso   1.00
O1367  O     0.82307   0.95726   0.77282   0.00000  Uiso   1.00
O1368  O     0.54275   0.82307   0.22718   0.00000  Uiso   1.00
O1369  O     0.75000   0.96964   0.33683   0.00000  Uiso   1.00
O1370  O     0.95726   0.67693   0.77282   0.00000  Uiso   1.00
O1371  O     0.82307   0.95726   0.22718   0.00000  Uiso   1.00
O1372  O     0.67693   0.54275   0.77282   0.00000  Uiso   1.00
O1373  O     0.75000   0.53036   0.66317   0.00000  Uiso   1.00
O1374  O     0.53036   0.75000   0.33683   0.00000  Uiso   1.00
O1375  O     0.96964   0.75000   0.66317   0.00000  Uiso   1.00
O1376  O     0.75000   0.53036   0.33683   0.00000  Uiso   1.00
Zn1377 Zn    0.70660   0.50000   0.21760   0.00000  Uiso   1.00
Zn1378 Zn    0.54340   0.75000   0.28240   0.00000  Uiso   1.00
Zn1379 Zn    0.75000   0.95660   0.71760   0.00000  Uiso   1.00
Zn1380 Zn    0.75000   0.54340   0.28240   0.00000  Uiso   1.00
Zn1381 Zn    0.54340   0.75000   0.71760   0.00000  Uiso   1.00
Zn1382 Zn    0.95660   0.75000   0.28240   0.00000  Uiso   1.00
Zn1383 Zn    0.75000   0.54340   0.71760   0.00000  Uiso   1.00
Zn1384 Zn    0.75000   0.95660   0.28240   0.00000  Uiso   1.00
Zn1385 Zn    0.79340   0.50000   0.78240   0.00000  Uiso   1.00
Zn1386 Zn    0.50000   0.70660   0.21760   0.00000  Uiso   1.00
Zn1387 Zn    0.50000   0.79340   0.78240   0.00000  Uiso   1.00
Zn1388 Zn    0.79340   0.50000   0.21760   0.00000  Uiso   1.00
Zn1389 Zn    0.70660   0.50000   0.78240   0.00000  Uiso   1.00
Zn1390 Zn    0.50000   0.79340   0.21760   0.00000  Uiso   1.00
Zn1391 Zn    0.50000   0.70660   0.78240   0.00000  Uiso   1.00
Zn1392 Zn    0.95660   0.75000   0.71760   0.00000  Uiso   1.00
loop_
_geom_bond_atom_site_label_1
_geom_bond_atom_site_label_2
_geom_bond_distance
_geom_bond_site_symmetry_2
_ccdc_geom_bond_type
C1     C62     1.392   .     A
C1     H153    1.083   .     S
C1     C776    1.405   .     A
C2     C85     1.405   .     A
C2     C72     1.392   .     A
C2     H154    1.083   .     S
C3     C128    1.414   .     A
C3     C99     1.454   .     S
C3     C135    1.414   .     A
C4     C127    1.414   .     A
C4     C138    1.415   .     A
C4     C100    1.454   .     S
C5     C126    1.414   .     A
C5     C101    1.454   .     S
C5     C137    1.415   .     A
C6     C125    1.415   .     A
C6     C102    1.455   .     S
C6     C140    1.414   .     A
C7     C103    1.455   .     S
C7     C124    1.415   .     A
C7     C139    1.414   .     A
C8     C123    1.414   .     A
C8     C143    1.415   .     A
C8     C113    1.455   .     S
C9     C114    1.455   .     S
C9     C122    1.414   .     A
C9     C141    1.415   .     A
C10    C106    1.454   .     S
C10    C121    1.415   .     A
C10    C145    1.414   .     A
C11    C119    1.415   .     A
C11    C144    1.414   .     A
C11    C107    1.454   .     S
C12    C108    1.454   .     S
C12    C147    1.414   .     A
C12    C118    1.414   .     A
C13    H165    1.083   .     S
C13    C73     1.392   .     A
C13    C782    1.405   .     S
C14    C117    1.414   .     A
C14    C110    1.454   .     S
C14    C146    1.414   .     A
C15    C149    1.413   .     A
C15    C116    1.414   .     A
C15    C111    1.454   .     S
C16    C115    1.414   .     A
C16    C112    1.454   .     S
C16    C148    1.413   .     A
C17    C67     1.402   .     A
C17    C96     1.464   .     S
C17    C758    1.402   1_545 S
C18    C68     1.402   .     A
C18    C95     1.464   .     S
C18    C759    1.402   1_545 S
C19    C94     1.464   .     S
C19    C64     1.402   .     A
C19    C417    1.402   1_455 S
C20    C418    1.402   1_455 A
C20    C93     1.464   .     S
C20    C66     1.402   .     S
C21    C92     1.464   .     S
C21    C71     1.402   .     A
C21    C423    1.402   .     S
C22    C91     1.464   .     S
C22    C72     1.402   .     A
C22    C425    1.402   1_455 S
C23    C90     1.464   .     S
C23    C78     1.402   .     A
C23    C769    1.402   1_545 S
C24    H176    1.083   .     S
C24    C74     1.392   .     A
C24    C88     1.405   .     S
C25    C785    1.464   .     S
C25    C79     1.402   .     A
C25    C770    1.402   .     S
C26    H210    1.110   .     S
C26    C115    1.521   .     S
C26    H208    1.107   .     S
C26    H209    1.110   .     S
C27    H213    1.110   .     S
C27    H212    1.110   .     S
C27    H211    1.107   .     S
C27    C116    1.521   .     S
C28    H216    1.108   .     S
C28    H217    1.105   .     S
C28    C117    1.521   .     S
C28    H214    1.111   .     S
C29    H218    1.106   .     S
C29    C118    1.521   .     S
C29    H220    1.110   .     S
C29    H219    1.110   .     S
C30    H222    1.110   .     S
C30    H223    1.110   .     S
C30    H221    1.106   .     S
C30    C119    1.521   .     S
C31    C121    1.521   .     S
C31    H225    1.110   .     S
C31    H224    1.106   .     S
C31    H227    1.110   .     S
C32    H230    1.111   .     S
C32    H228    1.110   .     S
C32    C122    1.523   .     S
C32    H229    1.105   .     S
C33    H232    1.111   .     S
C33    H233    1.105   .     S
C33    H231    1.110   .     S
C33    C123    1.523   .     S
C34    C124    1.521   .     S
C34    H235    1.110   .     S
C34    H236    1.110   .     S
C34    H234    1.106   .     S
C35    H186    1.083   .     S
C35    C75     1.391   .     A
C35    C432    1.404   1_455 S
C36    H239    1.110   .     S
C36    H238    1.106   .     S
C36    H240    1.110   .     S
C36    C125    1.521   .     S
C37    H243    1.111   .     S
C37    H241    1.110   .     S
C37    C126    1.523   .     S
C37    H242    1.105   .     S
C38    H245    1.111   .     S
C38    H246    1.105   .     S
C38    H244    1.110   .     S
C38    C127    1.523   .     S
C39    C128    1.521   .     S
C39    H250    1.111   .     S
C39    H249    1.105   .     S
C39    H247    1.108   .     S
C40    H251    1.106   .     S
C40    C129    1.521   .     S
C40    H252    1.110   .     S
C40    H253    1.110   .     S
C41    H256    1.105   .     S
C41    H255    1.108   .     S
C41    C130    1.521   .     S
C41    H254    1.111   .     S
C42    H257    1.111   .     S
C42    H260    1.108   .     S
C42    H258    1.105   .     S
C42    C132    1.521   .     S
C43    C133    1.521   .     S
C43    H262    1.110   .     S
C43    H263    1.110   .     S
C43    H261    1.107   .     S
C44    H265    1.110   .     S
C44    C134    1.521   .     S
C44    H266    1.110   .     S
C44    H264    1.107   .     S
C45    H267    1.106   .     S
C45    C135    1.521   .     S
C45    H269    1.110   .     S
C45    H268    1.110   .     S
C46    C77     1.391   .     A
C46    H187    1.083   .     S
C46    C433    1.404   .     S
C47    C136    1.521   .     S
C47    H272    1.105   .     S
C47    H271    1.111   .     S
C47    H273    1.108   .     S
C48    H274    1.106   .     S
C48    H276    1.110   .     S
C48    C137    1.521   .     S
C48    H275    1.110   .     S
C49    H277    1.106   .     S
C49    H279    1.110   .     S
C49    C138    1.521   .     S
C49    H278    1.110   .     S
C50    H280    1.110   .     S
C50    H155    1.105   .     S
C50    C139    1.523   .     S
C50    H156    1.111   .     S
C51    C140    1.523   .     S
C51    H157    1.110   .     S
C51    H158    1.111   .     S
C51    H159    1.105   .     S
C52    H161    1.110   .     S
C52    H160    1.106   .     S
C52    C141    1.521   .     S
C52    H162    1.110   .     S
C53    H163    1.106   .     S
C53    H166    1.110   .     S
C53    H164    1.110   .     S
C53    C143    1.521   .     S
C54    C144    1.523   .     S
C54    H167    1.110   .     S
C54    H169    1.111   .     S
C54    H168    1.105   .     S
C55    C145    1.523   .     S
C55    H172    1.105   .     S
C55    H170    1.110   .     S
C55    H171    1.111   .     S
C56    H174    1.110   .     S
C56    H173    1.106   .     S
C56    C146    1.521   .     S
C56    H175    1.110   .     S
C57    C78     1.392   .     A
C57    C86     1.405   .     A
C57    H188    1.083   .     S
C58    H178    1.111   .     S
C58    C147    1.521   .     S
C58    H179    1.105   .     S
C58    H177    1.108   .     S
C59    H182    1.105   .     S
C59    H180    1.111   .     S
C59    H181    1.108   .     S
C59    C148    1.521   .     S
C60    H184    1.105   .     S
C60    H185    1.108   .     S
C60    H183    1.111   .     S
C60    C149    1.521   .     S
C61    H189    1.083   .     S
C61    C79     1.392   .     A
C61    C784    1.405   .     A
C62    H190    1.083   .     S
C62    C713    1.402   .     S
C63    C65     1.392   .     A
C63    H191    1.083   .     S
C63    C714    1.402   .     S
C64    H192    1.083   .     S
C64    C76     1.392   .     A
C65    H193    1.083   .     S
C65    C777    1.405   .     S
C66    H194    1.083   .     S
C66    C87     1.392   .     A
C67    C98     1.391   .     A
C67    H195    1.083   .     S
C68    H196    1.083   .     S
C68    C109    1.391   .     A
C69    C120    1.392   .     A
C69    H197    1.083   .     S
C69    C367    1.402   .     S
C70    H198    1.083   .     S
C70    C368    1.402   .     A
C70    C131    1.392   .     A
C71    H199    1.083   .     S
C71    C142    1.392   .     A
C72    H200    1.083   .     S
C73    H201    1.083   .     S
C73    C719    1.402   .     S
C74    H202    1.083   .     S
C74    C721    1.402   1_545 S
C75    H203    1.083   .     S
C75    C369    1.402   1_455 S
C76    H204    1.083   .     S
C76    C82     1.405   .     S
C77    H205    1.083   .     S
C77    C370    1.402   .     S
C78    H206    1.083   .     S
C79    H207    1.083   .     S
C80    C697    1.405   1_545 A
C80    C81     1.474   1_554 S
C80    C98     1.404   .     S
C81    C109    1.404   .     A
C81    C80     1.474   1_556 S
C81    C761    1.405   1_545 S
C82    C468    1.405   1_455 A
C82    C83     1.475   1_554 S
C83    C479    1.405   1_455 A
C83    C82     1.475   1_556 S
C83    C87     1.405   .     S
C84    C142    1.405   .     A
C84    C383    1.404   .     S
C84    C433    1.474   .     S
C85    C394    1.404   1_455 S
C85    C432    1.474   1_455 S
C86    C709    1.405   1_545 S
C86    C88     1.475   .     S
C87    H215    1.083   .     S
C88    C757    1.405   1_545 A
C89    O1021   1.281   1_545 A
C89    C721    1.464   1_545 S
C89    O332    1.281   .     S
C90    O329    1.281   .     A
C90    O978    1.281   1_545 S
C91    O330    1.280   .     A
C91    O631    1.279   1_455 S
C92    O331    1.279   .     A
C92    O632    1.279   .     S
C93    O285    1.281   .     S
C93    O289    1.281   .     S
C94    O290    1.281   .     A
C94    O286    1.281   .     A
C95    O287    1.279   .     S
C95    O291    1.279   .     S
C96    O293    1.279   .     A
C96    O288    1.279   .     A
C97    O294    1.277   .     A
C97    C152    1.454   .     S
C97    O322    1.274   .     A
C98    H226    1.083   .     S
C99    O295    1.277   .     A
C99    O323    1.274   .     A
C100   O296    1.278   .     A
C100   O320    1.275   .     A
C101   O297    1.278   .     A
C101   O321    1.275   .     A
C102   O327    1.278   .     A
C102   O298    1.275   .     A
C103   O299    1.275   .     A
C103   O328    1.278   .     A
C104   C150    1.454   .     S
C104   O300    1.275   .     A
C104   O324    1.276   .     A
C105   C151    1.454   .     S
C105   O301    1.275   .     A
C105   O326    1.276   .     A
C106   O302    1.275   .     A
C106   O313    1.278   .     A
C107   O315    1.278   .     A
C107   O304    1.275   .     A
C108   O311    1.277   .     A
C108   O305    1.274   .     A
C109   H237    1.083   .     S
C110   O312    1.277   .     A
C110   O306    1.274   .     A
C111   O307    1.276   .     A
C111   O318    1.275   .     A
C112   O319    1.275   .     A
C112   O308    1.276   .     A
C113   O309    1.278   .     A
C113   O316    1.275   .     A
C114   O317    1.275   .     A
C114   O310    1.278   .     A
C115   C132    1.410   .     A
C116   C130    1.410   .     A
C117   C129    1.410   .     A
C118   C128    1.410   .     A
C119   C127    1.410   .     A
C120   C430    1.405   .     A
C120   H248    1.083   .     S
C121   C126    1.410   .     A
C122   C125    1.410   .     A
C123   C124    1.410   .     A
C129   C152    1.414   .     A
C130   C151    1.413   .     A
C131   H259    1.083   .     S
C131   C431    1.405   .     A
C132   C150    1.413   .     A
C133   C151    1.414   .     A
C133   C149    1.410   .     A
C134   C150    1.414   .     A
C134   C148    1.410   .     A
C135   C147    1.410   .     A
C136   C146    1.410   .     A
C136   C152    1.414   .     A
C137   C145    1.410   .     A
C138   C144    1.410   .     A
C139   C143    1.410   .     A
C140   C141    1.410   .     A
C142   H270    1.083   .     S
O281   Zn336   1.945   .     S
O281   Zn333   1.940   .     S
O281   Zn344   1.944   .     S
O281   Zn1036  1.944   1_545 S
O282   Zn335   1.942   .     S
O282   C786    1.281   .     S
O283   Zn338   1.941   .     S
O283   C439    1.279   .     S
O284   Zn337   1.941   .     S
O284   C440    1.279   1_455 S
O285   Zn347   1.942   .     S
O286   Zn346   1.942   .     S
O287   Zn341   1.943   .     S
O288   Zn333   1.943   .     S
O289   Zn343   1.942   .     S
O290   Zn342   1.942   .     S
O291   Zn345   1.941   .     S
O292   Zn339   1.944   .     S
O292   Zn1031  1.945   1_545 S
O292   Zn341   1.940   .     S
O292   Zn345   1.944   .     S
O293   Zn344   1.941   .     S
O294   Zn336   1.931   .     S
O295   Zn335   1.931   .     S
O296   Zn338   1.932   .     S
O297   Zn337   1.932   .     S
O298   Zn340   1.932   .     S
O299   Zn339   1.932   .     S
O300   Zn334   1.933   .     S
O301   Zn348   1.933   .     S
O302   Zn335   1.932   .     S
O303   Zn342   1.945   .     S
O303   Zn346   1.944   .     S
O303   Zn334   1.940   .     S
O303   Zn686   1.944   1_455 S
O304   Zn336   1.932   .     S
O305   Zn348   1.934   .     S
O306   Zn334   1.934   .     S
O307   Zn339   1.931   .     S
O308   Zn340   1.931   .     S
O309   Zn337   1.933   .     S
O310   Zn338   1.933   .     S
O311   Zn691   1.931   .     S
O312   Zn342   1.931   .     S
O313   Zn1041  1.932   .     S
O314   Zn337   1.944   .     S
O314   Zn347   1.944   .     S
O314   Zn343   1.945   .     S
O314   Zn696   1.940   1_455 S
O315   Zn344   1.932   .     S
O316   Zn347   1.932   .     S
O317   Zn694   1.932   .     S
O318   Zn341   1.933   .     S
O319   Zn1029  1.933   .     S
O320   Zn690   1.932   .     S
O321   Zn343   1.932   .     S
O322   Zn333   1.934   .     S
O323   Zn1037  1.934   .     S
O324   Zn346   1.931   .     S
O325   C785    1.281   .     A
O325   Zn340   1.942   .     S
O326   Zn695   1.931   .     S
O327   Zn1040  1.933   .     S
O328   Zn345   1.933   .     S
O329   Zn339   1.942   .     S
O330   Zn334   1.943   .     S
O331   Zn348   1.943   .     S
O332   Zn336   1.942   .     S
Zn333  O1015   1.933   1_545 S
Zn335  O988    1.945   .     S
Zn338  O651    1.944   .     S
Zn340  O977    1.944   .     S
Zn341  O1019   1.934   1_545 S
Zn342  O668    1.932   1_455 S
Zn343  O659    1.931   1_455 S
Zn344  O1023   1.933   1_545 S
Zn345  O1009   1.932   1_545 S
Zn346  O665    1.932   1_455 S
Zn347  O674    1.931   1_455 S
Zn348  O662    1.940   .     S
C349   C410    1.392   .     A
C349   H501    1.083   .     S
C349   C1124   1.405   .     A
C350   C433    1.405   .     A
C350   C420    1.392   .     A
C350   H502    1.083   .     S
C351   C476    1.414   .     A
C351   C447    1.454   .     S
C351   C483    1.414   .     A
C352   C475    1.414   .     A
C352   C486    1.415   .     A
C352   C448    1.454   .     S
C353   C474    1.414   .     A
C353   C449    1.454   .     S
C353   C485    1.415   .     A
C354   C473    1.415   .     A
C354   C450    1.455   .     S
C354   C488    1.414   .     A
C355   C451    1.455   .     S
C355   C472    1.415   .     A
C355   C487    1.414   .     A
C356   C471    1.414   .     A
C356   C491    1.415   .     A
C356   C461    1.455   .     S
C357   C462    1.455   .     S
C357   C470    1.414   .     A
C357   C489    1.415   .     A
C358   C454    1.454   .     S
C358   C469    1.415   .     A
C358   C493    1.414   .     A
C359   C467    1.415   .     A
C359   C492    1.414   .     A
C359   C455    1.454   .     S
C360   C456    1.454   .     S
C360   C495    1.414   .     A
C360   C466    1.414   .     A
C361   H513    1.083   .     S
C361   C421    1.392   .     A
C361   C1130   1.405   .     S
C362   C465    1.414   .     A
C362   C458    1.454   .     S
C362   C494    1.414   .     A
C363   C497    1.413   .     A
C363   C464    1.414   .     A
C363   C459    1.454   .     S
C364   C463    1.414   .     A
C364   C460    1.454   .     S
C364   C496    1.413   .     A
C365   C415    1.402   .     A
C365   C444    1.464   .     S
C365   C1106   1.402   1_545 S
C366   C416    1.402   .     A
C366   C443    1.464   .     S
C366   C1107   1.402   1_545 S
C367   C442    1.464   .     S
C367   C412    1.402   .     A
C368   C441    1.464   .     S
C368   C414    1.402   .     S
C369   C440    1.464   .     S
C369   C419    1.402   .     A
C369   C75     1.402   1_655 S
C370   C439    1.464   .     S
C370   C420    1.402   .     A
C371   C438    1.464   .     S
C371   C426    1.402   .     A
C371   C1117   1.402   1_545 S
C372   H524    1.083   .     S
C372   C422    1.392   .     A
C372   C436    1.405   .     S
C373   C1133   1.464   .     S
C373   C427    1.402   .     A
C373   C1118   1.402   .     S
C374   H558    1.110   .     S
C374   C463    1.521   .     S
C374   H556    1.107   .     S
C374   H557    1.110   .     S
C375   H561    1.110   .     S
C375   H560    1.110   .     S
C375   H559    1.107   .     S
C375   C464    1.521   .     S
C376   H564    1.108   .     S
C376   H565    1.105   .     S
C376   C465    1.521   .     S
C376   H562    1.111   .     S
C377   H566    1.106   .     S
C377   C466    1.521   .     S
C377   H568    1.110   .     S
C377   H567    1.110   .     S
C378   H570    1.110   .     S
C378   H571    1.110   .     S
C378   H569    1.106   .     S
C378   C467    1.521   .     S
C379   C469    1.521   .     S
C379   H573    1.110   .     S
C379   H572    1.106   .     S
C379   H575    1.110   .     S
C380   H578    1.111   .     S
C380   H576    1.110   .     S
C380   C470    1.523   .     S
C380   H577    1.105   .     S
C381   H580    1.111   .     S
C381   H581    1.105   .     S
C381   H579    1.110   .     S
C381   C471    1.523   .     S
C382   C472    1.521   .     S
C382   H583    1.110   .     S
C382   H584    1.110   .     S
C382   H582    1.106   .     S
C383   H534    1.083   .     S
C383   C423    1.391   .     A
C384   H587    1.110   .     S
C384   H586    1.106   .     S
C384   H588    1.110   .     S
C384   C473    1.521   .     S
C385   H591    1.111   .     S
C385   H589    1.110   .     S
C385   C474    1.523   .     S
C385   H590    1.105   .     S
C386   H593    1.111   .     S
C386   H594    1.105   .     S
C386   H592    1.110   .     S
C386   C475    1.523   .     S
C387   C476    1.521   .     S
C387   H598    1.111   .     S
C387   H597    1.105   .     S
C387   H595    1.108   .     S
C388   H599    1.106   .     S
C388   C477    1.521   .     S
C388   H600    1.110   .     S
C388   H601    1.110   .     S
C389   H604    1.105   .     S
C389   H603    1.108   .     S
C389   C478    1.521   .     S
C389   H602    1.111   .     S
C390   H605    1.111   .     S
C390   H608    1.108   .     S
C390   H606    1.105   .     S
C390   C480    1.521   .     S
C391   C481    1.521   .     S
C391   H610    1.110   .     S
C391   H611    1.110   .     S
C391   H609    1.107   .     S
C392   H613    1.110   .     S
C392   C482    1.521   .     S
C392   H614    1.110   .     S
C392   H612    1.107   .     S
C393   H615    1.106   .     S
C393   C483    1.521   .     S
C393   H617    1.110   .     S
C393   H616    1.110   .     S
C394   C425    1.391   .     A
C394   H535    1.083   .     S
C394   C85     1.404   1_655 S
C395   C484    1.521   .     S
C395   H620    1.105   .     S
C395   H619    1.111   .     S
C395   H621    1.108   .     S
C396   H622    1.106   .     S
C396   H624    1.110   .     S
C396   C485    1.521   .     S
C396   H623    1.110   .     S
C397   H625    1.106   .     S
C397   H627    1.110   .     S
C397   C486    1.521   .     S
C397   H626    1.110   .     S
C398   H628    1.110   .     S
C398   H503    1.105   .     S
C398   C487    1.523   .     S
C398   H504    1.111   .     S
C399   C488    1.523   .     S
C399   H505    1.110   .     S
C399   H506    1.111   .     S
C399   H507    1.105   .     S
C400   H509    1.110   .     S
C400   H508    1.106   .     S
C400   C489    1.521   .     S
C400   H510    1.110   .     S
C401   H511    1.106   .     S
C401   H514    1.110   .     S
C401   H512    1.110   .     S
C401   C491    1.521   .     S
C402   C492    1.523   .     S
C402   H515    1.110   .     S
C402   H517    1.111   .     S
C402   H516    1.105   .     S
C403   C493    1.523   .     S
C403   H520    1.105   .     S
C403   H518    1.110   .     S
C403   H519    1.111   .     S
C404   H522    1.110   .     S
C404   H521    1.106   .     S
C404   C494    1.521   .     S
C404   H523    1.110   .     S
C405   C426    1.392   .     A
C405   C434    1.405   .     A
C405   H536    1.083   .     S
C406   H526    1.111   .     S
C406   C495    1.521   .     S
C406   H527    1.105   .     S
C406   H525    1.108   .     S
C407   H530    1.105   .     S
C407   H528    1.111   .     S
C407   H529    1.108   .     S
C407   C496    1.521   .     S
C408   H532    1.105   .     S
C408   H533    1.108   .     S
C408   H531    1.111   .     S
C408   C497    1.521   .     S
C409   H537    1.083   .     S
C409   C427    1.392   .     A
C409   C1132   1.405   .     A
C410   H538    1.083   .     S
C410   C1061   1.402   .     S
C411   C413    1.392   .     A
C411   H539    1.083   .     S
C411   C1062   1.402   .     S
C412   H540    1.083   .     S
C412   C424    1.392   .     A
C413   H541    1.083   .     S
C413   C1125   1.405   .     S
C414   H542    1.083   .     S
C414   C435    1.392   .     A
C415   C446    1.391   .     A
C415   H543    1.083   .     S
C416   H544    1.083   .     S
C416   C457    1.391   .     A
C417   C468    1.392   .     A
C417   H545    1.083   .     S
C417   C19     1.402   1_655 S
C418   H546    1.083   .     S
C418   C20     1.402   1_655 A
C418   C479    1.392   .     A
C419   H547    1.083   .     S
C419   C490    1.392   .     A
C420   H548    1.083   .     S
C421   H549    1.083   .     S
C421   C1067   1.402   .     S
C422   H550    1.083   .     S
C422   C1069   1.402   1_545 S
C423   H551    1.083   .     S
C424   H552    1.083   .     S
C424   C430    1.405   .     S
C425   H553    1.083   .     S
C425   C22     1.402   1_655 S
C426   H554    1.083   .     S
C427   H555    1.083   .     S
C428   C1045   1.405   1_545 A
C428   C429    1.474   1_554 S
C428   C446    1.404   .     S
C429   C457    1.404   .     A
C429   C428    1.474   1_556 S
C429   C1109   1.405   1_545 S
C430   C431    1.475   1_554 S
C431   C430    1.475   1_556 S
C431   C435    1.405   .     S
C432   C490    1.405   .     A
C432   C35     1.404   1_655 S
C432   C85     1.474   1_655 S
C434   C1057   1.405   1_545 S
C434   C436    1.475   .     S
C435   H563    1.083   .     S
C436   C1105   1.405   1_545 A
C437   O1369   1.281   1_545 A
C437   C1069   1.464   1_545 S
C437   O680    1.281   .     S
C438   O677    1.281   .     A
C438   O1326   1.281   1_545 S
C439   O678    1.280   .     A
C440   O679    1.279   .     A
C440   O284    1.279   1_655 S
C441   O633    1.281   .     S
C441   O637    1.281   .     S
C442   O638    1.281   .     A
C442   O634    1.281   .     A
C443   O635    1.279   .     S
C443   O639    1.279   .     S
C444   O641    1.279   .     A
C444   O636    1.279   .     A
C445   O642    1.277   .     A
C445   C500    1.454   .     S
C445   O670    1.274   .     A
C446   H574    1.083   .     S
C447   O643    1.277   .     A
C447   O671    1.274   .     A
C448   O644    1.278   .     A
C448   O668    1.275   .     A
C449   O645    1.278   .     A
C449   O669    1.275   .     A
C450   O675    1.278   .     A
C450   O646    1.275   .     A
C451   O647    1.275   .     A
C451   O676    1.278   .     A
C452   C498    1.454   .     S
C452   O648    1.275   .     A
C452   O672    1.276   .     A
C453   C499    1.454   .     S
C453   O649    1.275   .     A
C453   O674    1.276   .     A
C454   O650    1.275   .     A
C454   O661    1.278   .     A
C455   O663    1.278   .     A
C455   O652    1.275   .     A
C456   O659    1.277   .     A
C456   O653    1.274   .     A
C457   H585    1.083   .     S
C458   O660    1.277   .     A
C458   O654    1.274   .     A
C459   O655    1.276   .     A
C459   O666    1.275   .     A
C460   O667    1.275   .     A
C460   O656    1.276   .     A
C461   O657    1.278   .     A
C461   O664    1.275   .     A
C462   O665    1.275   .     A
C462   O658    1.278   .     A
C463   C480    1.410   .     A
C464   C478    1.410   .     A
C465   C477    1.410   .     A
C466   C476    1.410   .     A
C467   C475    1.410   .     A
C468   C82     1.405   1_655 A
C468   H596    1.083   .     S
C469   C474    1.410   .     A
C470   C473    1.410   .     A
C471   C472    1.410   .     A
C477   C500    1.414   .     A
C478   C499    1.413   .     A
C479   H607    1.083   .     S
C479   C83     1.405   1_655 A
C480   C498    1.413   .     A
C481   C499    1.414   .     A
C481   C497    1.410   .     A
C482   C498    1.414   .     A
C482   C496    1.410   .     A
C483   C495    1.410   .     A
C484   C494    1.410   .     A
C484   C500    1.414   .     A
C485   C493    1.410   .     A
C486   C492    1.410   .     A
C487   C491    1.410   .     A
C488   C489    1.410   .     A
C490   H618    1.083   .     S
O629   Zn684   1.945   .     S
O629   Zn681   1.940   .     S
O629   Zn692   1.944   .     S
O629   Zn1384  1.944   1_545 S
O630   Zn683   1.942   .     S
O630   C1134   1.281   .     S
O631   Zn686   1.941   .     S
O631   C91     1.279   1_655 S
O632   Zn685   1.941   .     S
O633   Zn695   1.942   .     S
O634   Zn694   1.942   .     S
O635   Zn689   1.943   .     S
O636   Zn681   1.943   .     S
O637   Zn691   1.942   .     S
O638   Zn690   1.942   .     S
O639   Zn693   1.941   .     S
O640   Zn687   1.944   .     S
O640   Zn1379  1.945   1_545 S
O640   Zn689   1.940   .     S
O640   Zn693   1.944   .     S
O641   Zn692   1.941   .     S
O642   Zn684   1.931   .     S
O643   Zn683   1.931   .     S
O644   Zn686   1.932   .     S
O645   Zn685   1.932   .     S
O646   Zn688   1.932   .     S
O647   Zn687   1.932   .     S
O648   Zn682   1.933   .     S
O649   Zn696   1.933   .     S
O650   Zn683   1.932   .     S
O651   Zn690   1.945   .     S
O651   Zn694   1.944   .     S
O651   Zn682   1.940   .     S
O652   Zn684   1.932   .     S
O653   Zn696   1.934   .     S
O654   Zn682   1.934   .     S
O655   Zn687   1.931   .     S
O656   Zn688   1.931   .     S
O657   Zn685   1.933   .     S
O658   Zn686   1.933   .     S
O659   Zn343   1.931   1_655 S
O660   Zn690   1.931   .     S
O661   Zn1389  1.932   .     S
O662   Zn685   1.944   .     S
O662   Zn695   1.944   .     S
O662   Zn691   1.945   .     S
O663   Zn692   1.932   .     S
O664   Zn695   1.932   .     S
O665   Zn346   1.932   1_655 S
O666   Zn689   1.933   .     S
O667   Zn1377  1.933   .     S
O668   Zn342   1.932   1_655 S
O669   Zn691   1.932   .     S
O670   Zn681   1.934   .     S
O671   Zn1385  1.934   .     S
O672   Zn694   1.931   .     S
O673   C1133   1.281   .     A
O673   Zn688   1.942   .     S
O674   Zn347   1.931   1_655 S
O675   Zn1388  1.933   .     S
O676   Zn693   1.933   .     S
O677   Zn687   1.942   .     S
O678   Zn682   1.943   .     S
O679   Zn696   1.943   .     S
O680   Zn684   1.942   .     S
Zn681  O1363   1.933   1_545 S
Zn683  O1336   1.945   .     S
Zn686  O303    1.944   1_655 S
Zn688  O1325   1.944   .     S
Zn689  O1367   1.934   1_545 S
Zn692  O1371   1.933   1_545 S
Zn693  O1357   1.932   1_545 S
Zn696  O314    1.940   1_655 S
C697   C758    1.392   .     A
C697   H849    1.083   .     S
C697   C80     1.405   1_565 A
C698   C781    1.405   .     A
C698   C768    1.392   .     A
C698   H850    1.083   .     S
C699   C824    1.414   .     A
C699   C795    1.454   .     S
C699   C831    1.414   .     A
C700   C823    1.414   .     A
C700   C834    1.415   .     A
C700   C796    1.454   .     S
C701   C822    1.414   .     A
C701   C797    1.454   .     S
C701   C833    1.415   .     A
C702   C821    1.415   .     A
C702   C798    1.455   .     S
C702   C836    1.414   .     A
C703   C799    1.455   .     S
C703   C820    1.415   .     A
C703   C835    1.414   .     A
C704   C819    1.414   .     A
C704   C839    1.415   .     A
C704   C809    1.455   .     S
C705   C810    1.455   .     S
C705   C818    1.414   .     A
C705   C837    1.415   .     A
C706   C802    1.454   .     S
C706   C817    1.415   .     A
C706   C841    1.414   .     A
C707   C815    1.415   .     A
C707   C840    1.414   .     A
C707   C803    1.454   .     S
C708   C804    1.454   .     S
C708   C843    1.414   .     A
C708   C814    1.414   .     A
C709   H861    1.083   .     S
C709   C769    1.392   .     A
C709   C86     1.405   1_565 S
C710   C813    1.414   .     A
C710   C806    1.454   .     S
C710   C842    1.414   .     A
C711   C845    1.413   .     A
C711   C812    1.414   .     A
C711   C807    1.454   .     S
C712   C811    1.414   .     A
C712   C808    1.454   .     S
C712   C844    1.413   .     A
C713   C763    1.402   .     A
C713   C792    1.464   .     S
C714   C764    1.402   .     A
C714   C791    1.464   .     S
C715   C790    1.464   .     S
C715   C760    1.402   .     A
C715   C1113   1.402   1_455 S
C716   C1114   1.402   1_455 A
C716   C789    1.464   .     S
C716   C762    1.402   .     S
C717   C788    1.464   .     S
C717   C767    1.402   .     A
C717   C1119   1.402   .     S
C718   C787    1.464   .     S
C718   C768    1.402   .     A
C718   C1121   1.402   1_455 S
C719   C786    1.464   .     S
C719   C774    1.402   .     A
C720   H872    1.083   .     S
C720   C770    1.392   .     A
C720   C784    1.405   .     S
C721   C89     1.464   1_565 S
C721   C775    1.402   .     A
C721   C74     1.402   1_565 S
C722   H906    1.110   .     S
C722   C811    1.521   .     S
C722   H904    1.107   .     S
C722   H905    1.110   .     S
C723   H909    1.110   .     S
C723   H908    1.110   .     S
C723   H907    1.107   .     S
C723   C812    1.521   .     S
C724   H912    1.108   .     S
C724   H913    1.105   .     S
C724   C813    1.521   .     S
C724   H910    1.111   .     S
C725   H914    1.106   .     S
C725   C814    1.521   .     S
C725   H916    1.110   .     S
C725   H915    1.110   .     S
C726   H918    1.110   .     S
C726   H919    1.110   .     S
C726   H917    1.106   .     S
C726   C815    1.521   .     S
C727   C817    1.521   .     S
C727   H921    1.110   .     S
C727   H920    1.106   .     S
C727   H923    1.110   .     S
C728   H926    1.111   .     S
C728   H924    1.110   .     S
C728   C818    1.523   .     S
C728   H925    1.105   .     S
C729   H928    1.111   .     S
C729   H929    1.105   .     S
C729   H927    1.110   .     S
C729   C819    1.523   .     S
C730   C820    1.521   .     S
C730   H931    1.110   .     S
C730   H932    1.110   .     S
C730   H930    1.106   .     S
C731   H882    1.083   .     S
C731   C771    1.391   .     A
C731   C1128   1.404   1_455 S
C732   H935    1.110   .     S
C732   H934    1.106   .     S
C732   H936    1.110   .     S
C732   C821    1.521   .     S
C733   H939    1.111   .     S
C733   H937    1.110   .     S
C733   C822    1.523   .     S
C733   H938    1.105   .     S
C734   H941    1.111   .     S
C734   H942    1.105   .     S
C734   H940    1.110   .     S
C734   C823    1.523   .     S
C735   C824    1.521   .     S
C735   H946    1.111   .     S
C735   H945    1.105   .     S
C735   H943    1.108   .     S
C736   H947    1.106   .     S
C736   C825    1.521   .     S
C736   H948    1.110   .     S
C736   H949    1.110   .     S
C737   H952    1.105   .     S
C737   H951    1.108   .     S
C737   C826    1.521   .     S
C737   H950    1.111   .     S
C738   H953    1.111   .     S
C738   H956    1.108   .     S
C738   H954    1.105   .     S
C738   C828    1.521   .     S
C739   C829    1.521   .     S
C739   H958    1.110   .     S
C739   H959    1.110   .     S
C739   H957    1.107   .     S
C740   H961    1.110   .     S
C740   C830    1.521   .     S
C740   H962    1.110   .     S
C740   H960    1.107   .     S
C741   H963    1.106   .     S
C741   C831    1.521   .     S
C741   H965    1.110   .     S
C741   H964    1.110   .     S
C742   C773    1.391   .     A
C742   H883    1.083   .     S
C742   C1129   1.404   .     S
C743   C832    1.521   .     S
C743   H968    1.105   .     S
C743   H967    1.111   .     S
C743   H969    1.108   .     S
C744   H970    1.106   .     S
C744   H972    1.110   .     S
C744   C833    1.521   .     S
C744   H971    1.110   .     S
C745   H973    1.106   .     S
C745   H975    1.110   .     S
C745   C834    1.521   .     S
C745   H974    1.110   .     S
C746   H976    1.110   .     S
C746   H851    1.105   .     S
C746   C835    1.523   .     S
C746   H852    1.111   .     S
C747   C836    1.523   .     S
C747   H853    1.110   .     S
C747   H854    1.111   .     S
C747   H855    1.105   .     S
C748   H857    1.110   .     S
C748   H856    1.106   .     S
C748   C837    1.521   .     S
C748   H858    1.110   .     S
C749   H859    1.106   .     S
C749   H862    1.110   .     S
C749   H860    1.110   .     S
C749   C839    1.521   .     S
C750   C840    1.523   .     S
C750   H863    1.110   .     S
C750   H865    1.111   .     S
C750   H864    1.105   .     S
C751   C841    1.523   .     S
C751   H868    1.105   .     S
C751   H866    1.110   .     S
C751   H867    1.111   .     S
C752   H870    1.110   .     S
C752   H869    1.106   .     S
C752   C842    1.521   .     S
C752   H871    1.110   .     S
C753   C774    1.392   .     A
C753   C782    1.405   .     A
C753   H884    1.083   .     S
C754   H874    1.111   .     S
C754   C843    1.521   .     S
C754   H875    1.105   .     S
C754   H873    1.108   .     S
C755   H878    1.105   .     S
C755   H876    1.111   .     S
C755   H877    1.108   .     S
C755   C844    1.521   .     S
C756   H880    1.105   .     S
C756   H881    1.108   .     S
C756   H879    1.111   .     S
C756   C845    1.521   .     S
C757   H885    1.083   .     S
C757   C775    1.392   .     A
C757   C88     1.405   1_565 A
C758   H886    1.083   .     S
C758   C17     1.402   1_565 S
C759   C761    1.392   .     A
C759   H887    1.083   .     S
C759   C18     1.402   1_565 S
C760   H888    1.083   .     S
C760   C772    1.392   .     A
C761   H889    1.083   .     S
C761   C81     1.405   1_565 S
C762   H890    1.083   .     S
C762   C783    1.392   .     A
C763   C794    1.391   .     A
C763   H891    1.083   .     S
C764   H892    1.083   .     S
C764   C805    1.391   .     A
C765   C816    1.392   .     A
C765   H893    1.083   .     S
C765   C1063   1.402   .     S
C766   H894    1.083   .     S
C766   C1064   1.402   .     A
C766   C827    1.392   .     A
C767   H895    1.083   .     S
C767   C838    1.392   .     A
C768   H896    1.083   .     S
C769   H897    1.083   .     S
C769   C23     1.402   1_565 S
C770   H898    1.083   .     S
C771   H899    1.083   .     S
C771   C1065   1.402   1_455 S
C772   H900    1.083   .     S
C772   C778    1.405   .     S
C773   H901    1.083   .     S
C773   C1066   1.402   .     S
C774   H902    1.083   .     S
C775   H903    1.083   .     S
C776   C777    1.474   1_554 S
C776   C794    1.404   .     S
C777   C805    1.404   .     A
C777   C776    1.474   1_556 S
C778   C1164   1.405   1_455 A
C778   C779    1.475   1_554 S
C779   C1175   1.405   1_455 A
C779   C778    1.475   1_556 S
C779   C783    1.405   .     S
C780   C838    1.405   .     A
C780   C1079   1.404   .     S
C780   C1129   1.474   .     S
C781   C1090   1.404   1_455 S
C781   C1128   1.474   1_455 S
C782   C784    1.475   .     S
C783   H911    1.083   .     S
C785   O1028   1.281   .     S
C786   O1025   1.281   .     A
C787   O1026   1.280   .     A
C787   O1327   1.279   1_455 S
C788   O1027   1.279   .     A
C788   O1328   1.279   .     S
C789   O981    1.281   .     S
C789   O985    1.281   .     S
C790   O986    1.281   .     A
C790   O982    1.281   .     A
C791   O983    1.279   .     S
C791   O987    1.279   .     S
C792   O989    1.279   .     A
C792   O984    1.279   .     A
C793   O990    1.277   .     A
C793   C848    1.454   .     S
C793   O1018   1.274   .     A
C794   H922    1.083   .     S
C795   O991    1.277   .     A
C795   O1019   1.274   .     A
C796   O992    1.278   .     A
C796   O1016   1.275   .     A
C797   O993    1.278   .     A
C797   O1017   1.275   .     A
C798   O1023   1.278   .     A
C798   O994    1.275   .     A
C799   O995    1.275   .     A
C799   O1024   1.278   .     A
C800   C846    1.454   .     S
C800   O996    1.275   .     A
C800   O1020   1.276   .     A
C801   C847    1.454   .     S
C801   O997    1.275   .     A
C801   O1022   1.276   .     A
C802   O998    1.275   .     A
C802   O1009   1.278   .     A
C803   O1011   1.278   .     A
C803   O1000   1.275   .     A
C804   O1007   1.277   .     A
C804   O1001   1.274   .     A
C805   H933    1.083   .     S
C806   O1008   1.277   .     A
C806   O1002   1.274   .     A
C807   O1003   1.276   .     A
C807   O1014   1.275   .     A
C808   O1015   1.275   .     A
C808   O1004   1.276   .     A
C809   O1005   1.278   .     A
C809   O1012   1.275   .     A
C810   O1013   1.275   .     A
C810   O1006   1.278   .     A
C811   C828    1.410   .     A
C812   C826    1.410   .     A
C813   C825    1.410   .     A
C814   C824    1.410   .     A
C815   C823    1.410   .     A
C816   C1126   1.405   .     A
C816   H944    1.083   .     S
C817   C822    1.410   .     A
C818   C821    1.410   .     A
C819   C820    1.410   .     A
C825   C848    1.414   .     A
C826   C847    1.413   .     A
C827   H955    1.083   .     S
C827   C1127   1.405   .     A
C828   C846    1.413   .     A
C829   C847    1.414   .     A
C829   C845    1.410   .     A
C830   C846    1.414   .     A
C830   C844    1.410   .     A
C831   C843    1.410   .     A
C832   C842    1.410   .     A
C832   C848    1.414   .     A
C833   C841    1.410   .     A
C834   C840    1.410   .     A
C835   C839    1.410   .     A
C836   C837    1.410   .     A
C838   H966    1.083   .     S
O977   Zn1032  1.945   .     S
O977   Zn1029  1.940   .     S
O977   Zn1040  1.944   .     S
O978   Zn1031  1.942   .     S
O978   C90     1.281   1_565 S
O979   Zn1034  1.941   .     S
O979   C1135   1.279   .     S
O980   Zn1033  1.941   .     S
O980   C1136   1.279   1_455 S
O981   Zn1043  1.942   .     S
O982   Zn1042  1.942   .     S
O983   Zn1037  1.943   .     S
O984   Zn1029  1.943   .     S
O985   Zn1039  1.942   .     S
O986   Zn1038  1.942   .     S
O987   Zn1041  1.941   .     S
O988   Zn1035  1.944   .     S
O988   Zn1037  1.940   .     S
O988   Zn1041  1.944   .     S
O989   Zn1040  1.941   .     S
O990   Zn1032  1.931   .     S
O991   Zn1031  1.931   .     S
O992   Zn1034  1.932   .     S
O993   Zn1033  1.932   .     S
O994   Zn1036  1.932   .     S
O995   Zn1035  1.932   .     S
O996   Zn1030  1.933   .     S
O997   Zn1044  1.933   .     S
O998   Zn1031  1.932   .     S
O999   Zn1038  1.945   .     S
O999   Zn1042  1.944   .     S
O999   Zn1030  1.940   .     S
O999   Zn1382  1.944   1_455 S
O1000  Zn1032  1.932   .     S
O1001  Zn1044  1.934   .     S
O1002  Zn1030  1.934   .     S
O1003  Zn1035  1.931   .     S
O1004  Zn1036  1.931   .     S
O1005  Zn1033  1.933   .     S
O1006  Zn1034  1.933   .     S
O1007  Zn1387  1.931   .     S
O1008  Zn1038  1.931   .     S
O1009  Zn345   1.932   1_565 S
O1010  Zn1033  1.944   .     S
O1010  Zn1043  1.944   .     S
O1010  Zn1039  1.945   .     S
O1010  Zn1392  1.940   1_455 S
O1011  Zn1040  1.932   .     S
O1012  Zn1043  1.932   .     S
O1013  Zn1390  1.932   .     S
O1014  Zn1037  1.933   .     S
O1015  Zn333   1.933   1_565 S
O1016  Zn1386  1.932   .     S
O1017  Zn1039  1.932   .     S
O1018  Zn1029  1.934   .     S
O1019  Zn341   1.934   1_565 S
O1020  Zn1042  1.931   .     S
O1021  C89     1.281   1_565 A
O1021  Zn1036  1.942   .     S
O1022  Zn1391  1.931   .     S
O1023  Zn344   1.933   1_565 S
O1024  Zn1041  1.933   .     S
O1025  Zn1035  1.942   .     S
O1026  Zn1030  1.943   .     S
O1027  Zn1044  1.943   .     S
O1028  Zn1032  1.942   .     S
Zn1031 O292    1.945   1_565 S
Zn1034 O1347   1.944   .     S
Zn1036 O281    1.944   1_565 S
Zn1038 O1364   1.932   1_455 S
Zn1039 O1355   1.931   1_455 S
Zn1042 O1361   1.932   1_455 S
Zn1043 O1370   1.931   1_455 S
Zn1044 O1358   1.940   .     S
C1045  C1106   1.392   .     A
C1045  H1197   1.083   .     S
C1045  C428    1.405   1_565 A
C1046  C1129   1.405   .     A
C1046  C1116   1.392   .     A
C1046  H1198   1.083   .     S
C1047  C1172   1.414   .     A
C1047  C1143   1.454   .     S
C1047  C1179   1.414   .     A
C1048  C1171   1.414   .     A
C1048  C1182   1.415   .     A
C1048  C1144   1.454   .     S
C1049  C1170   1.414   .     A
C1049  C1145   1.454   .     S
C1049  C1181   1.415   .     A
C1050  C1169   1.415   .     A
C1050  C1146   1.455   .     S
C1050  C1184   1.414   .     A
C1051  C1147   1.455   .     S
C1051  C1168   1.415   .     A
C1051  C1183   1.414   .     A
C1052  C1167   1.414   .     A
C1052  C1187   1.415   .     A
C1052  C1157   1.455   .     S
C1053  C1158   1.455   .     S
C1053  C1166   1.414   .     A
C1053  C1185   1.415   .     A
C1054  C1150   1.454   .     S
C1054  C1165   1.415   .     A
C1054  C1189   1.414   .     A
C1055  C1163   1.415   .     A
C1055  C1188   1.414   .     A
C1055  C1151   1.454   .     S
C1056  C1152   1.454   .     S
C1056  C1191   1.414   .     A
C1056  C1162   1.414   .     A
C1057  H1209   1.083   .     S
C1057  C1117   1.392   .     A
C1057  C434    1.405   1_565 S
C1058  C1161   1.414   .     A
C1058  C1154   1.454   .     S
C1058  C1190   1.414   .     A
C1059  C1193   1.413   .     A
C1059  C1160   1.414   .     A
C1059  C1155   1.454   .     S
C1060  C1159   1.414   .     A
C1060  C1156   1.454   .     S
C1060  C1192   1.413   .     A
C1061  C1111   1.402   .     A
C1061  C1140   1.464   .     S
C1062  C1112   1.402   .     A
C1062  C1139   1.464   .     S
C1063  C1138   1.464   .     S
C1063  C1108   1.402   .     A
C1064  C1137   1.464   .     S
C1064  C1110   1.402   .     S
C1065  C1136   1.464   .     S
C1065  C1115   1.402   .     A
C1065  C771    1.402   1_655 S
C1066  C1135   1.464   .     S
C1066  C1116   1.402   .     A
C1067  C1134   1.464   .     S
C1067  C1122   1.402   .     A
C1068  H1220   1.083   .     S
C1068  C1118   1.392   .     A
C1068  C1132   1.405   .     S
C1069  C437    1.464   1_565 S
C1069  C1123   1.402   .     A
C1069  C422    1.402   1_565 S
C1070  H1254   1.110   .     S
C1070  C1159   1.521   .     S
C1070  H1252   1.107   .     S
C1070  H1253   1.110   .     S
C1071  H1257   1.110   .     S
C1071  H1256   1.110   .     S
C1071  H1255   1.107   .     S
C1071  C1160   1.521   .     S
C1072  H1260   1.108   .     S
C1072  H1261   1.105   .     S
C1072  C1161   1.521   .     S
C1072  H1258   1.111   .     S
C1073  H1262   1.106   .     S
C1073  C1162   1.521   .     S
C1073  H1264   1.110   .     S
C1073  H1263   1.110   .     S
C1074  H1266   1.110   .     S
C1074  H1267   1.110   .     S
C1074  H1265   1.106   .     S
C1074  C1163   1.521   .     S
C1075  C1165   1.521   .     S
C1075  H1269   1.110   .     S
C1075  H1268   1.106   .     S
C1075  H1271   1.110   .     S
C1076  H1274   1.111   .     S
C1076  H1272   1.110   .     S
C1076  C1166   1.523   .     S
C1076  H1273   1.105   .     S
C1077  H1276   1.111   .     S
C1077  H1277   1.105   .     S
C1077  H1275   1.110   .     S
C1077  C1167   1.523   .     S
C1078  C1168   1.521   .     S
C1078  H1279   1.110   .     S
C1078  H1280   1.110   .     S
C1078  H1278   1.106   .     S
C1079  H1230   1.083   .     S
C1079  C1119   1.391   .     A
C1080  H1283   1.110   .     S
C1080  H1282   1.106   .     S
C1080  H1284   1.110   .     S
C1080  C1169   1.521   .     S
C1081  H1287   1.111   .     S
C1081  H1285   1.110   .     S
C1081  C1170   1.523   .     S
C1081  H1286   1.105   .     S
C1082  H1289   1.111   .     S
C1082  H1290   1.105   .     S
C1082  H1288   1.110   .     S
C1082  C1171   1.523   .     S
C1083  C1172   1.521   .     S
C1083  H1294   1.111   .     S
C1083  H1293   1.105   .     S
C1083  H1291   1.108   .     S
C1084  H1295   1.106   .     S
C1084  C1173   1.521   .     S
C1084  H1296   1.110   .     S
C1084  H1297   1.110   .     S
C1085  H1300   1.105   .     S
C1085  H1299   1.108   .     S
C1085  C1174   1.521   .     S
C1085  H1298   1.111   .     S
C1086  H1301   1.111   .     S
C1086  H1304   1.108   .     S
C1086  H1302   1.105   .     S
C1086  C1176   1.521   .     S
C1087  C1177   1.521   .     S
C1087  H1306   1.110   .     S
C1087  H1307   1.110   .     S
C1087  H1305   1.107   .     S
C1088  H1309   1.110   .     S
C1088  C1178   1.521   .     S
C1088  H1310   1.110   .     S
C1088  H1308   1.107   .     S
C1089  H1311   1.106   .     S
C1089  C1179   1.521   .     S
C1089  H1313   1.110   .     S
C1089  H1312   1.110   .     S
C1090  C1121   1.391   .     A
C1090  H1231   1.083   .     S
C1090  C781    1.404   1_655 S
C1091  C1180   1.521   .     S
C1091  H1316   1.105   .     S
C1091  H1315   1.111   .     S
C1091  H1317   1.108   .     S
C1092  H1318   1.106   .     S
C1092  H1320   1.110   .     S
C1092  C1181   1.521   .     S
C1092  H1319   1.110   .     S
C1093  H1321   1.106   .     S
C1093  H1323   1.110   .     S
C1093  C1182   1.521   .     S
C1093  H1322   1.110   .     S
C1094  H1324   1.110   .     S
C1094  H1199   1.105   .     S
C1094  C1183   1.523   .     S
C1094  H1200   1.111   .     S
C1095  C1184   1.523   .     S
C1095  H1201   1.110   .     S
C1095  H1202   1.111   .     S
C1095  H1203   1.105   .     S
C1096  H1205   1.110   .     S
C1096  H1204   1.106   .     S
C1096  C1185   1.521   .     S
C1096  H1206   1.110   .     S
C1097  H1207   1.106   .     S
C1097  H1210   1.110   .     S
C1097  H1208   1.110   .     S
C1097  C1187   1.521   .     S
C1098  C1188   1.523   .     S
C1098  H1211   1.110   .     S
C1098  H1213   1.111   .     S
C1098  H1212   1.105   .     S
C1099  C1189   1.523   .     S
C1099  H1216   1.105   .     S
C1099  H1214   1.110   .     S
C1099  H1215   1.111   .     S
C1100  H1218   1.110   .     S
C1100  H1217   1.106   .     S
C1100  C1190   1.521   .     S
C1100  H1219   1.110   .     S
C1101  C1122   1.392   .     A
C1101  C1130   1.405   .     A
C1101  H1232   1.083   .     S
C1102  H1222   1.111   .     S
C1102  C1191   1.521   .     S
C1102  H1223   1.105   .     S
C1102  H1221   1.108   .     S
C1103  H1226   1.105   .     S
C1103  H1224   1.111   .     S
C1103  H1225   1.108   .     S
C1103  C1192   1.521   .     S
C1104  H1228   1.105   .     S
C1104  H1229   1.108   .     S
C1104  H1227   1.111   .     S
C1104  C1193   1.521   .     S
C1105  H1233   1.083   .     S
C1105  C1123   1.392   .     A
C1105  C436    1.405   1_565 A
C1106  H1234   1.083   .     S
C1106  C365    1.402   1_565 S
C1107  C1109   1.392   .     A
C1107  H1235   1.083   .     S
C1107  C366    1.402   1_565 S
C1108  H1236   1.083   .     S
C1108  C1120   1.392   .     A
C1109  H1237   1.083   .     S
C1109  C429    1.405   1_565 S
C1110  H1238   1.083   .     S
C1110  C1131   1.392   .     A
C1111  C1142   1.391   .     A
C1111  H1239   1.083   .     S
C1112  H1240   1.083   .     S
C1112  C1153   1.391   .     A
C1113  C1164   1.392   .     A
C1113  H1241   1.083   .     S
C1113  C715    1.402   1_655 S
C1114  H1242   1.083   .     S
C1114  C716    1.402   1_655 A
C1114  C1175   1.392   .     A
C1115  H1243   1.083   .     S
C1115  C1186   1.392   .     A
C1116  H1244   1.083   .     S
C1117  H1245   1.083   .     S
C1117  C371    1.402   1_565 S
C1118  H1246   1.083   .     S
C1119  H1247   1.083   .     S
C1120  H1248   1.083   .     S
C1120  C1126   1.405   .     S
C1121  H1249   1.083   .     S
C1121  C718    1.402   1_655 S
C1122  H1250   1.083   .     S
C1123  H1251   1.083   .     S
C1124  C1125   1.474   1_554 S
C1124  C1142   1.404   .     S
C1125  C1153   1.404   .     A
C1125  C1124   1.474   1_556 S
C1126  C1127   1.475   1_554 S
C1127  C1126   1.475   1_556 S
C1127  C1131   1.405   .     S
C1128  C1186   1.405   .     A
C1128  C731    1.404   1_655 S
C1128  C781    1.474   1_655 S
C1130  C1132   1.475   .     S
C1131  H1259   1.083   .     S
C1133  O1376   1.281   .     S
C1134  O1373   1.281   .     A
C1135  O1374   1.280   .     A
C1136  O1375   1.279   .     A
C1136  O980    1.279   1_655 S
C1137  O1329   1.281   .     S
C1137  O1333   1.281   .     S
C1138  O1334   1.281   .     A
C1138  O1330   1.281   .     A
C1139  O1331   1.279   .     S
C1139  O1335   1.279   .     S
C1140  O1337   1.279   .     A
C1140  O1332   1.279   .     A
C1141  O1338   1.277   .     A
C1141  C1196   1.454   .     S
C1141  O1366   1.274   .     A
C1142  H1270   1.083   .     S
C1143  O1339   1.277   .     A
C1143  O1367   1.274   .     A
C1144  O1340   1.278   .     A
C1144  O1364   1.275   .     A
C1145  O1341   1.278   .     A
C1145  O1365   1.275   .     A
C1146  O1371   1.278   .     A
C1146  O1342   1.275   .     A
C1147  O1343   1.275   .     A
C1147  O1372   1.278   .     A
C1148  C1194   1.454   .     S
C1148  O1344   1.275   .     A
C1148  O1368   1.276   .     A
C1149  C1195   1.454   .     S
C1149  O1345   1.275   .     A
C1149  O1370   1.276   .     A
C1150  O1346   1.275   .     A
C1150  O1357   1.278   .     A
C1151  O1359   1.278   .     A
C1151  O1348   1.275   .     A
C1152  O1355   1.277   .     A
C1152  O1349   1.274   .     A
C1153  H1281   1.083   .     S
C1154  O1356   1.277   .     A
C1154  O1350   1.274   .     A
C1155  O1351   1.276   .     A
C1155  O1362   1.275   .     A
C1156  O1363   1.275   .     A
C1156  O1352   1.276   .     A
C1157  O1353   1.278   .     A
C1157  O1360   1.275   .     A
C1158  O1361   1.275   .     A
C1158  O1354   1.278   .     A
C1159  C1176   1.410   .     A
C1160  C1174   1.410   .     A
C1161  C1173   1.410   .     A
C1162  C1172   1.410   .     A
C1163  C1171   1.410   .     A
C1164  C778    1.405   1_655 A
C1164  H1292   1.083   .     S
C1165  C1170   1.410   .     A
C1166  C1169   1.410   .     A
C1167  C1168   1.410   .     A
C1173  C1196   1.414   .     A
C1174  C1195   1.413   .     A
C1175  H1303   1.083   .     S
C1175  C779    1.405   1_655 A
C1176  C1194   1.413   .     A
C1177  C1195   1.414   .     A
C1177  C1193   1.410   .     A
C1178  C1194   1.414   .     A
C1178  C1192   1.410   .     A
C1179  C1191   1.410   .     A
C1180  C1190   1.410   .     A
C1180  C1196   1.414   .     A
C1181  C1189   1.410   .     A
C1182  C1188   1.410   .     A
C1183  C1187   1.410   .     A
C1184  C1185   1.410   .     A
C1186  H1314   1.083   .     S
O1325  Zn1380  1.945   .     S
O1325  Zn1377  1.940   .     S
O1325  Zn1388  1.944   .     S
O1326  Zn1379  1.942   .     S
O1326  C438    1.281   1_565 S
O1327  Zn1382  1.941   .     S
O1327  C787    1.279   1_655 S
O1328  Zn1381  1.941   .     S
O1329  Zn1391  1.942   .     S
O1330  Zn1390  1.942   .     S
O1331  Zn1385  1.943   .     S
O1332  Zn1377  1.943   .     S
O1333  Zn1387  1.942   .     S
O1334  Zn1386  1.942   .     S
O1335  Zn1389  1.941   .     S
O1336  Zn1383  1.944   .     S
O1336  Zn1385  1.940   .     S
O1336  Zn1389  1.944   .     S
O1337  Zn1388  1.941   .     S
O1338  Zn1380  1.931   .     S
O1339  Zn1379  1.931   .     S
O1340  Zn1382  1.932   .     S
O1341  Zn1381  1.932   .     S
O1342  Zn1384  1.932   .     S
O1343  Zn1383  1.932   .     S
O1344  Zn1378  1.933   .     S
O1345  Zn1392  1.933   .     S
O1346  Zn1379  1.932   .     S
O1347  Zn1386  1.945   .     S
O1347  Zn1390  1.944   .     S
O1347  Zn1378  1.940   .     S
O1348  Zn1380  1.932   .     S
O1349  Zn1392  1.934   .     S
O1350  Zn1378  1.934   .     S
O1351  Zn1383  1.931   .     S
O1352  Zn1384  1.931   .     S
O1353  Zn1381  1.933   .     S
O1354  Zn1382  1.933   .     S
O1355  Zn1039  1.931   1_655 S
O1356  Zn1386  1.931   .     S
O1357  Zn693   1.932   1_565 S
O1358  Zn1381  1.944   .     S
O1358  Zn1391  1.944   .     S
O1358  Zn1387  1.945   .     S
O1359  Zn1388  1.932   .     S
O1360  Zn1391  1.932   .     S
O1361  Zn1042  1.932   1_655 S
O1362  Zn1385  1.933   .     S
O1363  Zn681   1.933   1_565 S
O1364  Zn1038  1.932   1_655 S
O1365  Zn1387  1.932   .     S
O1366  Zn1377  1.934   .     S
O1367  Zn689   1.934   1_565 S
O1368  Zn1390  1.931   .     S
O1369  C437    1.281   1_565 A
O1369  Zn1384  1.942   .     S
O1370  Zn1043  1.931   1_655 S
O1371  Zn692   1.933   1_565 S
O1372  Zn1389  1.933   .     S
O1373  Zn1383  1.942   .     S
O1374  Zn1378  1.943   .     S
O1375  Zn1392  1.943   .     S
O1376  Zn1380  1.942   .     S
Zn1379 O640    1.945   1_565 S
Zn1382 O999    1.944   1_655 S
Zn1384 O629    1.944   1_565 S
Zn1392 O1010   1.940   1_655 S
