data_str_m1_o1_o17_pcu_sym.69
_audit_creation_date              2020-01-03
_audit_creation_method            'Materials Studio'
_symmetry_space_group_name_H-M    'P1'
_symmetry_Int_Tables_number       1
_symmetry_cell_setting            triclinic
loop_
_symmetry_equiv_pos_as_xyz
  x,y,z
_cell_length_a                    36.6489
_cell_length_b                    36.6498
_cell_length_c                    34.4601
_cell_angle_alpha                 90.0023
_cell_angle_beta                  90.0015
_cell_angle_gamma                 90.0336
loop_
_atom_site_label
_atom_site_type_symbol
_atom_site_fract_x
_atom_site_fract_y
_atom_site_fract_z
_atom_site_U_iso_or_equiv
_atom_site_adp_type
_atom_site_occupancy
C1     C     0.03290   0.25227   0.41865   0.00000  Uiso   1.00
C2     C     0.28218   0.00756   0.08138   0.00000  Uiso   1.00
C3     C     0.25544   0.03318   0.54075   0.00000  Uiso   1.00
C4     C     0.03355   0.25142   0.45924   0.00000  Uiso   1.00
C5     C     0.46684   0.24417   0.54075   0.00000  Uiso   1.00
C6     C     0.25367   0.03339   0.45925   0.00000  Uiso   1.00
C7     C     0.24677   0.46664   0.54075   0.00000  Uiso   1.00
C8     C     0.28261   0.00816   0.95924   0.00000  Uiso   1.00
C9     C     0.21732   0.49261   0.04076   0.00000  Uiso   1.00
C10    C     0.48987   0.21779   0.95922   0.00000  Uiso   1.00
C11    C     0.00693   0.28275   0.04074   0.00000  Uiso   1.00
C12    C     0.21740   0.49224   0.95925   0.00000  Uiso   1.00
C13    C     0.00625   0.28232   0.91862   0.00000  Uiso   1.00
C14    C     0.28253   0.00856   0.04077   0.00000  Uiso   1.00
C15    C     0.00564   0.28303   0.95923   0.00000  Uiso   1.00
C16    C     0.49066   0.21763   0.04077   0.00000  Uiso   1.00
C17    C     0.09814   0.34811   0.24997   0.00000  Uiso   1.00
C18    C     0.40187   0.15188   0.75001   0.00000  Uiso   1.00
C19    C     0.15186   0.09812   0.25002   0.00000  Uiso   1.00
C20    C     0.34813   0.40187   0.74999   0.00000  Uiso   1.00
C21    C     0.40186   0.15188   0.24997   0.00000  Uiso   1.00
C22    C     0.09813   0.34813   0.75001   0.00000  Uiso   1.00
C23    C     0.34813   0.40187   0.25000   0.00000  Uiso   1.00
C24    C     0.49196   0.21790   0.08138   0.00000  Uiso   1.00
C25    C     0.15187   0.09813   0.75000   0.00000  Uiso   1.00
C26    C     0.09813   0.15187   0.75000   0.00000  Uiso   1.00
C27    C     0.40187   0.34813   0.25000   0.00000  Uiso   1.00
C28    C     0.15188   0.40187   0.75001   0.00000  Uiso   1.00
C29    C     0.34811   0.09814   0.24997   0.00000  Uiso   1.00
C30    C     0.40187   0.34813   0.75000   0.00000  Uiso   1.00
C31    C     0.09812   0.15186   0.25002   0.00000  Uiso   1.00
C32    C     0.34812   0.09813   0.75001   0.00000  Uiso   1.00
C33    C     0.15189   0.40186   0.24997   0.00000  Uiso   1.00
C34    C     0.00022   0.24755   0.47965   0.00000  Uiso   1.00
C35    C     0.28224   0.00730   0.91862   0.00000  Uiso   1.00
C36    C     0.00017   0.24801   0.52033   0.00000  Uiso   1.00
C37    C     0.24983   0.00006   0.47966   0.00000  Uiso   1.00
C38    C     0.25067   0.49996   0.52034   0.00000  Uiso   1.00
C39    C     0.24998   0.00035   0.97966   0.00000  Uiso   1.00
C40    C     0.24996   0.00046   0.02035   0.00000  Uiso   1.00
C41    C     0.49790   0.25038   0.97965   0.00000  Uiso   1.00
C42    C     0.49837   0.25028   0.02034   0.00000  Uiso   1.00
C43    C     0.39523   0.19421   0.44726   0.00000  Uiso   1.00
C44    C     0.10763   0.29949   0.55139   0.00000  Uiso   1.00
C45    C     0.19744   0.39327   0.44849   0.00000  Uiso   1.00
C46    C     0.21774   0.49324   0.08137   0.00000  Uiso   1.00
C47    C     0.30341   0.10660   0.55138   0.00000  Uiso   1.00
C48    C     0.11635   0.22314   0.44805   0.00000  Uiso   1.00
C49    C     0.39200   0.19856   0.55513   0.00000  Uiso   1.00
C50    C     0.22666   0.11673   0.44852   0.00000  Uiso   1.00
C51    C     0.27384   0.38337   0.55166   0.00000  Uiso   1.00
C52    C     0.35227   0.06166   0.94525   0.00000  Uiso   1.00
C53    C     0.14749   0.43939   0.05480   0.00000  Uiso   1.00
C54    C     0.43265   0.15221   0.94731   0.00000  Uiso   1.00
C55    C     0.06241   0.35080   0.05134   0.00000  Uiso   1.00
C56    C     0.15134   0.43554   0.94737   0.00000  Uiso   1.00
C57    C     0.49117   0.21805   0.91861   0.00000  Uiso   1.00
C58    C     0.34841   0.06551   0.05267   0.00000  Uiso   1.00
C59    C     0.48773   0.36870   0.94805   0.00000  Uiso   1.00
C60    C     0.43675   0.14827   0.05489   0.00000  Uiso   1.00
C61    C     0.00680   0.28223   0.08135   0.00000  Uiso   1.00
C62    C     0.00005   0.24908   0.39841   0.00000  Uiso   1.00
C63    C     0.00002   0.24949   0.60158   0.00000  Uiso   1.00
C64    C     0.24974   0.00004   0.39841   0.00000  Uiso   1.00
C65    C     0.46725   0.24547   0.58134   0.00000  Uiso   1.00
C66    C     0.25049   0.49999   0.60159   0.00000  Uiso   1.00
C67    C     0.25002   0.00012   0.89840   0.00000  Uiso   1.00
C68    C     0.24999   0.00025   0.10160   0.00000  Uiso   1.00
C69    C     0.49921   0.25008   0.89840   0.00000  Uiso   1.00
C70    C     0.49965   0.25002   0.10159   0.00000  Uiso   1.00
C71    C     0.43377   0.23842   0.47953   0.00000  Uiso   1.00
C72    C     0.06667   0.25676   0.52043   0.00000  Uiso   1.00
C73    C     0.24066   0.43363   0.47956   0.00000  Uiso   1.00
C74    C     0.25996   0.06637   0.52044   0.00000  Uiso   1.00
C75    C     0.06686   0.25507   0.47952   0.00000  Uiso   1.00
C76    C     0.25376   0.03280   0.41864   0.00000  Uiso   1.00
C77    C     0.43369   0.23925   0.52047   0.00000  Uiso   1.00
C78    C     0.25803   0.06661   0.47954   0.00000  Uiso   1.00
C79    C     0.24250   0.43340   0.52047   0.00000  Uiso   1.00
C80    C     0.31506   0.01656   0.97953   0.00000  Uiso   1.00
C81    C     0.18484   0.48436   0.02048   0.00000  Uiso   1.00
C82    C     0.48105   0.18544   0.97953   0.00000  Uiso   1.00
C83    C     0.01501   0.31527   0.02042   0.00000  Uiso   1.00
C84    C     0.18498   0.48368   0.97953   0.00000  Uiso   1.00
C85    C     0.31492   0.01727   0.02048   0.00000  Uiso   1.00
C86    C     0.01334   0.31565   0.97951   0.00000  Uiso   1.00
C87    C     0.24651   0.46723   0.58136   0.00000  Uiso   1.00
C88    C     0.48192   0.18527   0.02048   0.00000  Uiso   1.00
C89    C     0.24998   0.00001   0.35597   0.00000  Uiso   1.00
C90    C     0.25006   0.00000   0.64403   0.00000  Uiso   1.00
C91    C     0.00000   0.24992   0.35597   0.00000  Uiso   1.00
C92    C    -0.00000   0.24995   0.64403   0.00000  Uiso   1.00
C93    C     0.49993   0.25000   0.85596   0.00000  Uiso   1.00
C94    C     0.49997   0.25000   0.14403   0.00000  Uiso   1.00
C95    C     0.25000   0.00004   0.85596   0.00000  Uiso   1.00
C96    C     0.25000   0.00004   0.14404   0.00000  Uiso   1.00
C97    C     0.17993   0.07006   0.25000   0.00000  Uiso   1.00
C98    C     0.46733   0.24472   0.41864   0.00000  Uiso   1.00
C99    C     0.32006   0.42994   0.75000   0.00000  Uiso   1.00
C100   C     0.42994   0.17994   0.24999   0.00000  Uiso   1.00
C101   C     0.07006   0.32006   0.75000   0.00000  Uiso   1.00
C102   C     0.32006   0.42994   0.25000   0.00000  Uiso   1.00
C103   C     0.17994   0.07006   0.75000   0.00000  Uiso   1.00
C104   C     0.07006   0.32006   0.24999   0.00000  Uiso   1.00
C105   C     0.42994   0.17994   0.75000   0.00000  Uiso   1.00
C106   C     0.17994   0.42994   0.75000   0.00000  Uiso   1.00
C107   C     0.32006   0.07006   0.24999   0.00000  Uiso   1.00
C108   C     0.42994   0.32006   0.75000   0.00000  Uiso   1.00
C109   C     0.03285   0.25278   0.58134   0.00000  Uiso   1.00
C110   C     0.07006   0.17993   0.25000   0.00000  Uiso   1.00
C111   C     0.32006   0.07006   0.75000   0.00000  Uiso   1.00
C112   C     0.17994   0.42994   0.24999   0.00000  Uiso   1.00
C113   C     0.07006   0.17994   0.75000   0.00000  Uiso   1.00
C114   C     0.42994   0.32006   0.25000   0.00000  Uiso   1.00
C115   C     0.12230   0.40444   0.22435   0.00000  Uiso   1.00
C116   C     0.37759   0.09567   0.77580   0.00000  Uiso   1.00
C117   C     0.09526   0.12199   0.22480   0.00000  Uiso   1.00
C118   C     0.40475   0.37801   0.77521   0.00000  Uiso   1.00
C119   C     0.37766   0.09560   0.22430   0.00000  Uiso   1.00
C120   C     0.24547   0.46732   0.41865   0.00000  Uiso   1.00
C121   C     0.12219   0.40455   0.77549   0.00000  Uiso   1.00
C122   C     0.40482   0.37809   0.22491   0.00000  Uiso   1.00
C123   C     0.09518   0.12191   0.77509   0.00000  Uiso   1.00
C124   C     0.12191   0.09518   0.77509   0.00000  Uiso   1.00
C125   C     0.37809   0.40482   0.22491   0.00000  Uiso   1.00
C126   C     0.09545   0.37781   0.77549   0.00000  Uiso   1.00
C127   C     0.40440   0.12234   0.22430   0.00000  Uiso   1.00
C128   C     0.37801   0.40475   0.77520   0.00000  Uiso   1.00
C129   C     0.12199   0.09526   0.22480   0.00000  Uiso   1.00
C130   C     0.40433   0.12241   0.77580   0.00000  Uiso   1.00
C131   C     0.25495   0.03269   0.58136   0.00000  Uiso   1.00
C132   C     0.09556   0.37770   0.22435   0.00000  Uiso   1.00
C133   C     0.37239   0.15435   0.72422   0.00000  Uiso   1.00
C134   C     0.12774   0.34552   0.27559   0.00000  Uiso   1.00
C135   C     0.34526   0.37199   0.72478   0.00000  Uiso   1.00
C136   C     0.15472   0.12798   0.27526   0.00000  Uiso   1.00
C137   C     0.12782   0.34544   0.72453   0.00000  Uiso   1.00
C138   C     0.37230   0.15444   0.27564   0.00000  Uiso   1.00
C139   C     0.15482   0.12808   0.72490   0.00000  Uiso   1.00
C140   C     0.34518   0.37191   0.27510   0.00000  Uiso   1.00
C141   C     0.37191   0.34518   0.27510   0.00000  Uiso   1.00
C142   C     0.21779   0.49304   0.91863   0.00000  Uiso   1.00
C143   C     0.12808   0.15482   0.72490   0.00000  Uiso   1.00
C144   C     0.34556   0.12770   0.27563   0.00000  Uiso   1.00
C145   C     0.15456   0.37218   0.72453   0.00000  Uiso   1.00
C146   C     0.12798   0.15472   0.27526   0.00000  Uiso   1.00
C147   C     0.37199   0.34526   0.72479   0.00000  Uiso   1.00
C148   C     0.15448   0.37227   0.27559   0.00000  Uiso   1.00
C149   C     0.34565   0.12761   0.72423   0.00000  Uiso   1.00
C150   C     0.46692   0.24341   0.45924   0.00000  Uiso   1.00
C151   C     0.03341   0.25270   0.54073   0.00000  Uiso   1.00
C152   C     0.24509   0.46683   0.45926   0.00000  Uiso   1.00
H153   H     0.11979   0.42705   0.20429   0.00000  Uiso   1.00
H154   H     0.38091   0.42773   0.20528   0.00000  Uiso   1.00
H155   H     0.12681   0.43078   0.92915   0.00000  Uiso   1.00
H156   H     0.37124   0.01798   0.03048   0.00000  Uiso   1.00
H157   H     0.34998   0.08322   0.02662   0.00000  Uiso   1.00
H158   H     0.37296   0.07036   0.07085   0.00000  Uiso   1.00
H159   H     0.32393   0.07312   0.06986   0.00000  Uiso   1.00
H160   H     0.04050   0.36486   0.96973   0.00000  Uiso   1.00
H161   H     0.47364   0.37882   0.97448   0.00000  Uiso   1.00
H162   H     0.46866   0.35123   0.93121   0.00000  Uiso   1.00
H163   H     0.49542   0.39241   0.92974   0.00000  Uiso   1.00
H164   H     0.48662   0.12908   0.03257   0.00000  Uiso   1.00
H165   H     0.07276   0.38040   0.79543   0.00000  Uiso   1.00
H166   H     0.42305   0.12632   0.03810   0.00000  Uiso   1.00
H167   H     0.42076   0.17391   0.05188   0.00000  Uiso   1.00
H168   H     0.43700   0.14033   0.08596   0.00000  Uiso   1.00
H169   H     0.42699   0.11986   0.20420   0.00000  Uiso   1.00
H170   H     0.38077   0.42760   0.79492   0.00000  Uiso   1.00
H171   H     0.11924   0.07242   0.20506   0.00000  Uiso   1.00
H172   H     0.42685   0.12000   0.79599   0.00000  Uiso   1.00
H173   H     0.07295   0.38021   0.20429   0.00000  Uiso   1.00
H174   H     0.36998   0.17686   0.70403   0.00000  Uiso   1.00
H175   H     0.13026   0.32291   0.29564   0.00000  Uiso   1.00
H176   H     0.32241   0.36924   0.70506   0.00000  Uiso   1.00
H177   H     0.38001   0.07315   0.79600   0.00000  Uiso   1.00
H178   H     0.17755   0.13073   0.29500   0.00000  Uiso   1.00
H179   H     0.13041   0.32274   0.70459   0.00000  Uiso   1.00
H180   H     0.36982   0.17703   0.29573   0.00000  Uiso   1.00
H181   H     0.17773   0.13090   0.70527   0.00000  Uiso   1.00
H182   H     0.32227   0.36909   0.29472   0.00000  Uiso   1.00
H183   H     0.36909   0.32227   0.29472   0.00000  Uiso   1.00
H184   H     0.13090   0.17772   0.70527   0.00000  Uiso   1.00
H185   H     0.32297   0.13019   0.29573   0.00000  Uiso   1.00
H186   H     0.17726   0.36958   0.70459   0.00000  Uiso   1.00
H187   H     0.13073   0.17755   0.29500   0.00000  Uiso   1.00
H188   H     0.07242   0.11924   0.20506   0.00000  Uiso   1.00
H189   H     0.36923   0.32241   0.70506   0.00000  Uiso   1.00
H190   H     0.17709   0.36976   0.29564   0.00000  Uiso   1.00
H191   H     0.32313   0.13002   0.70403   0.00000  Uiso   1.00
H192   H     0.05795   0.25600   0.40248   0.00000  Uiso   1.00
H193   H     0.44206   0.24309   0.59754   0.00000  Uiso   1.00
H194   H     0.25750   0.05784   0.40244   0.00000  Uiso   1.00
H195   H     0.24267   0.44221   0.59755   0.00000  Uiso   1.00
H196   H     0.44210   0.24247   0.40246   0.00000  Uiso   1.00
H197   H     0.05802   0.25549   0.59753   0.00000  Uiso   1.00
H198   H     0.24263   0.44217   0.40246   0.00000  Uiso   1.00
H199   H     0.42759   0.38077   0.79493   0.00000  Uiso   1.00
H200   H     0.25783   0.05785   0.59755   0.00000  Uiso   1.00
H201   H     0.19303   0.48783   0.90241   0.00000  Uiso   1.00
H202   H     0.30695   0.01274   0.09761   0.00000  Uiso   1.00
H203   H     0.01288   0.30674   0.90241   0.00000  Uiso   1.00
H204   H     0.48655   0.19320   0.09761   0.00000  Uiso   1.00
H205   H     0.30695   0.01267   0.90239   0.00000  Uiso   1.00
H206   H     0.19304   0.48780   0.09760   0.00000  Uiso   1.00
H207   H     0.48592   0.19330   0.90238   0.00000  Uiso   1.00
H208   H     0.01248   0.30689   0.09757   0.00000  Uiso   1.00
H209   H     0.37770   0.24394   0.46950   0.00000  Uiso   1.00
H210   H     0.38014   0.07301   0.20420   0.00000  Uiso   1.00
H211   H     0.39173   0.17675   0.47330   0.00000  Uiso   1.00
H212   H     0.41874   0.18401   0.43007   0.00000  Uiso   1.00
H213   H     0.37031   0.19210   0.42907   0.00000  Uiso   1.00
H214   H     0.12220   0.24841   0.53027   0.00000  Uiso   1.00
H215   H     0.11231   0.31594   0.52478   0.00000  Uiso   1.00
H216   H     0.13253   0.30067   0.56971   0.00000  Uiso   1.00
H217   H     0.08467   0.31155   0.56805   0.00000  Uiso   1.00
H218   H     0.24825   0.37797   0.46974   0.00000  Uiso   1.00
H219   H     0.18086   0.38886   0.47506   0.00000  Uiso   1.00
H220   H     0.19595   0.36838   0.43018   0.00000  Uiso   1.00
H221   H     0.11960   0.42724   0.79544   0.00000  Uiso   1.00
H222   H     0.18577   0.41640   0.43176   0.00000  Uiso   1.00
H223   H     0.25258   0.12205   0.53031   0.00000  Uiso   1.00
H224   H     0.31994   0.11093   0.52475   0.00000  Uiso   1.00
H225   H     0.31503   0.08345   0.56811   0.00000  Uiso   1.00
H226   H     0.30504   0.13151   0.56963   0.00000  Uiso   1.00
H227   H     0.11904   0.27598   0.46976   0.00000  Uiso   1.00
H228   H     0.12464   0.20789   0.47447   0.00000  Uiso   1.00
H229   H     0.14085   0.22785   0.42976   0.00000  Uiso   1.00
H230   H     0.09668   0.20639   0.43118   0.00000  Uiso   1.00
H231   H     0.37833   0.25011   0.53250   0.00000  Uiso   1.00
H232   H     0.42773   0.38091   0.20528   0.00000  Uiso   1.00
H233   H     0.36872   0.18721   0.53840   0.00000  Uiso   1.00
H234   H     0.38412   0.19988   0.58619   0.00000  Uiso   1.00
H235   H     0.41577   0.17988   0.55228   0.00000  Uiso   1.00
H236   H     0.27977   0.11842   0.46963   0.00000  Uiso   1.00
H237   H     0.21185   0.12528   0.47513   0.00000  Uiso   1.00
H238   H     0.20937   0.09739   0.43185   0.00000  Uiso   1.00
H239   H     0.23163   0.14116   0.43021   0.00000  Uiso   1.00
H240   H     0.22083   0.38156   0.53031   0.00000  Uiso   1.00
H241   H     0.28879   0.37484   0.52513   0.00000  Uiso   1.00
H242   H     0.26885   0.35895   0.56997   0.00000  Uiso   1.00
H243   H     0.07227   0.11909   0.79472   0.00000  Uiso   1.00
H244   H     0.29103   0.40276   0.56841   0.00000  Uiso   1.00
H245   H     0.37122   0.01164   0.96741   0.00000  Uiso   1.00
H246   H     0.37440   0.07515   0.96195   0.00000  Uiso   1.00
H247   H     0.32675   0.07781   0.94849   0.00000  Uiso   1.00
H248   H     0.36003   0.06146   0.91413   0.00000  Uiso   1.00
H249   H     0.12869   0.48945   0.03259   0.00000  Uiso   1.00
H250   H     0.12527   0.42597   0.03816   0.00000  Uiso   1.00
H251   H     0.13979   0.43965   0.08594   0.00000  Uiso   1.00
H252   H     0.17294   0.42314   0.05151   0.00000  Uiso   1.00
H253   H     0.48004   0.12911   0.96955   0.00000  Uiso   1.00
H254   H     0.11909   0.07227   0.79472   0.00000  Uiso   1.00
H255   H     0.41492   0.15078   0.97336   0.00000  Uiso   1.00
H256   H     0.42767   0.12767   0.92917   0.00000  Uiso   1.00
H257   H     0.42522   0.17671   0.93008   0.00000  Uiso   1.00
H258   H     0.01345   0.37140   0.03025   0.00000  Uiso   1.00
H259   H     0.07929   0.35343   0.02472   0.00000  Uiso   1.00
H260   H     0.07160   0.32657   0.06805   0.00000  Uiso   1.00
H261   H     0.06660   0.37541   0.06960   0.00000  Uiso   1.00
H262   H     0.12866   0.48317   0.96951   0.00000  Uiso   1.00
H263   H     0.14965   0.41787   0.97345   0.00000  Uiso   1.00
H264   H     0.17582   0.42782   0.93025   0.00000  Uiso   1.00
N265   N     0.40084   0.23185   0.45851   0.00000  Uiso   1.00
N266   N     0.15221   0.47660   0.04153   0.00000  Uiso   1.00
N267   N     0.47070   0.15348   0.95853   0.00000  Uiso   1.00
N268   N     0.02417   0.34761   0.04135   0.00000  Uiso   1.00
N269   N     0.15294   0.47359   0.95852   0.00000  Uiso   1.00
N270   N     0.34693   0.02746   0.04149   0.00000  Uiso   1.00
N271   N     0.02020   0.34851   0.95852   0.00000  Uiso   1.00
N272   N     0.47397   0.15270   0.04155   0.00000  Uiso   1.00
N273   N     0.09987   0.26193   0.54137   0.00000  Uiso   1.00
N274   N     0.23508   0.40049   0.45862   0.00000  Uiso   1.00
N275   N     0.26571   0.09949   0.54138   0.00000  Uiso   1.00
N276   N     0.10032   0.25784   0.45854   0.00000  Uiso   1.00
N277   N     0.40044   0.23501   0.54154   0.00000  Uiso   1.00
N278   N     0.26118   0.10005   0.45857   0.00000  Uiso   1.00
N279   N     0.23933   0.39997   0.54144   0.00000  Uiso   1.00
N280   N     0.34766   0.02442   0.95847   0.00000  Uiso   1.00
O281   O     0.25000  -0.00000   0.25000   0.00000  Uiso   1.00
O282   O     0.25000   0.46964   0.66245   0.00000  Uiso   1.00
O283   O     0.46964   0.25000   0.33755   0.00000  Uiso   1.00
O284   O     0.03037   0.25000   0.66245   0.00000  Uiso   1.00
O285   O     0.00000   0.21963   0.83755   0.00000  Uiso   1.00
O286   O     0.00000   0.28037   0.16245   0.00000  Uiso   1.00
O287   O     0.28037  -0.00000   0.83755   0.00000  Uiso   1.00
O288   O     0.21964  -0.00000   0.16245   0.00000  Uiso   1.00
O289   O     0.00000   0.28036   0.83755   0.00000  Uiso   1.00
O290   O     0.00000   0.21963   0.16245   0.00000  Uiso   1.00
O291   O     0.21964  -0.00000   0.83755   0.00000  Uiso   1.00
O292   O     0.25000  -0.00000   0.75000   0.00000  Uiso   1.00
O293   O     0.28037  -0.00000   0.16245   0.00000  Uiso   1.00
O294   O     0.20725   0.07307   0.27302   0.00000  Uiso   1.00
O295   O     0.29276   0.42693   0.72698   0.00000  Uiso   1.00
O296   O     0.42693   0.20724   0.27302   0.00000  Uiso   1.00
O297   O     0.07308   0.29276   0.72698   0.00000  Uiso   1.00
O298   O     0.29276   0.42693   0.27302   0.00000  Uiso   1.00
O299   O     0.20725   0.07307   0.72698   0.00000  Uiso   1.00
O300   O     0.07308   0.29276   0.27302   0.00000  Uiso   1.00
O301   O     0.42693   0.20724   0.72698   0.00000  Uiso   1.00
O302   O     0.20725   0.42693   0.72698   0.00000  Uiso   1.00
O303   O     0.00000   0.25000   0.25000   0.00000  Uiso   1.00
O304   O     0.29276   0.07307   0.27302   0.00000  Uiso   1.00
O305   O     0.42693   0.29275   0.72698   0.00000  Uiso   1.00
O306   O     0.07308   0.20725   0.27302   0.00000  Uiso   1.00
O307   O     0.29276   0.07307   0.72698   0.00000  Uiso   1.00
O308   O     0.20725   0.42693   0.27302   0.00000  Uiso   1.00
O309   O     0.07308   0.20725   0.72698   0.00000  Uiso   1.00
O310   O     0.42693   0.29275   0.27302   0.00000  Uiso   1.00
O311   O     0.45725   0.32307   0.77302   0.00000  Uiso   1.00
O312   O     0.04276   0.17693   0.22698   0.00000  Uiso   1.00
O313   O     0.17693   0.45725   0.77302   0.00000  Uiso   1.00
O314   O     0.00000   0.25000   0.75000   0.00000  Uiso   1.00
O315   O     0.32308   0.04275   0.22698   0.00000  Uiso   1.00
O316   O     0.04276   0.17693   0.77302   0.00000  Uiso   1.00
O317   O     0.45725   0.32307   0.22698   0.00000  Uiso   1.00
O318   O     0.32308   0.04275   0.77302   0.00000  Uiso   1.00
O319   O     0.17693   0.45725   0.22698   0.00000  Uiso   1.00
O320   O     0.45725   0.17692   0.22698   0.00000  Uiso   1.00
O321   O     0.04276   0.32308   0.77302   0.00000  Uiso   1.00
O322   O     0.17693   0.04275   0.22698   0.00000  Uiso   1.00
O323   O     0.32308   0.45725   0.77302   0.00000  Uiso   1.00
O324   O     0.04276   0.32308   0.22698   0.00000  Uiso   1.00
O325   O     0.25000   0.46964   0.33755   0.00000  Uiso   1.00
O326   O     0.45725   0.17692   0.77302   0.00000  Uiso   1.00
O327   O     0.32308   0.45725   0.22698   0.00000  Uiso   1.00
O328   O     0.17693   0.04275   0.77302   0.00000  Uiso   1.00
O329   O     0.25000   0.03036   0.66245   0.00000  Uiso   1.00
O330   O     0.03037   0.25000   0.33755   0.00000  Uiso   1.00
O331   O     0.46964   0.25000   0.66245   0.00000  Uiso   1.00
O332   O     0.25000   0.03036   0.33755   0.00000  Uiso   1.00
Zn333  Zn    0.20660  -0.00000   0.21735   0.00000  Uiso   1.00
Zn334  Zn    0.04341   0.25000   0.28265   0.00000  Uiso   1.00
Zn335  Zn    0.25000   0.45660   0.71735   0.00000  Uiso   1.00
Zn336  Zn    0.25000   0.04340   0.28265   0.00000  Uiso   1.00
Zn337  Zn    0.04341   0.25000   0.71735   0.00000  Uiso   1.00
Zn338  Zn    0.45660   0.25000   0.28265   0.00000  Uiso   1.00
Zn339  Zn    0.25000   0.04340   0.71735   0.00000  Uiso   1.00
Zn340  Zn    0.25000   0.45660   0.28265   0.00000  Uiso   1.00
Zn341  Zn    0.29341  -0.00000   0.78265   0.00000  Uiso   1.00
Zn342  Zn    0.00000   0.20659   0.21735   0.00000  Uiso   1.00
Zn343  Zn    0.00000   0.29340   0.78265   0.00000  Uiso   1.00
Zn344  Zn    0.29341  -0.00000   0.21735   0.00000  Uiso   1.00
Zn345  Zn    0.20660  -0.00000   0.78265   0.00000  Uiso   1.00
Zn346  Zn    0.00000   0.29340   0.21735   0.00000  Uiso   1.00
Zn347  Zn    0.00000   0.20660   0.78265   0.00000  Uiso   1.00
Zn348  Zn    0.45660   0.25000   0.71735   0.00000  Uiso   1.00
C349   C     0.53290   0.25227   0.41865   0.00000  Uiso   1.00
C350   C     0.78218   0.00756   0.08138   0.00000  Uiso   1.00
C351   C     0.75544   0.03318   0.54075   0.00000  Uiso   1.00
C352   C     0.53355   0.25142   0.45924   0.00000  Uiso   1.00
C353   C     0.96684   0.24417   0.54075   0.00000  Uiso   1.00
C354   C     0.75367   0.03339   0.45925   0.00000  Uiso   1.00
C355   C     0.74677   0.46664   0.54075   0.00000  Uiso   1.00
C356   C     0.78261   0.00816   0.95924   0.00000  Uiso   1.00
C357   C     0.71732   0.49261   0.04076   0.00000  Uiso   1.00
C358   C     0.98987   0.21779   0.95922   0.00000  Uiso   1.00
C359   C     0.50693   0.28275   0.04074   0.00000  Uiso   1.00
C360   C     0.71740   0.49224   0.95925   0.00000  Uiso   1.00
C361   C     0.50625   0.28232   0.91862   0.00000  Uiso   1.00
C362   C     0.78253   0.00856   0.04077   0.00000  Uiso   1.00
C363   C     0.50564   0.28303   0.95923   0.00000  Uiso   1.00
C364   C     0.99066   0.21763   0.04077   0.00000  Uiso   1.00
C365   C     0.59814   0.34811   0.24997   0.00000  Uiso   1.00
C366   C     0.90187   0.15188   0.75001   0.00000  Uiso   1.00
C367   C     0.65186   0.09812   0.25002   0.00000  Uiso   1.00
C368   C     0.84813   0.40187   0.74999   0.00000  Uiso   1.00
C369   C     0.90186   0.15188   0.24997   0.00000  Uiso   1.00
C370   C     0.59813   0.34813   0.75001   0.00000  Uiso   1.00
C371   C     0.84813   0.40187   0.25000   0.00000  Uiso   1.00
C372   C     0.99196   0.21790   0.08138   0.00000  Uiso   1.00
C373   C     0.65187   0.09813   0.75000   0.00000  Uiso   1.00
C374   C     0.59813   0.15187   0.75000   0.00000  Uiso   1.00
C375   C     0.90187   0.34813   0.25000   0.00000  Uiso   1.00
C376   C     0.65188   0.40187   0.75001   0.00000  Uiso   1.00
C377   C     0.84811   0.09814   0.24997   0.00000  Uiso   1.00
C378   C     0.90187   0.34813   0.75000   0.00000  Uiso   1.00
C379   C     0.59812   0.15186   0.25002   0.00000  Uiso   1.00
C380   C     0.84812   0.09813   0.75001   0.00000  Uiso   1.00
C381   C     0.65189   0.40186   0.24997   0.00000  Uiso   1.00
C382   C     0.50022   0.24755   0.47965   0.00000  Uiso   1.00
C383   C     0.78224   0.00730   0.91862   0.00000  Uiso   1.00
C384   C     0.50017   0.24801   0.52033   0.00000  Uiso   1.00
C385   C     0.74983   0.00006   0.47966   0.00000  Uiso   1.00
C386   C     0.75067   0.49996   0.52034   0.00000  Uiso   1.00
C387   C     0.74998   0.00035   0.97966   0.00000  Uiso   1.00
C388   C     0.74996   0.00046   0.02035   0.00000  Uiso   1.00
C389   C     0.99790   0.25038   0.97965   0.00000  Uiso   1.00
C390   C     0.99837   0.25028   0.02034   0.00000  Uiso   1.00
C391   C     0.89523   0.19421   0.44726   0.00000  Uiso   1.00
C392   C     0.60763   0.29949   0.55139   0.00000  Uiso   1.00
C393   C     0.69744   0.39327   0.44849   0.00000  Uiso   1.00
C394   C     0.71774   0.49324   0.08137   0.00000  Uiso   1.00
C395   C     0.80341   0.10660   0.55138   0.00000  Uiso   1.00
C396   C     0.61635   0.22314   0.44805   0.00000  Uiso   1.00
C397   C     0.89200   0.19856   0.55513   0.00000  Uiso   1.00
C398   C     0.72666   0.11673   0.44852   0.00000  Uiso   1.00
C399   C     0.77384   0.38337   0.55166   0.00000  Uiso   1.00
C400   C     0.85227   0.06166   0.94525   0.00000  Uiso   1.00
C401   C     0.64749   0.43939   0.05480   0.00000  Uiso   1.00
C402   C     0.93265   0.15221   0.94731   0.00000  Uiso   1.00
C403   C     0.56241   0.35080   0.05134   0.00000  Uiso   1.00
C404   C     0.65134   0.43554   0.94737   0.00000  Uiso   1.00
C405   C     0.99117   0.21805   0.91861   0.00000  Uiso   1.00
C406   C     0.84841   0.06551   0.05267   0.00000  Uiso   1.00
C407   C     0.98773   0.36870   0.94805   0.00000  Uiso   1.00
C408   C     0.93675   0.14827   0.05489   0.00000  Uiso   1.00
C409   C     0.50680   0.28223   0.08135   0.00000  Uiso   1.00
C410   C     0.50005   0.24908   0.39841   0.00000  Uiso   1.00
C411   C     0.50002   0.24949   0.60158   0.00000  Uiso   1.00
C412   C     0.74974   0.00004   0.39841   0.00000  Uiso   1.00
C413   C     0.96725   0.24547   0.58134   0.00000  Uiso   1.00
C414   C     0.75049   0.49999   0.60159   0.00000  Uiso   1.00
C415   C     0.75002   0.00012   0.89840   0.00000  Uiso   1.00
C416   C     0.74999   0.00025   0.10160   0.00000  Uiso   1.00
C417   C     0.99921   0.25008   0.89840   0.00000  Uiso   1.00
C418   C     0.99965   0.25002   0.10159   0.00000  Uiso   1.00
C419   C     0.93377   0.23842   0.47953   0.00000  Uiso   1.00
C420   C     0.56667   0.25676   0.52043   0.00000  Uiso   1.00
C421   C     0.74066   0.43363   0.47956   0.00000  Uiso   1.00
C422   C     0.75996   0.06637   0.52044   0.00000  Uiso   1.00
C423   C     0.56686   0.25507   0.47952   0.00000  Uiso   1.00
C424   C     0.75376   0.03280   0.41864   0.00000  Uiso   1.00
C425   C     0.93369   0.23925   0.52047   0.00000  Uiso   1.00
C426   C     0.75803   0.06661   0.47954   0.00000  Uiso   1.00
C427   C     0.74250   0.43340   0.52047   0.00000  Uiso   1.00
C428   C     0.81506   0.01656   0.97953   0.00000  Uiso   1.00
C429   C     0.68484   0.48436   0.02048   0.00000  Uiso   1.00
C430   C     0.98105   0.18544   0.97953   0.00000  Uiso   1.00
C431   C     0.51501   0.31527   0.02042   0.00000  Uiso   1.00
C432   C     0.68498   0.48368   0.97953   0.00000  Uiso   1.00
C433   C     0.81492   0.01727   0.02048   0.00000  Uiso   1.00
C434   C     0.51334   0.31565   0.97951   0.00000  Uiso   1.00
C435   C     0.74651   0.46723   0.58136   0.00000  Uiso   1.00
C436   C     0.98192   0.18527   0.02048   0.00000  Uiso   1.00
C437   C     0.74998   0.00001   0.35597   0.00000  Uiso   1.00
C438   C     0.75006   0.00000   0.64403   0.00000  Uiso   1.00
C439   C     0.50000   0.24992   0.35597   0.00000  Uiso   1.00
C440   C     0.50000   0.24995   0.64403   0.00000  Uiso   1.00
C441   C     0.99993   0.25000   0.85596   0.00000  Uiso   1.00
C442   C     0.99997   0.25000   0.14403   0.00000  Uiso   1.00
C443   C     0.75000   0.00004   0.85596   0.00000  Uiso   1.00
C444   C     0.75000   0.00004   0.14404   0.00000  Uiso   1.00
C445   C     0.67993   0.07006   0.25000   0.00000  Uiso   1.00
C446   C     0.96733   0.24472   0.41864   0.00000  Uiso   1.00
C447   C     0.82006   0.42994   0.75000   0.00000  Uiso   1.00
C448   C     0.92994   0.17994   0.24999   0.00000  Uiso   1.00
C449   C     0.57006   0.32006   0.75000   0.00000  Uiso   1.00
C450   C     0.82006   0.42994   0.25000   0.00000  Uiso   1.00
C451   C     0.67994   0.07006   0.75000   0.00000  Uiso   1.00
C452   C     0.57006   0.32006   0.24999   0.00000  Uiso   1.00
C453   C     0.92994   0.17994   0.75000   0.00000  Uiso   1.00
C454   C     0.67994   0.42994   0.75000   0.00000  Uiso   1.00
C455   C     0.82006   0.07006   0.24999   0.00000  Uiso   1.00
C456   C     0.92994   0.32006   0.75000   0.00000  Uiso   1.00
C457   C     0.53285   0.25278   0.58134   0.00000  Uiso   1.00
C458   C     0.57006   0.17993   0.25000   0.00000  Uiso   1.00
C459   C     0.82006   0.07006   0.75000   0.00000  Uiso   1.00
C460   C     0.67994   0.42994   0.24999   0.00000  Uiso   1.00
C461   C     0.57006   0.17994   0.75000   0.00000  Uiso   1.00
C462   C     0.92994   0.32006   0.25000   0.00000  Uiso   1.00
C463   C     0.62230   0.40444   0.22435   0.00000  Uiso   1.00
C464   C     0.87759   0.09567   0.77580   0.00000  Uiso   1.00
C465   C     0.59526   0.12199   0.22480   0.00000  Uiso   1.00
C466   C     0.90475   0.37801   0.77521   0.00000  Uiso   1.00
C467   C     0.87766   0.09560   0.22430   0.00000  Uiso   1.00
C468   C     0.74547   0.46732   0.41865   0.00000  Uiso   1.00
C469   C     0.62219   0.40455   0.77549   0.00000  Uiso   1.00
C470   C     0.90482   0.37809   0.22491   0.00000  Uiso   1.00
C471   C     0.59518   0.12191   0.77509   0.00000  Uiso   1.00
C472   C     0.62191   0.09518   0.77509   0.00000  Uiso   1.00
C473   C     0.87809   0.40482   0.22491   0.00000  Uiso   1.00
C474   C     0.59545   0.37781   0.77549   0.00000  Uiso   1.00
C475   C     0.90440   0.12234   0.22430   0.00000  Uiso   1.00
C476   C     0.87801   0.40475   0.77520   0.00000  Uiso   1.00
C477   C     0.62199   0.09526   0.22480   0.00000  Uiso   1.00
C478   C     0.90433   0.12241   0.77580   0.00000  Uiso   1.00
C479   C     0.75495   0.03269   0.58136   0.00000  Uiso   1.00
C480   C     0.59556   0.37770   0.22435   0.00000  Uiso   1.00
C481   C     0.87239   0.15435   0.72422   0.00000  Uiso   1.00
C482   C     0.62774   0.34552   0.27559   0.00000  Uiso   1.00
C483   C     0.84526   0.37199   0.72478   0.00000  Uiso   1.00
C484   C     0.65472   0.12798   0.27526   0.00000  Uiso   1.00
C485   C     0.62782   0.34544   0.72453   0.00000  Uiso   1.00
C486   C     0.87230   0.15444   0.27564   0.00000  Uiso   1.00
C487   C     0.65482   0.12808   0.72490   0.00000  Uiso   1.00
C488   C     0.84518   0.37191   0.27510   0.00000  Uiso   1.00
C489   C     0.87191   0.34518   0.27510   0.00000  Uiso   1.00
C490   C     0.71779   0.49304   0.91863   0.00000  Uiso   1.00
C491   C     0.62808   0.15482   0.72490   0.00000  Uiso   1.00
C492   C     0.84556   0.12770   0.27563   0.00000  Uiso   1.00
C493   C     0.65456   0.37218   0.72453   0.00000  Uiso   1.00
C494   C     0.62798   0.15472   0.27526   0.00000  Uiso   1.00
C495   C     0.87199   0.34526   0.72479   0.00000  Uiso   1.00
C496   C     0.65448   0.37227   0.27559   0.00000  Uiso   1.00
C497   C     0.84565   0.12761   0.72423   0.00000  Uiso   1.00
C498   C     0.96692   0.24341   0.45924   0.00000  Uiso   1.00
C499   C     0.53341   0.25270   0.54073   0.00000  Uiso   1.00
C500   C     0.74509   0.46683   0.45926   0.00000  Uiso   1.00
H501   H     0.61979   0.42705   0.20429   0.00000  Uiso   1.00
H502   H     0.88091   0.42773   0.20528   0.00000  Uiso   1.00
H503   H     0.62681   0.43078   0.92915   0.00000  Uiso   1.00
H504   H     0.87124   0.01798   0.03048   0.00000  Uiso   1.00
H505   H     0.84998   0.08322   0.02662   0.00000  Uiso   1.00
H506   H     0.87296   0.07036   0.07085   0.00000  Uiso   1.00
H507   H     0.82393   0.07312   0.06986   0.00000  Uiso   1.00
H508   H     0.54050   0.36486   0.96973   0.00000  Uiso   1.00
H509   H     0.97364   0.37882   0.97448   0.00000  Uiso   1.00
H510   H     0.96866   0.35123   0.93121   0.00000  Uiso   1.00
H511   H     0.99542   0.39241   0.92974   0.00000  Uiso   1.00
H512   H     0.98662   0.12908   0.03257   0.00000  Uiso   1.00
H513   H     0.57276   0.38040   0.79543   0.00000  Uiso   1.00
H514   H     0.92305   0.12632   0.03810   0.00000  Uiso   1.00
H515   H     0.92076   0.17391   0.05188   0.00000  Uiso   1.00
H516   H     0.93700   0.14033   0.08596   0.00000  Uiso   1.00
H517   H     0.92699   0.11986   0.20420   0.00000  Uiso   1.00
H518   H     0.88077   0.42760   0.79492   0.00000  Uiso   1.00
H519   H     0.61924   0.07242   0.20506   0.00000  Uiso   1.00
H520   H     0.92685   0.12000   0.79599   0.00000  Uiso   1.00
H521   H     0.57295   0.38021   0.20429   0.00000  Uiso   1.00
H522   H     0.86998   0.17686   0.70403   0.00000  Uiso   1.00
H523   H     0.63026   0.32291   0.29564   0.00000  Uiso   1.00
H524   H     0.82241   0.36924   0.70506   0.00000  Uiso   1.00
H525   H     0.88001   0.07315   0.79600   0.00000  Uiso   1.00
H526   H     0.67755   0.13073   0.29500   0.00000  Uiso   1.00
H527   H     0.63041   0.32274   0.70459   0.00000  Uiso   1.00
H528   H     0.86982   0.17703   0.29573   0.00000  Uiso   1.00
H529   H     0.67773   0.13090   0.70527   0.00000  Uiso   1.00
H530   H     0.82227   0.36909   0.29472   0.00000  Uiso   1.00
H531   H     0.86909   0.32227   0.29472   0.00000  Uiso   1.00
H532   H     0.63090   0.17772   0.70527   0.00000  Uiso   1.00
H533   H     0.82297   0.13019   0.29573   0.00000  Uiso   1.00
H534   H     0.67726   0.36958   0.70459   0.00000  Uiso   1.00
H535   H     0.63073   0.17755   0.29500   0.00000  Uiso   1.00
H536   H     0.57242   0.11924   0.20506   0.00000  Uiso   1.00
H537   H     0.86923   0.32241   0.70506   0.00000  Uiso   1.00
H538   H     0.67709   0.36976   0.29564   0.00000  Uiso   1.00
H539   H     0.82313   0.13002   0.70403   0.00000  Uiso   1.00
H540   H     0.55795   0.25600   0.40248   0.00000  Uiso   1.00
H541   H     0.94206   0.24309   0.59754   0.00000  Uiso   1.00
H542   H     0.75750   0.05784   0.40244   0.00000  Uiso   1.00
H543   H     0.74267   0.44221   0.59755   0.00000  Uiso   1.00
H544   H     0.94210   0.24247   0.40246   0.00000  Uiso   1.00
H545   H     0.55802   0.25549   0.59753   0.00000  Uiso   1.00
H546   H     0.74263   0.44217   0.40246   0.00000  Uiso   1.00
H547   H     0.92759   0.38077   0.79493   0.00000  Uiso   1.00
H548   H     0.75783   0.05785   0.59755   0.00000  Uiso   1.00
H549   H     0.69303   0.48783   0.90241   0.00000  Uiso   1.00
H550   H     0.80695   0.01274   0.09761   0.00000  Uiso   1.00
H551   H     0.51288   0.30674   0.90241   0.00000  Uiso   1.00
H552   H     0.98655   0.19320   0.09761   0.00000  Uiso   1.00
H553   H     0.80695   0.01267   0.90239   0.00000  Uiso   1.00
H554   H     0.69304   0.48780   0.09760   0.00000  Uiso   1.00
H555   H     0.98592   0.19330   0.90238   0.00000  Uiso   1.00
H556   H     0.51248   0.30689   0.09757   0.00000  Uiso   1.00
H557   H     0.87770   0.24394   0.46950   0.00000  Uiso   1.00
H558   H     0.88014   0.07301   0.20420   0.00000  Uiso   1.00
H559   H     0.89173   0.17675   0.47330   0.00000  Uiso   1.00
H560   H     0.91874   0.18401   0.43007   0.00000  Uiso   1.00
H561   H     0.87031   0.19210   0.42907   0.00000  Uiso   1.00
H562   H     0.62220   0.24841   0.53027   0.00000  Uiso   1.00
H563   H     0.61231   0.31594   0.52478   0.00000  Uiso   1.00
H564   H     0.63253   0.30067   0.56971   0.00000  Uiso   1.00
H565   H     0.58467   0.31155   0.56805   0.00000  Uiso   1.00
H566   H     0.74825   0.37797   0.46974   0.00000  Uiso   1.00
H567   H     0.68086   0.38886   0.47506   0.00000  Uiso   1.00
H568   H     0.69595   0.36838   0.43018   0.00000  Uiso   1.00
H569   H     0.61960   0.42724   0.79544   0.00000  Uiso   1.00
H570   H     0.68577   0.41640   0.43176   0.00000  Uiso   1.00
H571   H     0.75258   0.12205   0.53031   0.00000  Uiso   1.00
H572   H     0.81994   0.11093   0.52475   0.00000  Uiso   1.00
H573   H     0.81503   0.08345   0.56811   0.00000  Uiso   1.00
H574   H     0.80504   0.13151   0.56963   0.00000  Uiso   1.00
H575   H     0.61904   0.27598   0.46976   0.00000  Uiso   1.00
H576   H     0.62464   0.20789   0.47447   0.00000  Uiso   1.00
H577   H     0.64085   0.22785   0.42976   0.00000  Uiso   1.00
H578   H     0.59668   0.20639   0.43118   0.00000  Uiso   1.00
H579   H     0.87833   0.25011   0.53250   0.00000  Uiso   1.00
H580   H     0.92773   0.38091   0.20528   0.00000  Uiso   1.00
H581   H     0.86872   0.18721   0.53840   0.00000  Uiso   1.00
H582   H     0.88412   0.19988   0.58619   0.00000  Uiso   1.00
H583   H     0.91577   0.17988   0.55228   0.00000  Uiso   1.00
H584   H     0.77977   0.11842   0.46963   0.00000  Uiso   1.00
H585   H     0.71185   0.12528   0.47513   0.00000  Uiso   1.00
H586   H     0.70937   0.09739   0.43185   0.00000  Uiso   1.00
H587   H     0.73163   0.14116   0.43021   0.00000  Uiso   1.00
H588   H     0.72083   0.38156   0.53031   0.00000  Uiso   1.00
H589   H     0.78879   0.37484   0.52513   0.00000  Uiso   1.00
H590   H     0.76885   0.35895   0.56997   0.00000  Uiso   1.00
H591   H     0.57227   0.11909   0.79472   0.00000  Uiso   1.00
H592   H     0.79103   0.40276   0.56841   0.00000  Uiso   1.00
H593   H     0.87122   0.01164   0.96741   0.00000  Uiso   1.00
H594   H     0.87440   0.07515   0.96195   0.00000  Uiso   1.00
H595   H     0.82675   0.07781   0.94849   0.00000  Uiso   1.00
H596   H     0.86003   0.06146   0.91413   0.00000  Uiso   1.00
H597   H     0.62869   0.48945   0.03259   0.00000  Uiso   1.00
H598   H     0.62527   0.42597   0.03816   0.00000  Uiso   1.00
H599   H     0.63979   0.43965   0.08594   0.00000  Uiso   1.00
H600   H     0.67294   0.42314   0.05151   0.00000  Uiso   1.00
H601   H     0.98004   0.12911   0.96955   0.00000  Uiso   1.00
H602   H     0.61909   0.07227   0.79472   0.00000  Uiso   1.00
H603   H     0.91492   0.15078   0.97336   0.00000  Uiso   1.00
H604   H     0.92767   0.12767   0.92917   0.00000  Uiso   1.00
H605   H     0.92522   0.17671   0.93008   0.00000  Uiso   1.00
H606   H     0.51345   0.37140   0.03025   0.00000  Uiso   1.00
H607   H     0.57929   0.35343   0.02472   0.00000  Uiso   1.00
H608   H     0.57160   0.32657   0.06805   0.00000  Uiso   1.00
H609   H     0.56660   0.37541   0.06960   0.00000  Uiso   1.00
H610   H     0.62866   0.48317   0.96951   0.00000  Uiso   1.00
H611   H     0.64965   0.41787   0.97345   0.00000  Uiso   1.00
H612   H     0.67582   0.42782   0.93025   0.00000  Uiso   1.00
N613   N     0.90084   0.23185   0.45851   0.00000  Uiso   1.00
N614   N     0.65221   0.47660   0.04153   0.00000  Uiso   1.00
N615   N     0.97070   0.15348   0.95853   0.00000  Uiso   1.00
N616   N     0.52417   0.34761   0.04135   0.00000  Uiso   1.00
N617   N     0.65294   0.47359   0.95852   0.00000  Uiso   1.00
N618   N     0.84693   0.02746   0.04149   0.00000  Uiso   1.00
N619   N     0.52020   0.34851   0.95852   0.00000  Uiso   1.00
N620   N     0.97397   0.15270   0.04155   0.00000  Uiso   1.00
N621   N     0.59987   0.26193   0.54137   0.00000  Uiso   1.00
N622   N     0.73508   0.40049   0.45862   0.00000  Uiso   1.00
N623   N     0.76571   0.09949   0.54138   0.00000  Uiso   1.00
N624   N     0.60032   0.25784   0.45854   0.00000  Uiso   1.00
N625   N     0.90044   0.23501   0.54154   0.00000  Uiso   1.00
N626   N     0.76118   0.10005   0.45857   0.00000  Uiso   1.00
N627   N     0.73933   0.39997   0.54144   0.00000  Uiso   1.00
N628   N     0.84766   0.02442   0.95847   0.00000  Uiso   1.00
O629   O     0.75000  -0.00000   0.25000   0.00000  Uiso   1.00
O630   O     0.75000   0.46964   0.66245   0.00000  Uiso   1.00
O631   O     0.96964   0.25000   0.33755   0.00000  Uiso   1.00
O632   O     0.53037   0.25000   0.66245   0.00000  Uiso   1.00
O633   O     0.50000   0.21963   0.83755   0.00000  Uiso   1.00
O634   O     0.50000   0.28037   0.16245   0.00000  Uiso   1.00
O635   O     0.78037  -0.00000   0.83755   0.00000  Uiso   1.00
O636   O     0.71964  -0.00000   0.16245   0.00000  Uiso   1.00
O637   O     0.50000   0.28036   0.83755   0.00000  Uiso   1.00
O638   O     0.50000   0.21963   0.16245   0.00000  Uiso   1.00
O639   O     0.71964  -0.00000   0.83755   0.00000  Uiso   1.00
O640   O     0.75000  -0.00000   0.75000   0.00000  Uiso   1.00
O641   O     0.78037  -0.00000   0.16245   0.00000  Uiso   1.00
O642   O     0.70725   0.07307   0.27302   0.00000  Uiso   1.00
O643   O     0.79276   0.42693   0.72698   0.00000  Uiso   1.00
O644   O     0.92693   0.20724   0.27302   0.00000  Uiso   1.00
O645   O     0.57308   0.29276   0.72698   0.00000  Uiso   1.00
O646   O     0.79276   0.42693   0.27302   0.00000  Uiso   1.00
O647   O     0.70725   0.07307   0.72698   0.00000  Uiso   1.00
O648   O     0.57308   0.29276   0.27302   0.00000  Uiso   1.00
O649   O     0.92693   0.20724   0.72698   0.00000  Uiso   1.00
O650   O     0.70725   0.42693   0.72698   0.00000  Uiso   1.00
O651   O     0.50000   0.25000   0.25000   0.00000  Uiso   1.00
O652   O     0.79276   0.07307   0.27302   0.00000  Uiso   1.00
O653   O     0.92693   0.29275   0.72698   0.00000  Uiso   1.00
O654   O     0.57308   0.20725   0.27302   0.00000  Uiso   1.00
O655   O     0.79276   0.07307   0.72698   0.00000  Uiso   1.00
O656   O     0.70725   0.42693   0.27302   0.00000  Uiso   1.00
O657   O     0.57308   0.20725   0.72698   0.00000  Uiso   1.00
O658   O     0.92693   0.29275   0.27302   0.00000  Uiso   1.00
O659   O     0.95725   0.32307   0.77302   0.00000  Uiso   1.00
O660   O     0.54276   0.17693   0.22698   0.00000  Uiso   1.00
O661   O     0.67693   0.45725   0.77302   0.00000  Uiso   1.00
O662   O     0.50000   0.25000   0.75000   0.00000  Uiso   1.00
O663   O     0.82308   0.04275   0.22698   0.00000  Uiso   1.00
O664   O     0.54276   0.17693   0.77302   0.00000  Uiso   1.00
O665   O     0.95725   0.32307   0.22698   0.00000  Uiso   1.00
O666   O     0.82308   0.04275   0.77302   0.00000  Uiso   1.00
O667   O     0.67693   0.45725   0.22698   0.00000  Uiso   1.00
O668   O     0.95725   0.17692   0.22698   0.00000  Uiso   1.00
O669   O     0.54276   0.32308   0.77302   0.00000  Uiso   1.00
O670   O     0.67693   0.04275   0.22698   0.00000  Uiso   1.00
O671   O     0.82308   0.45725   0.77302   0.00000  Uiso   1.00
O672   O     0.54276   0.32308   0.22698   0.00000  Uiso   1.00
O673   O     0.75000   0.46964   0.33755   0.00000  Uiso   1.00
O674   O     0.95725   0.17692   0.77302   0.00000  Uiso   1.00
O675   O     0.82308   0.45725   0.22698   0.00000  Uiso   1.00
O676   O     0.67693   0.04275   0.77302   0.00000  Uiso   1.00
O677   O     0.75000   0.03036   0.66245   0.00000  Uiso   1.00
O678   O     0.53037   0.25000   0.33755   0.00000  Uiso   1.00
O679   O     0.96964   0.25000   0.66245   0.00000  Uiso   1.00
O680   O     0.75000   0.03036   0.33755   0.00000  Uiso   1.00
Zn681  Zn    0.70660  -0.00000   0.21735   0.00000  Uiso   1.00
Zn682  Zn    0.54341   0.25000   0.28265   0.00000  Uiso   1.00
Zn683  Zn    0.75000   0.45660   0.71735   0.00000  Uiso   1.00
Zn684  Zn    0.75000   0.04340   0.28265   0.00000  Uiso   1.00
Zn685  Zn    0.54341   0.25000   0.71735   0.00000  Uiso   1.00
Zn686  Zn    0.95660   0.25000   0.28265   0.00000  Uiso   1.00
Zn687  Zn    0.75000   0.04340   0.71735   0.00000  Uiso   1.00
Zn688  Zn    0.75000   0.45660   0.28265   0.00000  Uiso   1.00
Zn689  Zn    0.79341  -0.00000   0.78265   0.00000  Uiso   1.00
Zn690  Zn    0.50000   0.20659   0.21735   0.00000  Uiso   1.00
Zn691  Zn    0.50000   0.29340   0.78265   0.00000  Uiso   1.00
Zn692  Zn    0.79341  -0.00000   0.21735   0.00000  Uiso   1.00
Zn693  Zn    0.70660  -0.00000   0.78265   0.00000  Uiso   1.00
Zn694  Zn    0.50000   0.29340   0.21735   0.00000  Uiso   1.00
Zn695  Zn    0.50000   0.20660   0.78265   0.00000  Uiso   1.00
Zn696  Zn    0.95660   0.25000   0.71735   0.00000  Uiso   1.00
C697   C     0.03290   0.75227   0.41865   0.00000  Uiso   1.00
C698   C     0.28218   0.50756   0.08138   0.00000  Uiso   1.00
C699   C     0.25544   0.53318   0.54075   0.00000  Uiso   1.00
C700   C     0.03355   0.75142   0.45924   0.00000  Uiso   1.00
C701   C     0.46684   0.74417   0.54075   0.00000  Uiso   1.00
C702   C     0.25367   0.53339   0.45925   0.00000  Uiso   1.00
C703   C     0.24677   0.96664   0.54075   0.00000  Uiso   1.00
C704   C     0.28261   0.50816   0.95924   0.00000  Uiso   1.00
C705   C     0.21732   0.99261   0.04076   0.00000  Uiso   1.00
C706   C     0.48987   0.71779   0.95922   0.00000  Uiso   1.00
C707   C     0.00693   0.78275   0.04074   0.00000  Uiso   1.00
C708   C     0.21740   0.99224   0.95925   0.00000  Uiso   1.00
C709   C     0.00625   0.78232   0.91862   0.00000  Uiso   1.00
C710   C     0.28253   0.50856   0.04077   0.00000  Uiso   1.00
C711   C     0.00564   0.78303   0.95923   0.00000  Uiso   1.00
C712   C     0.49066   0.71763   0.04077   0.00000  Uiso   1.00
C713   C     0.09814   0.84811   0.24997   0.00000  Uiso   1.00
C714   C     0.40187   0.65188   0.75001   0.00000  Uiso   1.00
C715   C     0.15186   0.59812   0.25002   0.00000  Uiso   1.00
C716   C     0.34813   0.90187   0.74999   0.00000  Uiso   1.00
C717   C     0.40186   0.65188   0.24997   0.00000  Uiso   1.00
C718   C     0.09813   0.84813   0.75001   0.00000  Uiso   1.00
C719   C     0.34813   0.90187   0.25000   0.00000  Uiso   1.00
C720   C     0.49196   0.71790   0.08138   0.00000  Uiso   1.00
C721   C     0.15187   0.59813   0.75000   0.00000  Uiso   1.00
C722   C     0.09813   0.65187   0.75000   0.00000  Uiso   1.00
C723   C     0.40187   0.84813   0.25000   0.00000  Uiso   1.00
C724   C     0.15188   0.90187   0.75001   0.00000  Uiso   1.00
C725   C     0.34811   0.59814   0.24997   0.00000  Uiso   1.00
C726   C     0.40187   0.84813   0.75000   0.00000  Uiso   1.00
C727   C     0.09812   0.65186   0.25002   0.00000  Uiso   1.00
C728   C     0.34812   0.59813   0.75001   0.00000  Uiso   1.00
C729   C     0.15189   0.90186   0.24997   0.00000  Uiso   1.00
C730   C     0.00022   0.74755   0.47965   0.00000  Uiso   1.00
C731   C     0.28224   0.50730   0.91862   0.00000  Uiso   1.00
C732   C     0.00017   0.74801   0.52033   0.00000  Uiso   1.00
C733   C     0.24983   0.50006   0.47966   0.00000  Uiso   1.00
C734   C     0.25067   0.99996   0.52034   0.00000  Uiso   1.00
C735   C     0.24998   0.50035   0.97966   0.00000  Uiso   1.00
C736   C     0.24996   0.50046   0.02035   0.00000  Uiso   1.00
C737   C     0.49790   0.75038   0.97965   0.00000  Uiso   1.00
C738   C     0.49837   0.75028   0.02034   0.00000  Uiso   1.00
C739   C     0.39523   0.69421   0.44726   0.00000  Uiso   1.00
C740   C     0.10763   0.79949   0.55139   0.00000  Uiso   1.00
C741   C     0.19744   0.89327   0.44849   0.00000  Uiso   1.00
C742   C     0.21774   0.99324   0.08137   0.00000  Uiso   1.00
C743   C     0.30341   0.60660   0.55138   0.00000  Uiso   1.00
C744   C     0.11635   0.72314   0.44805   0.00000  Uiso   1.00
C745   C     0.39200   0.69856   0.55513   0.00000  Uiso   1.00
C746   C     0.22666   0.61673   0.44852   0.00000  Uiso   1.00
C747   C     0.27384   0.88337   0.55166   0.00000  Uiso   1.00
C748   C     0.35227   0.56166   0.94525   0.00000  Uiso   1.00
C749   C     0.14749   0.93939   0.05480   0.00000  Uiso   1.00
C750   C     0.43265   0.65221   0.94731   0.00000  Uiso   1.00
C751   C     0.06241   0.85080   0.05134   0.00000  Uiso   1.00
C752   C     0.15134   0.93554   0.94737   0.00000  Uiso   1.00
C753   C     0.49117   0.71805   0.91861   0.00000  Uiso   1.00
C754   C     0.34841   0.56551   0.05267   0.00000  Uiso   1.00
C755   C     0.48773   0.86870   0.94805   0.00000  Uiso   1.00
C756   C     0.43675   0.64827   0.05489   0.00000  Uiso   1.00
C757   C     0.00680   0.78223   0.08135   0.00000  Uiso   1.00
C758   C     0.00005   0.74908   0.39841   0.00000  Uiso   1.00
C759   C     0.00002   0.74949   0.60158   0.00000  Uiso   1.00
C760   C     0.24974   0.50004   0.39841   0.00000  Uiso   1.00
C761   C     0.46725   0.74547   0.58134   0.00000  Uiso   1.00
C762   C     0.25049   0.99999   0.60159   0.00000  Uiso   1.00
C763   C     0.25002   0.50012   0.89840   0.00000  Uiso   1.00
C764   C     0.24999   0.50025   0.10160   0.00000  Uiso   1.00
C765   C     0.49921   0.75008   0.89840   0.00000  Uiso   1.00
C766   C     0.49965   0.75002   0.10159   0.00000  Uiso   1.00
C767   C     0.43377   0.73842   0.47953   0.00000  Uiso   1.00
C768   C     0.06667   0.75676   0.52043   0.00000  Uiso   1.00
C769   C     0.24066   0.93363   0.47956   0.00000  Uiso   1.00
C770   C     0.25996   0.56637   0.52044   0.00000  Uiso   1.00
C771   C     0.06686   0.75507   0.47952   0.00000  Uiso   1.00
C772   C     0.25376   0.53280   0.41864   0.00000  Uiso   1.00
C773   C     0.43369   0.73925   0.52047   0.00000  Uiso   1.00
C774   C     0.25803   0.56661   0.47954   0.00000  Uiso   1.00
C775   C     0.24250   0.93340   0.52047   0.00000  Uiso   1.00
C776   C     0.31506   0.51656   0.97953   0.00000  Uiso   1.00
C777   C     0.18484   0.98436   0.02048   0.00000  Uiso   1.00
C778   C     0.48105   0.68544   0.97953   0.00000  Uiso   1.00
C779   C     0.01501   0.81527   0.02042   0.00000  Uiso   1.00
C780   C     0.18498   0.98368   0.97953   0.00000  Uiso   1.00
C781   C     0.31492   0.51727   0.02048   0.00000  Uiso   1.00
C782   C     0.01334   0.81565   0.97951   0.00000  Uiso   1.00
C783   C     0.24651   0.96723   0.58136   0.00000  Uiso   1.00
C784   C     0.48192   0.68527   0.02048   0.00000  Uiso   1.00
C785   C     0.24998   0.50001   0.35597   0.00000  Uiso   1.00
C786   C     0.25006   0.50000   0.64403   0.00000  Uiso   1.00
C787   C     0.00000   0.74992   0.35597   0.00000  Uiso   1.00
C788   C    -0.00000   0.74995   0.64403   0.00000  Uiso   1.00
C789   C     0.49993   0.75000   0.85596   0.00000  Uiso   1.00
C790   C     0.49997   0.75000   0.14403   0.00000  Uiso   1.00
C791   C     0.25000   0.50004   0.85596   0.00000  Uiso   1.00
C792   C     0.25000   0.50004   0.14404   0.00000  Uiso   1.00
C793   C     0.17993   0.57006   0.25000   0.00000  Uiso   1.00
C794   C     0.46733   0.74472   0.41864   0.00000  Uiso   1.00
C795   C     0.32006   0.92994   0.75000   0.00000  Uiso   1.00
C796   C     0.42994   0.67994   0.24999   0.00000  Uiso   1.00
C797   C     0.07006   0.82006   0.75000   0.00000  Uiso   1.00
C798   C     0.32006   0.92994   0.25000   0.00000  Uiso   1.00
C799   C     0.17994   0.57006   0.75000   0.00000  Uiso   1.00
C800   C     0.07006   0.82006   0.24999   0.00000  Uiso   1.00
C801   C     0.42994   0.67994   0.75000   0.00000  Uiso   1.00
C802   C     0.17994   0.92994   0.75000   0.00000  Uiso   1.00
C803   C     0.32006   0.57006   0.24999   0.00000  Uiso   1.00
C804   C     0.42994   0.82006   0.75000   0.00000  Uiso   1.00
C805   C     0.03285   0.75278   0.58134   0.00000  Uiso   1.00
C806   C     0.07006   0.67993   0.25000   0.00000  Uiso   1.00
C807   C     0.32006   0.57006   0.75000   0.00000  Uiso   1.00
C808   C     0.17994   0.92994   0.24999   0.00000  Uiso   1.00
C809   C     0.07006   0.67994   0.75000   0.00000  Uiso   1.00
C810   C     0.42994   0.82006   0.25000   0.00000  Uiso   1.00
C811   C     0.12230   0.90444   0.22435   0.00000  Uiso   1.00
C812   C     0.37759   0.59567   0.77580   0.00000  Uiso   1.00
C813   C     0.09526   0.62199   0.22480   0.00000  Uiso   1.00
C814   C     0.40475   0.87801   0.77521   0.00000  Uiso   1.00
C815   C     0.37766   0.59560   0.22430   0.00000  Uiso   1.00
C816   C     0.24547   0.96732   0.41865   0.00000  Uiso   1.00
C817   C     0.12219   0.90455   0.77549   0.00000  Uiso   1.00
C818   C     0.40482   0.87809   0.22491   0.00000  Uiso   1.00
C819   C     0.09518   0.62191   0.77509   0.00000  Uiso   1.00
C820   C     0.12191   0.59518   0.77509   0.00000  Uiso   1.00
C821   C     0.37809   0.90482   0.22491   0.00000  Uiso   1.00
C822   C     0.09545   0.87781   0.77549   0.00000  Uiso   1.00
C823   C     0.40440   0.62234   0.22430   0.00000  Uiso   1.00
C824   C     0.37801   0.90475   0.77520   0.00000  Uiso   1.00
C825   C     0.12199   0.59526   0.22480   0.00000  Uiso   1.00
C826   C     0.40433   0.62241   0.77580   0.00000  Uiso   1.00
C827   C     0.25495   0.53269   0.58136   0.00000  Uiso   1.00
C828   C     0.09556   0.87770   0.22435   0.00000  Uiso   1.00
C829   C     0.37239   0.65435   0.72422   0.00000  Uiso   1.00
C830   C     0.12774   0.84552   0.27559   0.00000  Uiso   1.00
C831   C     0.34526   0.87199   0.72478   0.00000  Uiso   1.00
C832   C     0.15472   0.62798   0.27526   0.00000  Uiso   1.00
C833   C     0.12782   0.84544   0.72453   0.00000  Uiso   1.00
C834   C     0.37230   0.65444   0.27564   0.00000  Uiso   1.00
C835   C     0.15482   0.62808   0.72490   0.00000  Uiso   1.00
C836   C     0.34518   0.87191   0.27510   0.00000  Uiso   1.00
C837   C     0.37191   0.84518   0.27510   0.00000  Uiso   1.00
C838   C     0.21779   0.99304   0.91863   0.00000  Uiso   1.00
C839   C     0.12808   0.65482   0.72490   0.00000  Uiso   1.00
C840   C     0.34556   0.62770   0.27563   0.00000  Uiso   1.00
C841   C     0.15456   0.87218   0.72453   0.00000  Uiso   1.00
C842   C     0.12798   0.65472   0.27526   0.00000  Uiso   1.00
C843   C     0.37199   0.84526   0.72479   0.00000  Uiso   1.00
C844   C     0.15448   0.87227   0.27559   0.00000  Uiso   1.00
C845   C     0.34565   0.62761   0.72423   0.00000  Uiso   1.00
C846   C     0.46692   0.74341   0.45924   0.00000  Uiso   1.00
C847   C     0.03341   0.75270   0.54073   0.00000  Uiso   1.00
C848   C     0.24509   0.96683   0.45926   0.00000  Uiso   1.00
H849   H     0.11979   0.92705   0.20429   0.00000  Uiso   1.00
H850   H     0.38091   0.92773   0.20528   0.00000  Uiso   1.00
H851   H     0.12681   0.93078   0.92915   0.00000  Uiso   1.00
H852   H     0.37124   0.51798   0.03048   0.00000  Uiso   1.00
H853   H     0.34998   0.58322   0.02662   0.00000  Uiso   1.00
H854   H     0.37296   0.57036   0.07085   0.00000  Uiso   1.00
H855   H     0.32393   0.57312   0.06986   0.00000  Uiso   1.00
H856   H     0.04050   0.86486   0.96973   0.00000  Uiso   1.00
H857   H     0.47364   0.87882   0.97448   0.00000  Uiso   1.00
H858   H     0.46866   0.85123   0.93121   0.00000  Uiso   1.00
H859   H     0.49542   0.89241   0.92974   0.00000  Uiso   1.00
H860   H     0.48662   0.62908   0.03257   0.00000  Uiso   1.00
H861   H     0.07276   0.88040   0.79543   0.00000  Uiso   1.00
H862   H     0.42305   0.62632   0.03810   0.00000  Uiso   1.00
H863   H     0.42076   0.67391   0.05188   0.00000  Uiso   1.00
H864   H     0.43700   0.64033   0.08596   0.00000  Uiso   1.00
H865   H     0.42699   0.61986   0.20420   0.00000  Uiso   1.00
H866   H     0.38077   0.92760   0.79492   0.00000  Uiso   1.00
H867   H     0.11924   0.57242   0.20506   0.00000  Uiso   1.00
H868   H     0.42685   0.62000   0.79599   0.00000  Uiso   1.00
H869   H     0.07295   0.88021   0.20429   0.00000  Uiso   1.00
H870   H     0.36998   0.67686   0.70403   0.00000  Uiso   1.00
H871   H     0.13026   0.82291   0.29564   0.00000  Uiso   1.00
H872   H     0.32241   0.86924   0.70506   0.00000  Uiso   1.00
H873   H     0.38001   0.57315   0.79600   0.00000  Uiso   1.00
H874   H     0.17755   0.63073   0.29500   0.00000  Uiso   1.00
H875   H     0.13041   0.82274   0.70459   0.00000  Uiso   1.00
H876   H     0.36982   0.67703   0.29573   0.00000  Uiso   1.00
H877   H     0.17773   0.63090   0.70527   0.00000  Uiso   1.00
H878   H     0.32227   0.86909   0.29472   0.00000  Uiso   1.00
H879   H     0.36909   0.82227   0.29472   0.00000  Uiso   1.00
H880   H     0.13090   0.67772   0.70527   0.00000  Uiso   1.00
H881   H     0.32297   0.63019   0.29573   0.00000  Uiso   1.00
H882   H     0.17726   0.86958   0.70459   0.00000  Uiso   1.00
H883   H     0.13073   0.67755   0.29500   0.00000  Uiso   1.00
H884   H     0.07242   0.61924   0.20506   0.00000  Uiso   1.00
H885   H     0.36923   0.82241   0.70506   0.00000  Uiso   1.00
H886   H     0.17709   0.86976   0.29564   0.00000  Uiso   1.00
H887   H     0.32313   0.63002   0.70403   0.00000  Uiso   1.00
H888   H     0.05795   0.75600   0.40248   0.00000  Uiso   1.00
H889   H     0.44206   0.74309   0.59754   0.00000  Uiso   1.00
H890   H     0.25750   0.55784   0.40244   0.00000  Uiso   1.00
H891   H     0.24267   0.94221   0.59755   0.00000  Uiso   1.00
H892   H     0.44210   0.74247   0.40246   0.00000  Uiso   1.00
H893   H     0.05802   0.75549   0.59753   0.00000  Uiso   1.00
H894   H     0.24263   0.94217   0.40246   0.00000  Uiso   1.00
H895   H     0.42759   0.88077   0.79493   0.00000  Uiso   1.00
H896   H     0.25783   0.55785   0.59755   0.00000  Uiso   1.00
H897   H     0.19303   0.98783   0.90241   0.00000  Uiso   1.00
H898   H     0.30695   0.51274   0.09761   0.00000  Uiso   1.00
H899   H     0.01288   0.80674   0.90241   0.00000  Uiso   1.00
H900   H     0.48655   0.69320   0.09761   0.00000  Uiso   1.00
H901   H     0.30695   0.51267   0.90239   0.00000  Uiso   1.00
H902   H     0.19304   0.98780   0.09760   0.00000  Uiso   1.00
H903   H     0.48592   0.69330   0.90238   0.00000  Uiso   1.00
H904   H     0.01248   0.80689   0.09757   0.00000  Uiso   1.00
H905   H     0.37770   0.74394   0.46950   0.00000  Uiso   1.00
H906   H     0.38014   0.57301   0.20420   0.00000  Uiso   1.00
H907   H     0.39173   0.67675   0.47330   0.00000  Uiso   1.00
H908   H     0.41874   0.68401   0.43007   0.00000  Uiso   1.00
H909   H     0.37031   0.69210   0.42907   0.00000  Uiso   1.00
H910   H     0.12220   0.74841   0.53027   0.00000  Uiso   1.00
H911   H     0.11231   0.81594   0.52478   0.00000  Uiso   1.00
H912   H     0.13253   0.80067   0.56971   0.00000  Uiso   1.00
H913   H     0.08467   0.81155   0.56805   0.00000  Uiso   1.00
H914   H     0.24825   0.87797   0.46974   0.00000  Uiso   1.00
H915   H     0.18086   0.88886   0.47506   0.00000  Uiso   1.00
H916   H     0.19595   0.86838   0.43018   0.00000  Uiso   1.00
H917   H     0.11960   0.92724   0.79544   0.00000  Uiso   1.00
H918   H     0.18577   0.91640   0.43176   0.00000  Uiso   1.00
H919   H     0.25258   0.62205   0.53031   0.00000  Uiso   1.00
H920   H     0.31994   0.61093   0.52475   0.00000  Uiso   1.00
H921   H     0.31503   0.58345   0.56811   0.00000  Uiso   1.00
H922   H     0.30504   0.63151   0.56963   0.00000  Uiso   1.00
H923   H     0.11904   0.77598   0.46976   0.00000  Uiso   1.00
H924   H     0.12464   0.70789   0.47447   0.00000  Uiso   1.00
H925   H     0.14085   0.72785   0.42976   0.00000  Uiso   1.00
H926   H     0.09668   0.70639   0.43118   0.00000  Uiso   1.00
H927   H     0.37833   0.75011   0.53250   0.00000  Uiso   1.00
H928   H     0.42773   0.88091   0.20528   0.00000  Uiso   1.00
H929   H     0.36872   0.68721   0.53840   0.00000  Uiso   1.00
H930   H     0.38412   0.69988   0.58619   0.00000  Uiso   1.00
H931   H     0.41577   0.67988   0.55228   0.00000  Uiso   1.00
H932   H     0.27977   0.61842   0.46963   0.00000  Uiso   1.00
H933   H     0.21185   0.62528   0.47513   0.00000  Uiso   1.00
H934   H     0.20937   0.59739   0.43185   0.00000  Uiso   1.00
H935   H     0.23163   0.64116   0.43021   0.00000  Uiso   1.00
H936   H     0.22083   0.88156   0.53031   0.00000  Uiso   1.00
H937   H     0.28879   0.87484   0.52513   0.00000  Uiso   1.00
H938   H     0.26885   0.85895   0.56997   0.00000  Uiso   1.00
H939   H     0.07227   0.61909   0.79472   0.00000  Uiso   1.00
H940   H     0.29103   0.90276   0.56841   0.00000  Uiso   1.00
H941   H     0.37122   0.51164   0.96741   0.00000  Uiso   1.00
H942   H     0.37440   0.57515   0.96195   0.00000  Uiso   1.00
H943   H     0.32675   0.57781   0.94849   0.00000  Uiso   1.00
H944   H     0.36003   0.56146   0.91413   0.00000  Uiso   1.00
H945   H     0.12869   0.98945   0.03259   0.00000  Uiso   1.00
H946   H     0.12527   0.92597   0.03816   0.00000  Uiso   1.00
H947   H     0.13979   0.93965   0.08594   0.00000  Uiso   1.00
H948   H     0.17294   0.92314   0.05151   0.00000  Uiso   1.00
H949   H     0.48004   0.62911   0.96955   0.00000  Uiso   1.00
H950   H     0.11909   0.57227   0.79472   0.00000  Uiso   1.00
H951   H     0.41492   0.65078   0.97336   0.00000  Uiso   1.00
H952   H     0.42767   0.62767   0.92917   0.00000  Uiso   1.00
H953   H     0.42522   0.67671   0.93008   0.00000  Uiso   1.00
H954   H     0.01345   0.87140   0.03025   0.00000  Uiso   1.00
H955   H     0.07929   0.85343   0.02472   0.00000  Uiso   1.00
H956   H     0.07160   0.82657   0.06805   0.00000  Uiso   1.00
H957   H     0.06660   0.87541   0.06960   0.00000  Uiso   1.00
H958   H     0.12866   0.98317   0.96951   0.00000  Uiso   1.00
H959   H     0.14965   0.91787   0.97345   0.00000  Uiso   1.00
H960   H     0.17582   0.92782   0.93025   0.00000  Uiso   1.00
N961   N     0.40084   0.73185   0.45851   0.00000  Uiso   1.00
N962   N     0.15221   0.97660   0.04153   0.00000  Uiso   1.00
N963   N     0.47070   0.65348   0.95853   0.00000  Uiso   1.00
N964   N     0.02417   0.84761   0.04135   0.00000  Uiso   1.00
N965   N     0.15294   0.97359   0.95852   0.00000  Uiso   1.00
N966   N     0.34693   0.52746   0.04149   0.00000  Uiso   1.00
N967   N     0.02020   0.84851   0.95852   0.00000  Uiso   1.00
N968   N     0.47397   0.65270   0.04155   0.00000  Uiso   1.00
N969   N     0.09987   0.76193   0.54137   0.00000  Uiso   1.00
N970   N     0.23508   0.90049   0.45862   0.00000  Uiso   1.00
N971   N     0.26571   0.59949   0.54138   0.00000  Uiso   1.00
N972   N     0.10032   0.75784   0.45854   0.00000  Uiso   1.00
N973   N     0.40044   0.73501   0.54154   0.00000  Uiso   1.00
N974   N     0.26118   0.60005   0.45857   0.00000  Uiso   1.00
N975   N     0.23933   0.89997   0.54144   0.00000  Uiso   1.00
N976   N     0.34766   0.52442   0.95847   0.00000  Uiso   1.00
O977   O     0.25000   0.50000   0.25000   0.00000  Uiso   1.00
O978   O     0.25000   0.96964   0.66245   0.00000  Uiso   1.00
O979   O     0.46964   0.75000   0.33755   0.00000  Uiso   1.00
O980   O     0.03037   0.75000   0.66245   0.00000  Uiso   1.00
O981   O     0.00000   0.71963   0.83755   0.00000  Uiso   1.00
O982   O     0.00000   0.78037   0.16245   0.00000  Uiso   1.00
O983   O     0.28037   0.50000   0.83755   0.00000  Uiso   1.00
O984   O     0.21964   0.50000   0.16245   0.00000  Uiso   1.00
O985   O     0.00000   0.78036   0.83755   0.00000  Uiso   1.00
O986   O     0.00000   0.71963   0.16245   0.00000  Uiso   1.00
O987   O     0.21964   0.50000   0.83755   0.00000  Uiso   1.00
O988   O     0.25000   0.50000   0.75000   0.00000  Uiso   1.00
O989   O     0.28037   0.50000   0.16245   0.00000  Uiso   1.00
O990   O     0.20725   0.57307   0.27302   0.00000  Uiso   1.00
O991   O     0.29276   0.92693   0.72698   0.00000  Uiso   1.00
O992   O     0.42693   0.70724   0.27302   0.00000  Uiso   1.00
O993   O     0.07308   0.79276   0.72698   0.00000  Uiso   1.00
O994   O     0.29276   0.92693   0.27302   0.00000  Uiso   1.00
O995   O     0.20725   0.57307   0.72698   0.00000  Uiso   1.00
O996   O     0.07308   0.79276   0.27302   0.00000  Uiso   1.00
O997   O     0.42693   0.70724   0.72698   0.00000  Uiso   1.00
O998   O     0.20725   0.92693   0.72698   0.00000  Uiso   1.00
O999   O     0.00000   0.75000   0.25000   0.00000  Uiso   1.00
O1000  O     0.29276   0.57307   0.27302   0.00000  Uiso   1.00
O1001  O     0.42693   0.79275   0.72698   0.00000  Uiso   1.00
O1002  O     0.07308   0.70725   0.27302   0.00000  Uiso   1.00
O1003  O     0.29276   0.57307   0.72698   0.00000  Uiso   1.00
O1004  O     0.20725   0.92693   0.27302   0.00000  Uiso   1.00
O1005  O     0.07308   0.70725   0.72698   0.00000  Uiso   1.00
O1006  O     0.42693   0.79275   0.27302   0.00000  Uiso   1.00
O1007  O     0.45725   0.82307   0.77302   0.00000  Uiso   1.00
O1008  O     0.04276   0.67693   0.22698   0.00000  Uiso   1.00
O1009  O     0.17693   0.95725   0.77302   0.00000  Uiso   1.00
O1010  O     0.00000   0.75000   0.75000   0.00000  Uiso   1.00
O1011  O     0.32308   0.54275   0.22698   0.00000  Uiso   1.00
O1012  O     0.04276   0.67693   0.77302   0.00000  Uiso   1.00
O1013  O     0.45725   0.82307   0.22698   0.00000  Uiso   1.00
O1014  O     0.32308   0.54275   0.77302   0.00000  Uiso   1.00
O1015  O     0.17693   0.95725   0.22698   0.00000  Uiso   1.00
O1016  O     0.45725   0.67692   0.22698   0.00000  Uiso   1.00
O1017  O     0.04276   0.82308   0.77302   0.00000  Uiso   1.00
O1018  O     0.17693   0.54275   0.22698   0.00000  Uiso   1.00
O1019  O     0.32308   0.95725   0.77302   0.00000  Uiso   1.00
O1020  O     0.04276   0.82308   0.22698   0.00000  Uiso   1.00
O1021  O     0.25000   0.96964   0.33755   0.00000  Uiso   1.00
O1022  O     0.45725   0.67692   0.77302   0.00000  Uiso   1.00
O1023  O     0.32308   0.95725   0.22698   0.00000  Uiso   1.00
O1024  O     0.17693   0.54275   0.77302   0.00000  Uiso   1.00
O1025  O     0.25000   0.53036   0.66245   0.00000  Uiso   1.00
O1026  O     0.03037   0.75000   0.33755   0.00000  Uiso   1.00
O1027  O     0.46964   0.75000   0.66245   0.00000  Uiso   1.00
O1028  O     0.25000   0.53036   0.33755   0.00000  Uiso   1.00
Zn1029 Zn    0.20660   0.50000   0.21735   0.00000  Uiso   1.00
Zn1030 Zn    0.04341   0.75000   0.28265   0.00000  Uiso   1.00
Zn1031 Zn    0.25000   0.95660   0.71735   0.00000  Uiso   1.00
Zn1032 Zn    0.25000   0.54340   0.28265   0.00000  Uiso   1.00
Zn1033 Zn    0.04341   0.75000   0.71735   0.00000  Uiso   1.00
Zn1034 Zn    0.45660   0.75000   0.28265   0.00000  Uiso   1.00
Zn1035 Zn    0.25000   0.54340   0.71735   0.00000  Uiso   1.00
Zn1036 Zn    0.25000   0.95660   0.28265   0.00000  Uiso   1.00
Zn1037 Zn    0.29341   0.50000   0.78265   0.00000  Uiso   1.00
Zn1038 Zn    0.00000   0.70659   0.21735   0.00000  Uiso   1.00
Zn1039 Zn    0.00000   0.79340   0.78265   0.00000  Uiso   1.00
Zn1040 Zn    0.29341   0.50000   0.21735   0.00000  Uiso   1.00
Zn1041 Zn    0.20660   0.50000   0.78265   0.00000  Uiso   1.00
Zn1042 Zn    0.00000   0.79340   0.21735   0.00000  Uiso   1.00
Zn1043 Zn    0.00000   0.70660   0.78265   0.00000  Uiso   1.00
Zn1044 Zn    0.45660   0.75000   0.71735   0.00000  Uiso   1.00
C1045  C     0.53290   0.75227   0.41865   0.00000  Uiso   1.00
C1046  C     0.78218   0.50756   0.08138   0.00000  Uiso   1.00
C1047  C     0.75544   0.53318   0.54075   0.00000  Uiso   1.00
C1048  C     0.53355   0.75142   0.45924   0.00000  Uiso   1.00
C1049  C     0.96684   0.74417   0.54075   0.00000  Uiso   1.00
C1050  C     0.75367   0.53339   0.45925   0.00000  Uiso   1.00
C1051  C     0.74677   0.96664   0.54075   0.00000  Uiso   1.00
C1052  C     0.78261   0.50816   0.95924   0.00000  Uiso   1.00
C1053  C     0.71732   0.99261   0.04076   0.00000  Uiso   1.00
C1054  C     0.98987   0.71779   0.95922   0.00000  Uiso   1.00
C1055  C     0.50693   0.78275   0.04074   0.00000  Uiso   1.00
C1056  C     0.71740   0.99224   0.95925   0.00000  Uiso   1.00
C1057  C     0.50625   0.78232   0.91862   0.00000  Uiso   1.00
C1058  C     0.78253   0.50856   0.04077   0.00000  Uiso   1.00
C1059  C     0.50564   0.78303   0.95923   0.00000  Uiso   1.00
C1060  C     0.99066   0.71763   0.04077   0.00000  Uiso   1.00
C1061  C     0.59814   0.84811   0.24997   0.00000  Uiso   1.00
C1062  C     0.90187   0.65188   0.75001   0.00000  Uiso   1.00
C1063  C     0.65186   0.59812   0.25002   0.00000  Uiso   1.00
C1064  C     0.84813   0.90187   0.74999   0.00000  Uiso   1.00
C1065  C     0.90186   0.65188   0.24997   0.00000  Uiso   1.00
C1066  C     0.59813   0.84813   0.75001   0.00000  Uiso   1.00
C1067  C     0.84813   0.90187   0.25000   0.00000  Uiso   1.00
C1068  C     0.99196   0.71790   0.08138   0.00000  Uiso   1.00
C1069  C     0.65187   0.59813   0.75000   0.00000  Uiso   1.00
C1070  C     0.59813   0.65187   0.75000   0.00000  Uiso   1.00
C1071  C     0.90187   0.84813   0.25000   0.00000  Uiso   1.00
C1072  C     0.65188   0.90187   0.75001   0.00000  Uiso   1.00
C1073  C     0.84811   0.59814   0.24997   0.00000  Uiso   1.00
C1074  C     0.90187   0.84813   0.75000   0.00000  Uiso   1.00
C1075  C     0.59812   0.65186   0.25002   0.00000  Uiso   1.00
C1076  C     0.84812   0.59813   0.75001   0.00000  Uiso   1.00
C1077  C     0.65189   0.90186   0.24997   0.00000  Uiso   1.00
C1078  C     0.50022   0.74755   0.47965   0.00000  Uiso   1.00
C1079  C     0.78224   0.50730   0.91862   0.00000  Uiso   1.00
C1080  C     0.50017   0.74801   0.52033   0.00000  Uiso   1.00
C1081  C     0.74983   0.50006   0.47966   0.00000  Uiso   1.00
C1082  C     0.75067   0.99996   0.52034   0.00000  Uiso   1.00
C1083  C     0.74998   0.50035   0.97966   0.00000  Uiso   1.00
C1084  C     0.74996   0.50046   0.02035   0.00000  Uiso   1.00
C1085  C     0.99790   0.75038   0.97965   0.00000  Uiso   1.00
C1086  C     0.99837   0.75028   0.02034   0.00000  Uiso   1.00
C1087  C     0.89523   0.69421   0.44726   0.00000  Uiso   1.00
C1088  C     0.60763   0.79949   0.55139   0.00000  Uiso   1.00
C1089  C     0.69744   0.89327   0.44849   0.00000  Uiso   1.00
C1090  C     0.71774   0.99324   0.08137   0.00000  Uiso   1.00
C1091  C     0.80341   0.60660   0.55138   0.00000  Uiso   1.00
C1092  C     0.61635   0.72314   0.44805   0.00000  Uiso   1.00
C1093  C     0.89200   0.69856   0.55513   0.00000  Uiso   1.00
C1094  C     0.72666   0.61673   0.44852   0.00000  Uiso   1.00
C1095  C     0.77384   0.88337   0.55166   0.00000  Uiso   1.00
C1096  C     0.85227   0.56166   0.94525   0.00000  Uiso   1.00
C1097  C     0.64749   0.93939   0.05480   0.00000  Uiso   1.00
C1098  C     0.93265   0.65221   0.94731   0.00000  Uiso   1.00
C1099  C     0.56241   0.85080   0.05134   0.00000  Uiso   1.00
C1100  C     0.65134   0.93554   0.94737   0.00000  Uiso   1.00
C1101  C     0.99117   0.71805   0.91861   0.00000  Uiso   1.00
C1102  C     0.84841   0.56551   0.05267   0.00000  Uiso   1.00
C1103  C     0.98773   0.86870   0.94805   0.00000  Uiso   1.00
C1104  C     0.93675   0.64827   0.05489   0.00000  Uiso   1.00
C1105  C     0.50680   0.78223   0.08135   0.00000  Uiso   1.00
C1106  C     0.50005   0.74908   0.39841   0.00000  Uiso   1.00
C1107  C     0.50002   0.74949   0.60158   0.00000  Uiso   1.00
C1108  C     0.74974   0.50004   0.39841   0.00000  Uiso   1.00
C1109  C     0.96725   0.74547   0.58134   0.00000  Uiso   1.00
C1110  C     0.75049   0.99999   0.60159   0.00000  Uiso   1.00
C1111  C     0.75002   0.50012   0.89840   0.00000  Uiso   1.00
C1112  C     0.74999   0.50025   0.10160   0.00000  Uiso   1.00
C1113  C     0.99921   0.75008   0.89840   0.00000  Uiso   1.00
C1114  C     0.99965   0.75002   0.10159   0.00000  Uiso   1.00
C1115  C     0.93377   0.73842   0.47953   0.00000  Uiso   1.00
C1116  C     0.56667   0.75676   0.52043   0.00000  Uiso   1.00
C1117  C     0.74066   0.93363   0.47956   0.00000  Uiso   1.00
C1118  C     0.75996   0.56637   0.52044   0.00000  Uiso   1.00
C1119  C     0.56686   0.75507   0.47952   0.00000  Uiso   1.00
C1120  C     0.75376   0.53280   0.41864   0.00000  Uiso   1.00
C1121  C     0.93369   0.73925   0.52047   0.00000  Uiso   1.00
C1122  C     0.75803   0.56661   0.47954   0.00000  Uiso   1.00
C1123  C     0.74250   0.93340   0.52047   0.00000  Uiso   1.00
C1124  C     0.81506   0.51656   0.97953   0.00000  Uiso   1.00
C1125  C     0.68484   0.98436   0.02048   0.00000  Uiso   1.00
C1126  C     0.98105   0.68544   0.97953   0.00000  Uiso   1.00
C1127  C     0.51501   0.81527   0.02042   0.00000  Uiso   1.00
C1128  C     0.68498   0.98368   0.97953   0.00000  Uiso   1.00
C1129  C     0.81492   0.51727   0.02048   0.00000  Uiso   1.00
C1130  C     0.51334   0.81565   0.97951   0.00000  Uiso   1.00
C1131  C     0.74651   0.96723   0.58136   0.00000  Uiso   1.00
C1132  C     0.98192   0.68527   0.02048   0.00000  Uiso   1.00
C1133  C     0.74998   0.50001   0.35597   0.00000  Uiso   1.00
C1134  C     0.75006   0.50000   0.64403   0.00000  Uiso   1.00
C1135  C     0.50000   0.74992   0.35597   0.00000  Uiso   1.00
C1136  C     0.50000   0.74995   0.64403   0.00000  Uiso   1.00
C1137  C     0.99993   0.75000   0.85596   0.00000  Uiso   1.00
C1138  C     0.99997   0.75000   0.14403   0.00000  Uiso   1.00
C1139  C     0.75000   0.50004   0.85596   0.00000  Uiso   1.00
C1140  C     0.75000   0.50004   0.14404   0.00000  Uiso   1.00
C1141  C     0.67993   0.57006   0.25000   0.00000  Uiso   1.00
C1142  C     0.96733   0.74472   0.41864   0.00000  Uiso   1.00
C1143  C     0.82006   0.92994   0.75000   0.00000  Uiso   1.00
C1144  C     0.92994   0.67994   0.24999   0.00000  Uiso   1.00
C1145  C     0.57006   0.82006   0.75000   0.00000  Uiso   1.00
C1146  C     0.82006   0.92994   0.25000   0.00000  Uiso   1.00
C1147  C     0.67994   0.57006   0.75000   0.00000  Uiso   1.00
C1148  C     0.57006   0.82006   0.24999   0.00000  Uiso   1.00
C1149  C     0.92994   0.67994   0.75000   0.00000  Uiso   1.00
C1150  C     0.67994   0.92994   0.75000   0.00000  Uiso   1.00
C1151  C     0.82006   0.57006   0.24999   0.00000  Uiso   1.00
C1152  C     0.92994   0.82006   0.75000   0.00000  Uiso   1.00
C1153  C     0.53285   0.75278   0.58134   0.00000  Uiso   1.00
C1154  C     0.57006   0.67993   0.25000   0.00000  Uiso   1.00
C1155  C     0.82006   0.57006   0.75000   0.00000  Uiso   1.00
C1156  C     0.67994   0.92994   0.24999   0.00000  Uiso   1.00
C1157  C     0.57006   0.67994   0.75000   0.00000  Uiso   1.00
C1158  C     0.92994   0.82006   0.25000   0.00000  Uiso   1.00
C1159  C     0.62230   0.90444   0.22435   0.00000  Uiso   1.00
C1160  C     0.87759   0.59567   0.77580   0.00000  Uiso   1.00
C1161  C     0.59526   0.62199   0.22480   0.00000  Uiso   1.00
C1162  C     0.90475   0.87801   0.77521   0.00000  Uiso   1.00
C1163  C     0.87766   0.59560   0.22430   0.00000  Uiso   1.00
C1164  C     0.74547   0.96732   0.41865   0.00000  Uiso   1.00
C1165  C     0.62219   0.90455   0.77549   0.00000  Uiso   1.00
C1166  C     0.90482   0.87809   0.22491   0.00000  Uiso   1.00
C1167  C     0.59518   0.62191   0.77509   0.00000  Uiso   1.00
C1168  C     0.62191   0.59518   0.77509   0.00000  Uiso   1.00
C1169  C     0.87809   0.90482   0.22491   0.00000  Uiso   1.00
C1170  C     0.59545   0.87781   0.77549   0.00000  Uiso   1.00
C1171  C     0.90440   0.62234   0.22430   0.00000  Uiso   1.00
C1172  C     0.87801   0.90475   0.77520   0.00000  Uiso   1.00
C1173  C     0.62199   0.59526   0.22480   0.00000  Uiso   1.00
C1174  C     0.90433   0.62241   0.77580   0.00000  Uiso   1.00
C1175  C     0.75495   0.53269   0.58136   0.00000  Uiso   1.00
C1176  C     0.59556   0.87770   0.22435   0.00000  Uiso   1.00
C1177  C     0.87239   0.65435   0.72422   0.00000  Uiso   1.00
C1178  C     0.62774   0.84552   0.27559   0.00000  Uiso   1.00
C1179  C     0.84526   0.87199   0.72478   0.00000  Uiso   1.00
C1180  C     0.65472   0.62798   0.27526   0.00000  Uiso   1.00
C1181  C     0.62782   0.84544   0.72453   0.00000  Uiso   1.00
C1182  C     0.87230   0.65444   0.27564   0.00000  Uiso   1.00
C1183  C     0.65482   0.62808   0.72490   0.00000  Uiso   1.00
C1184  C     0.84518   0.87191   0.27510   0.00000  Uiso   1.00
C1185  C     0.87191   0.84518   0.27510   0.00000  Uiso   1.00
C1186  C     0.71779   0.99304   0.91863   0.00000  Uiso   1.00
C1187  C     0.62808   0.65482   0.72490   0.00000  Uiso   1.00
C1188  C     0.84556   0.62770   0.27563   0.00000  Uiso   1.00
C1189  C     0.65456   0.87218   0.72453   0.00000  Uiso   1.00
C1190  C     0.62798   0.65472   0.27526   0.00000  Uiso   1.00
C1191  C     0.87199   0.84526   0.72479   0.00000  Uiso   1.00
C1192  C     0.65448   0.87227   0.27559   0.00000  Uiso   1.00
C1193  C     0.84565   0.62761   0.72423   0.00000  Uiso   1.00
C1194  C     0.96692   0.74341   0.45924   0.00000  Uiso   1.00
C1195  C     0.53341   0.75270   0.54073   0.00000  Uiso   1.00
C1196  C     0.74509   0.96683   0.45926   0.00000  Uiso   1.00
H1197  H     0.61979   0.92705   0.20429   0.00000  Uiso   1.00
H1198  H     0.88091   0.92773   0.20528   0.00000  Uiso   1.00
H1199  H     0.62681   0.93078   0.92915   0.00000  Uiso   1.00
H1200  H     0.87124   0.51798   0.03048   0.00000  Uiso   1.00
H1201  H     0.84998   0.58322   0.02662   0.00000  Uiso   1.00
H1202  H     0.87296   0.57036   0.07085   0.00000  Uiso   1.00
H1203  H     0.82393   0.57312   0.06986   0.00000  Uiso   1.00
H1204  H     0.54050   0.86486   0.96973   0.00000  Uiso   1.00
H1205  H     0.97364   0.87882   0.97448   0.00000  Uiso   1.00
H1206  H     0.96866   0.85123   0.93121   0.00000  Uiso   1.00
H1207  H     0.99542   0.89241   0.92974   0.00000  Uiso   1.00
H1208  H     0.98662   0.62908   0.03257   0.00000  Uiso   1.00
H1209  H     0.57276   0.88040   0.79543   0.00000  Uiso   1.00
H1210  H     0.92305   0.62632   0.03810   0.00000  Uiso   1.00
H1211  H     0.92076   0.67391   0.05188   0.00000  Uiso   1.00
H1212  H     0.93700   0.64033   0.08596   0.00000  Uiso   1.00
H1213  H     0.92699   0.61986   0.20420   0.00000  Uiso   1.00
H1214  H     0.88077   0.92760   0.79492   0.00000  Uiso   1.00
H1215  H     0.61924   0.57242   0.20506   0.00000  Uiso   1.00
H1216  H     0.92685   0.62000   0.79599   0.00000  Uiso   1.00
H1217  H     0.57295   0.88021   0.20429   0.00000  Uiso   1.00
H1218  H     0.86998   0.67686   0.70403   0.00000  Uiso   1.00
H1219  H     0.63026   0.82291   0.29564   0.00000  Uiso   1.00
H1220  H     0.82241   0.86924   0.70506   0.00000  Uiso   1.00
H1221  H     0.88001   0.57315   0.79600   0.00000  Uiso   1.00
H1222  H     0.67755   0.63073   0.29500   0.00000  Uiso   1.00
H1223  H     0.63041   0.82274   0.70459   0.00000  Uiso   1.00
H1224  H     0.86982   0.67703   0.29573   0.00000  Uiso   1.00
H1225  H     0.67773   0.63090   0.70527   0.00000  Uiso   1.00
H1226  H     0.82227   0.86909   0.29472   0.00000  Uiso   1.00
H1227  H     0.86909   0.82227   0.29472   0.00000  Uiso   1.00
H1228  H     0.63090   0.67772   0.70527   0.00000  Uiso   1.00
H1229  H     0.82297   0.63019   0.29573   0.00000  Uiso   1.00
H1230  H     0.67726   0.86958   0.70459   0.00000  Uiso   1.00
H1231  H     0.63073   0.67755   0.29500   0.00000  Uiso   1.00
H1232  H     0.57242   0.61924   0.20506   0.00000  Uiso   1.00
H1233  H     0.86923   0.82241   0.70506   0.00000  Uiso   1.00
H1234  H     0.67709   0.86976   0.29564   0.00000  Uiso   1.00
H1235  H     0.82313   0.63002   0.70403   0.00000  Uiso   1.00
H1236  H     0.55795   0.75600   0.40248   0.00000  Uiso   1.00
H1237  H     0.94206   0.74309   0.59754   0.00000  Uiso   1.00
H1238  H     0.75750   0.55784   0.40244   0.00000  Uiso   1.00
H1239  H     0.74267   0.94221   0.59755   0.00000  Uiso   1.00
H1240  H     0.94210   0.74247   0.40246   0.00000  Uiso   1.00
H1241  H     0.55802   0.75549   0.59753   0.00000  Uiso   1.00
H1242  H     0.74263   0.94217   0.40246   0.00000  Uiso   1.00
H1243  H     0.92759   0.88077   0.79493   0.00000  Uiso   1.00
H1244  H     0.75783   0.55785   0.59755   0.00000  Uiso   1.00
H1245  H     0.69303   0.98783   0.90241   0.00000  Uiso   1.00
H1246  H     0.80695   0.51274   0.09761   0.00000  Uiso   1.00
H1247  H     0.51288   0.80674   0.90241   0.00000  Uiso   1.00
H1248  H     0.98655   0.69320   0.09761   0.00000  Uiso   1.00
H1249  H     0.80695   0.51267   0.90239   0.00000  Uiso   1.00
H1250  H     0.69304   0.98780   0.09760   0.00000  Uiso   1.00
H1251  H     0.98592   0.69330   0.90238   0.00000  Uiso   1.00
H1252  H     0.51248   0.80689   0.09757   0.00000  Uiso   1.00
H1253  H     0.87770   0.74394   0.46950   0.00000  Uiso   1.00
H1254  H     0.88014   0.57301   0.20420   0.00000  Uiso   1.00
H1255  H     0.89173   0.67675   0.47330   0.00000  Uiso   1.00
H1256  H     0.91874   0.68401   0.43007   0.00000  Uiso   1.00
H1257  H     0.87031   0.69210   0.42907   0.00000  Uiso   1.00
H1258  H     0.62220   0.74841   0.53027   0.00000  Uiso   1.00
H1259  H     0.61231   0.81594   0.52478   0.00000  Uiso   1.00
H1260  H     0.63253   0.80067   0.56971   0.00000  Uiso   1.00
H1261  H     0.58467   0.81155   0.56805   0.00000  Uiso   1.00
H1262  H     0.74825   0.87797   0.46974   0.00000  Uiso   1.00
H1263  H     0.68086   0.88886   0.47506   0.00000  Uiso   1.00
H1264  H     0.69595   0.86838   0.43018   0.00000  Uiso   1.00
H1265  H     0.61960   0.92724   0.79544   0.00000  Uiso   1.00
H1266  H     0.68577   0.91640   0.43176   0.00000  Uiso   1.00
H1267  H     0.75258   0.62205   0.53031   0.00000  Uiso   1.00
H1268  H     0.81994   0.61093   0.52475   0.00000  Uiso   1.00
H1269  H     0.81503   0.58345   0.56811   0.00000  Uiso   1.00
H1270  H     0.80504   0.63151   0.56963   0.00000  Uiso   1.00
H1271  H     0.61904   0.77598   0.46976   0.00000  Uiso   1.00
H1272  H     0.62464   0.70789   0.47447   0.00000  Uiso   1.00
H1273  H     0.64085   0.72785   0.42976   0.00000  Uiso   1.00
H1274  H     0.59668   0.70639   0.43118   0.00000  Uiso   1.00
H1275  H     0.87833   0.75011   0.53250   0.00000  Uiso   1.00
H1276  H     0.92773   0.88091   0.20528   0.00000  Uiso   1.00
H1277  H     0.86872   0.68721   0.53840   0.00000  Uiso   1.00
H1278  H     0.88412   0.69988   0.58619   0.00000  Uiso   1.00
H1279  H     0.91577   0.67988   0.55228   0.00000  Uiso   1.00
H1280  H     0.77977   0.61842   0.46963   0.00000  Uiso   1.00
H1281  H     0.71185   0.62528   0.47513   0.00000  Uiso   1.00
H1282  H     0.70937   0.59739   0.43185   0.00000  Uiso   1.00
H1283  H     0.73163   0.64116   0.43021   0.00000  Uiso   1.00
H1284  H     0.72083   0.88156   0.53031   0.00000  Uiso   1.00
H1285  H     0.78879   0.87484   0.52513   0.00000  Uiso   1.00
H1286  H     0.76885   0.85895   0.56997   0.00000  Uiso   1.00
H1287  H     0.57227   0.61909   0.79472   0.00000  Uiso   1.00
H1288  H     0.79103   0.90276   0.56841   0.00000  Uiso   1.00
H1289  H     0.87122   0.51164   0.96741   0.00000  Uiso   1.00
H1290  H     0.87440   0.57515   0.96195   0.00000  Uiso   1.00
H1291  H     0.82675   0.57781   0.94849   0.00000  Uiso   1.00
H1292  H     0.86003   0.56146   0.91413   0.00000  Uiso   1.00
H1293  H     0.62869   0.98945   0.03259   0.00000  Uiso   1.00
H1294  H     0.62527   0.92597   0.03816   0.00000  Uiso   1.00
H1295  H     0.63979   0.93965   0.08594   0.00000  Uiso   1.00
H1296  H     0.67294   0.92314   0.05151   0.00000  Uiso   1.00
H1297  H     0.98004   0.62911   0.96955   0.00000  Uiso   1.00
H1298  H     0.61909   0.57227   0.79472   0.00000  Uiso   1.00
H1299  H     0.91492   0.65078   0.97336   0.00000  Uiso   1.00
H1300  H     0.92767   0.62767   0.92917   0.00000  Uiso   1.00
H1301  H     0.92522   0.67671   0.93008   0.00000  Uiso   1.00
H1302  H     0.51345   0.87140   0.03025   0.00000  Uiso   1.00
H1303  H     0.57929   0.85343   0.02472   0.00000  Uiso   1.00
H1304  H     0.57160   0.82657   0.06805   0.00000  Uiso   1.00
H1305  H     0.56660   0.87541   0.06960   0.00000  Uiso   1.00
H1306  H     0.62866   0.98317   0.96951   0.00000  Uiso   1.00
H1307  H     0.64965   0.91787   0.97345   0.00000  Uiso   1.00
H1308  H     0.67582   0.92782   0.93025   0.00000  Uiso   1.00
N1309  N     0.90084   0.73185   0.45851   0.00000  Uiso   1.00
N1310  N     0.65221   0.97660   0.04153   0.00000  Uiso   1.00
N1311  N     0.97070   0.65348   0.95853   0.00000  Uiso   1.00
N1312  N     0.52417   0.84761   0.04135   0.00000  Uiso   1.00
N1313  N     0.65294   0.97359   0.95852   0.00000  Uiso   1.00
N1314  N     0.84693   0.52746   0.04149   0.00000  Uiso   1.00
N1315  N     0.52020   0.84851   0.95852   0.00000  Uiso   1.00
N1316  N     0.97397   0.65270   0.04155   0.00000  Uiso   1.00
N1317  N     0.59987   0.76193   0.54137   0.00000  Uiso   1.00
N1318  N     0.73508   0.90049   0.45862   0.00000  Uiso   1.00
N1319  N     0.76571   0.59949   0.54138   0.00000  Uiso   1.00
N1320  N     0.60032   0.75784   0.45854   0.00000  Uiso   1.00
N1321  N     0.90044   0.73501   0.54154   0.00000  Uiso   1.00
N1322  N     0.76118   0.60005   0.45857   0.00000  Uiso   1.00
N1323  N     0.73933   0.89997   0.54144   0.00000  Uiso   1.00
N1324  N     0.84766   0.52442   0.95847   0.00000  Uiso   1.00
O1325  O     0.75000   0.50000   0.25000   0.00000  Uiso   1.00
O1326  O     0.75000   0.96964   0.66245   0.00000  Uiso   1.00
O1327  O     0.96964   0.75000   0.33755   0.00000  Uiso   1.00
O1328  O     0.53037   0.75000   0.66245   0.00000  Uiso   1.00
O1329  O     0.50000   0.71963   0.83755   0.00000  Uiso   1.00
O1330  O     0.50000   0.78037   0.16245   0.00000  Uiso   1.00
O1331  O     0.78037   0.50000   0.83755   0.00000  Uiso   1.00
O1332  O     0.71964   0.50000   0.16245   0.00000  Uiso   1.00
O1333  O     0.50000   0.78036   0.83755   0.00000  Uiso   1.00
O1334  O     0.50000   0.71963   0.16245   0.00000  Uiso   1.00
O1335  O     0.71964   0.50000   0.83755   0.00000  Uiso   1.00
O1336  O     0.75000   0.50000   0.75000   0.00000  Uiso   1.00
O1337  O     0.78037   0.50000   0.16245   0.00000  Uiso   1.00
O1338  O     0.70725   0.57307   0.27302   0.00000  Uiso   1.00
O1339  O     0.79276   0.92693   0.72698   0.00000  Uiso   1.00
O1340  O     0.92693   0.70724   0.27302   0.00000  Uiso   1.00
O1341  O     0.57308   0.79276   0.72698   0.00000  Uiso   1.00
O1342  O     0.79276   0.92693   0.27302   0.00000  Uiso   1.00
O1343  O     0.70725   0.57307   0.72698   0.00000  Uiso   1.00
O1344  O     0.57308   0.79276   0.27302   0.00000  Uiso   1.00
O1345  O     0.92693   0.70724   0.72698   0.00000  Uiso   1.00
O1346  O     0.70725   0.92693   0.72698   0.00000  Uiso   1.00
O1347  O     0.50000   0.75000   0.25000   0.00000  Uiso   1.00
O1348  O     0.79276   0.57307   0.27302   0.00000  Uiso   1.00
O1349  O     0.92693   0.79275   0.72698   0.00000  Uiso   1.00
O1350  O     0.57308   0.70725   0.27302   0.00000  Uiso   1.00
O1351  O     0.79276   0.57307   0.72698   0.00000  Uiso   1.00
O1352  O     0.70725   0.92693   0.27302   0.00000  Uiso   1.00
O1353  O     0.57308   0.70725   0.72698   0.00000  Uiso   1.00
O1354  O     0.92693   0.79275   0.27302   0.00000  Uiso   1.00
O1355  O     0.95725   0.82307   0.77302   0.00000  Uiso   1.00
O1356  O     0.54276   0.67693   0.22698   0.00000  Uiso   1.00
O1357  O     0.67693   0.95725   0.77302   0.00000  Uiso   1.00
O1358  O     0.50000   0.75000   0.75000   0.00000  Uiso   1.00
O1359  O     0.82308   0.54275   0.22698   0.00000  Uiso   1.00
O1360  O     0.54276   0.67693   0.77302   0.00000  Uiso   1.00
O1361  O     0.95725   0.82307   0.22698   0.00000  Uiso   1.00
O1362  O     0.82308   0.54275   0.77302   0.00000  Uiso   1.00
O1363  O     0.67693   0.95725   0.22698   0.00000  Uiso   1.00
O1364  O     0.95725   0.67692   0.22698   0.00000  Uiso   1.00
O1365  O     0.54276   0.82308   0.77302   0.00000  Uiso   1.00
O1366  O     0.67693   0.54275   0.22698   0.00000  Uiso   1.00
O1367  O     0.82308   0.95725   0.77302   0.00000  Uiso   1.00
O1368  O     0.54276   0.82308   0.22698   0.00000  Uiso   1.00
O1369  O     0.75000   0.96964   0.33755   0.00000  Uiso   1.00
O1370  O     0.95725   0.67692   0.77302   0.00000  Uiso   1.00
O1371  O     0.82308   0.95725   0.22698   0.00000  Uiso   1.00
O1372  O     0.67693   0.54275   0.77302   0.00000  Uiso   1.00
O1373  O     0.75000   0.53036   0.66245   0.00000  Uiso   1.00
O1374  O     0.53037   0.75000   0.33755   0.00000  Uiso   1.00
O1375  O     0.96964   0.75000   0.66245   0.00000  Uiso   1.00
O1376  O     0.75000   0.53036   0.33755   0.00000  Uiso   1.00
Zn1377 Zn    0.70660   0.50000   0.21735   0.00000  Uiso   1.00
Zn1378 Zn    0.54341   0.75000   0.28265   0.00000  Uiso   1.00
Zn1379 Zn    0.75000   0.95660   0.71735   0.00000  Uiso   1.00
Zn1380 Zn    0.75000   0.54340   0.28265   0.00000  Uiso   1.00
Zn1381 Zn    0.54341   0.75000   0.71735   0.00000  Uiso   1.00
Zn1382 Zn    0.95660   0.75000   0.28265   0.00000  Uiso   1.00
Zn1383 Zn    0.75000   0.54340   0.71735   0.00000  Uiso   1.00
Zn1384 Zn    0.75000   0.95660   0.28265   0.00000  Uiso   1.00
Zn1385 Zn    0.79341   0.50000   0.78265   0.00000  Uiso   1.00
Zn1386 Zn    0.50000   0.70659   0.21735   0.00000  Uiso   1.00
Zn1387 Zn    0.50000   0.79340   0.78265   0.00000  Uiso   1.00
Zn1388 Zn    0.79341   0.50000   0.21735   0.00000  Uiso   1.00
Zn1389 Zn    0.70660   0.50000   0.78265   0.00000  Uiso   1.00
Zn1390 Zn    0.50000   0.79340   0.21735   0.00000  Uiso   1.00
Zn1391 Zn    0.50000   0.70660   0.78265   0.00000  Uiso   1.00
Zn1392 Zn    0.95660   0.75000   0.71735   0.00000  Uiso   1.00
loop_
_geom_bond_atom_site_label_1
_geom_bond_atom_site_label_2
_geom_bond_distance
_geom_bond_site_symmetry_2
_ccdc_geom_bond_type
C1     H192    1.083   .     S
C1     C62     1.396   .     A
C1     C4      1.399   .     A
C2     H202    1.083   .     S
C2     C14     1.400   .     A
C2     C68     1.396   .     A
C3     C131    1.400   .     A
C3     C74     1.413   .     A
C3     C734    1.417   1_545 S
C4     C75     1.413   .     A
C4     C34     1.417   .     A
C5     C77     1.413   .     A
C5     C65     1.400   .     A
C5     C384    1.417   .     S
C6     C78     1.413   .     A
C6     C76     1.400   .     A
C6     C37     1.417   .     A
C7     C79     1.413   .     A
C7     C87     1.399   .     A
C7     C38     1.417   .     A
C8     C35     1.400   .     A
C8     C39     1.417   .     A
C8     C80     1.413   .     A
C9     C46     1.400   .     A
C9     C81     1.413   .     A
C9     C736    1.417   .     S
C10    C41     1.417   .     A
C10    C82     1.414   .     A
C10    C57     1.401   .     A
C11    C61     1.400   .     A
C11    C83     1.413   .     A
C11    C390    1.417   1_455 S
C12    C84     1.414   .     A
C12    C142    1.400   .     A
C12    C735    1.417   .     S
C13    H203    1.083   .     S
C13    C15     1.400   .     A
C13    C417    1.396   1_455 S
C14    C85     1.414   .     A
C14    C40     1.417   .     A
C15    C86     1.413   .     A
C15    C389    1.417   1_455 S
C16    C88     1.413   .     A
C16    C24     1.400   .     A
C16    C42     1.417   .     A
C17    C104    1.454   .     S
C17    C132    1.402   .     A
C17    C134    1.402   .     A
C18    C133    1.402   .     A
C18    C130    1.402   .     A
C18    C105    1.454   .     S
C19    C129    1.402   .     A
C19    C136    1.402   .     A
C19    C97     1.455   .     S
C20    C99     1.455   .     S
C20    C128    1.402   .     A
C20    C135    1.402   .     A
C21    C138    1.402   .     A
C21    C127    1.402   .     A
C21    C100    1.454   .     S
C22    C137    1.402   .     A
C22    C101    1.454   .     S
C22    C126    1.402   .     A
C23    C140    1.402   .     A
C23    C102    1.455   .     S
C23    C125    1.402   .     A
C24    C70     1.396   .     A
C24    H204    1.082   .     S
C25    C139    1.402   .     A
C25    C103    1.455   .     S
C25    C124    1.402   .     A
C26    C123    1.402   .     A
C26    C143    1.402   .     A
C26    C113    1.455   .     S
C27    C141    1.402   .     A
C27    C122    1.402   .     A
C27    C114    1.455   .     S
C28    C145    1.402   .     A
C28    C106    1.454   .     S
C28    C121    1.402   .     A
C29    C119    1.402   .     A
C29    C144    1.402   .     A
C29    C107    1.454   .     S
C30    C147    1.402   .     A
C30    C118    1.402   .     A
C30    C108    1.455   .     S
C31    C110    1.455   .     S
C31    C117    1.402   .     A
C31    C146    1.402   .     A
C32    C116    1.402   .     A
C32    C111    1.454   .     S
C32    C149    1.402   .     A
C33    C115    1.402   .     A
C33    C148    1.402   .     A
C33    C112    1.454   .     S
C34    C36     1.402   .     A
C34    C498    1.417   1_455 S
C35    C67     1.396   .     A
C35    H205    1.082   .     S
C36    C151    1.417   .     A
C36    C353    1.417   1_455 S
C37    C734    1.402   1_545 S
C37    C848    1.417   1_545 S
C38    C699    1.417   .     S
C38    C733    1.402   .     S
C39    C708    1.417   1_545 S
C39    C40     1.402   1_556 S
C40    C705    1.417   1_545 S
C40    C39     1.402   1_554 S
C41    C363    1.417   .     S
C41    C42     1.402   1_556 S
C42    C359    1.417   .     S
C42    C41     1.402   1_554 S
C43    H211    1.110   .     S
C43    N265    1.447   .     S
C43    H212    1.111   .     S
C43    H213    1.110   .     S
C44    H216    1.110   .     S
C44    N273    1.448   .     S
C44    H217    1.111   .     S
C44    H215    1.111   .     S
C45    H222    1.111   .     S
C45    N274    1.447   .     S
C45    H220    1.110   .     S
C45    H219    1.111   .     S
C46    H206    1.082   .     S
C46    C764    1.396   .     S
C47    H226    1.110   .     S
C47    H225    1.111   .     S
C47    H224    1.111   .     S
C47    N275    1.448   .     S
C48    H228    1.111   .     S
C48    H229    1.110   .     S
C48    N276    1.447   .     S
C48    H230    1.111   .     S
C49    H234    1.110   .     S
C49    N277    1.449   .     S
C49    H233    1.110   .     S
C49    H235    1.113   .     S
C50    H239    1.110   .     S
C50    H237    1.111   .     S
C50    N278    1.447   .     S
C50    H238    1.111   .     S
C51    H244    1.111   .     S
C51    H242    1.110   .     S
C51    H241    1.111   .     S
C51    N279    1.447   .     S
C52    H248    1.110   .     S
C52    H247    1.113   .     S
C52    N280    1.449   .     S
C52    H246    1.111   .     S
C53    H251    1.110   .     S
C53    H250    1.111   .     S
C53    H252    1.113   .     S
C53    N266    1.449   .     S
C54    H256    1.110   .     S
C54    N267    1.448   .     S
C54    H257    1.111   .     S
C54    H255    1.110   .     S
C55    H260    1.111   .     S
C55    N268    1.448   .     S
C55    H259    1.111   .     S
C55    H261    1.110   .     S
C56    H263    1.109   .     S
C56    N269    1.448   .     S
C56    H264    1.111   .     S
C56    H155    1.110   .     S
C57    H207    1.083   .     S
C57    C69     1.396   .     A
C58    N270    1.448   .     S
C58    H159    1.111   .     S
C58    H157    1.109   .     S
C58    H158    1.110   .     S
C59    H162    1.111   .     S
C59    H163    1.110   .     S
C59    H161    1.111   .     S
C59    N619    1.447   .     S
C60    H167    1.113   .     S
C60    H166    1.111   .     S
C60    H168    1.110   .     S
C60    N272    1.449   .     S
C61    H208    1.083   .     S
C61    C418    1.396   1_455 S
C62    C91     1.463   .     S
C62    C446    1.396   1_455 S
C63    C109    1.396   .     A
C63    C413    1.396   1_455 S
C63    C92     1.463   .     S
C64    C89     1.463   .     S
C64    C76     1.396   .     A
C64    C816    1.396   1_545 S
C65    H193    1.082   .     S
C65    C411    1.396   .     S
C66    C87     1.396   .     A
C66    C786    1.463   .     S
C66    C827    1.396   .     S
C67    C95     1.463   .     S
C67    C838    1.396   1_545 S
C68    C96     1.462   .     S
C68    C742    1.396   1_545 S
C69    C93     1.463   .     S
C69    C361    1.396   .     S
C70    C94     1.463   .     S
C70    C409    1.396   .     S
C71    C150    1.414   .     A
C71    C77     1.411   .     A
C71    N265    1.428   .     S
C72    N273    1.427   .     S
C72    C151    1.413   .     A
C72    C75     1.411   .     A
C73    N274    1.427   .     S
C73    C79     1.411   .     A
C73    C152    1.413   .     A
C74    N275    1.427   .     S
C74    C78     1.411   .     A
C75    N276    1.427   .     S
C76    H194    1.083   .     S
C77    N277    1.427   .     S
C78    N278    1.427   .     S
C79    N279    1.427   .     S
C80    N280    1.427   .     S
C80    C85     1.411   1_556 S
C81    N266    1.427   .     S
C81    C84     1.411   1_554 S
C82    N267    1.428   .     S
C82    C88     1.412   1_556 S
C83    N268    1.427   .     S
C83    C86     1.411   1_554 S
C84    N269    1.428   .     S
C84    C81     1.411   1_556 S
C85    N270    1.428   .     S
C85    C80     1.411   1_554 S
C86    N271    1.427   .     S
C86    C83     1.411   1_556 S
C87    H195    1.083   .     S
C88    N272    1.427   .     S
C88    C82     1.412   1_554 S
C89    O332    1.281   .     A
C89    O1021   1.281   1_545 S
C90    O329    1.281   .     A
C90    C762    1.463   1_545 S
C90    O978    1.281   1_545 S
C91    O330    1.281   .     A
C91    O631    1.281   1_455 S
C92    O679    1.281   1_455 A
C92    O284    1.281   .     S
C93    O633    1.281   .     A
C93    O637    1.281   .     A
C94    O638    1.281   .     A
C94    O634    1.281   .     S
C95    O287    1.281   .     A
C95    O291    1.281   .     A
C96    O293    1.281   .     A
C96    O288    1.281   .     A
C97    O322    1.282   .     A
C97    O294    1.282   .     A
C98    C150    1.400   .     A
C98    H196    1.083   .     S
C98    C410    1.396   .     S
C99    O323    1.282   .     A
C99    O295    1.282   .     A
C100   O296    1.282   .     A
C100   O320    1.282   .     A
C101   O297    1.282   .     A
C101   O321    1.282   .     A
C102   O327    1.282   .     A
C102   O298    1.282   .     A
C103   O299    1.282   .     A
C103   O328    1.282   .     A
C104   O300    1.282   .     A
C104   O324    1.282   .     A
C105   O301    1.282   .     A
C105   O326    1.282   .     A
C106   O313    1.282   .     A
C106   O302    1.282   .     A
C107   O315    1.282   .     A
C107   O304    1.282   .     A
C108   O311    1.282   .     A
C108   O305    1.282   .     A
C109   H197    1.083   .     S
C109   C151    1.399   .     A
C110   O312    1.282   .     A
C110   O306    1.282   .     A
C111   O307    1.282   .     A
C111   O318    1.282   .     A
C112   O319    1.282   .     A
C112   O308    1.282   .     A
C113   O309    1.282   .     A
C113   O316    1.282   .     A
C114   O317    1.282   .     A
C114   O310    1.282   .     A
C115   C132    1.386   .     A
C115   H153    1.083   .     S
C116   C130    1.386   .     A
C116   H177    1.083   .     S
C117   C129    1.386   .     A
C117   H188    1.083   .     S
C118   C128    1.386   .     A
C118   H199    1.083   .     S
C119   H210    1.083   .     S
C119   C127    1.386   .     A
C120   H198    1.083   .     S
C120   C152    1.400   .     A
C120   C760    1.396   .     S
C121   H221    1.083   .     S
C121   C126    1.386   .     A
C122   C125    1.386   .     A
C122   H232    1.083   .     S
C123   H243    1.083   .     S
C123   C124    1.386   .     A
C124   H254    1.083   .     S
C125   H154    1.083   .     S
C126   H165    1.083   .     S
C127   H169    1.083   .     S
C128   H170    1.083   .     S
C129   H171    1.083   .     S
C130   H172    1.083   .     S
C131   H200    1.083   .     S
C131   C762    1.396   1_545 S
C132   H173    1.083   .     S
C133   H174    1.083   .     S
C133   C149    1.386   .     A
C134   H175    1.083   .     S
C134   C148    1.386   .     A
C135   C147    1.386   .     A
C135   H176    1.083   .     S
C136   C146    1.386   .     A
C136   H178    1.083   .     S
C137   H179    1.083   .     S
C137   C145    1.386   .     A
C138   C144    1.386   .     A
C138   H180    1.083   .     S
C139   H181    1.083   .     S
C139   C143    1.386   .     A
C140   C141    1.386   .     A
C140   H182    1.083   .     S
C141   H183    1.083   .     S
C142   H201    1.083   .     S
C142   C763    1.396   .     S
C143   H184    1.083   .     S
C144   H185    1.083   .     S
C145   H186    1.083   .     S
C146   H187    1.083   .     S
C147   H189    1.083   .     S
C148   H190    1.083   .     S
C149   H191    1.083   .     S
C150   C382    1.417   .     S
C152   C733    1.417   .     S
H156   N270    1.029   .     S
H160   N271    1.030   .     S
H164   N272    1.030   .     S
H209   N265    1.029   .     S
H214   N273    1.030   .     S
H218   N274    1.030   .     S
H223   N275    1.030   .     S
H227   N276    1.030   .     S
H231   N277    1.030   .     S
H236   N278    1.030   .     S
H240   N279    1.030   .     S
H245   N280    1.030   .     S
H249   N266    1.030   .     S
H253   N267    1.029   .     S
H258   N268    1.030   .     S
H262   N269    1.029   .     S
N271   C407    1.447   1_455 S
O281   Zn336   1.948   .     S
O281   Zn333   1.948   .     S
O281   Zn344   1.948   .     S
O281   Zn1036  1.948   1_545 S
O282   Zn335   1.951   .     S
O282   C786    1.281   .     S
O283   Zn338   1.951   .     S
O283   C439    1.281   .     S
O284   Zn337   1.951   .     S
O285   C441    1.281   1_455 A
O285   Zn347   1.951   .     S
O286   C442    1.281   1_455 S
O286   Zn346   1.951   .     S
O287   Zn341   1.951   .     S
O288   Zn333   1.951   .     S
O289   C441    1.281   1_455 A
O289   Zn343   1.951   .     S
O290   C442    1.281   1_455 A
O290   Zn342   1.951   .     S
O291   Zn345   1.951   .     S
O292   Zn339   1.948   .     S
O292   Zn341   1.948   .     S
O292   Zn345   1.948   .     S
O292   Zn1031  1.948   1_545 S
O293   Zn344   1.951   .     S
O294   Zn336   1.936   .     S
O295   Zn335   1.936   .     S
O296   Zn338   1.935   .     S
O297   Zn337   1.935   .     S
O298   Zn340   1.936   .     S
O299   Zn339   1.936   .     S
O300   Zn334   1.935   .     S
O301   Zn348   1.935   .     S
O302   Zn335   1.935   .     S
O303   Zn334   1.948   .     S
O303   Zn686   1.948   1_455 S
O303   Zn342   1.948   .     S
O303   Zn346   1.948   .     S
O304   Zn336   1.935   .     S
O305   Zn348   1.936   .     S
O306   Zn334   1.936   .     S
O307   Zn339   1.935   .     S
O308   Zn340   1.935   .     S
O309   Zn337   1.936   .     S
O310   Zn338   1.936   .     S
O311   Zn691   1.936   .     S
O312   Zn342   1.936   .     S
O313   Zn1041  1.935   .     S
O314   Zn337   1.948   .     S
O314   Zn347   1.948   .     S
O314   Zn343   1.948   .     S
O314   Zn696   1.948   1_455 S
O315   Zn344   1.935   .     S
O316   Zn347   1.936   .     S
O317   Zn694   1.936   .     S
O318   Zn341   1.935   .     S
O319   Zn1029  1.935   .     S
O320   Zn690   1.935   .     S
O321   Zn343   1.935   .     S
O322   Zn333   1.936   .     S
O323   Zn1037  1.936   .     S
O324   Zn346   1.935   .     S
O325   Zn340   1.951   .     S
O325   C785    1.281   .     S
O326   Zn695   1.935   .     S
O327   Zn1040  1.936   .     S
O328   Zn345   1.936   .     S
O329   Zn339   1.951   .     S
O330   Zn334   1.951   .     S
O331   Zn348   1.951   .     S
O331   C440    1.281   .     A
O332   Zn336   1.951   .     S
Zn333  O1015   1.935   1_545 S
Zn335  O988    1.948   .     S
Zn338  O651    1.948   .     S
Zn340  O977    1.948   .     S
Zn341  O1019   1.936   1_545 S
Zn342  O668    1.935   1_455 S
Zn343  O659    1.936   1_455 S
Zn344  O1023   1.936   1_545 S
Zn345  O1009   1.935   1_545 S
Zn346  O665    1.936   1_455 S
Zn347  O674    1.935   1_455 S
Zn348  O662    1.948   .     S
C349   H540    1.083   .     S
C349   C410    1.396   .     A
C349   C352    1.399   .     A
C350   H550    1.083   .     S
C350   C362    1.400   .     A
C350   C416    1.396   .     A
C351   C479    1.400   .     A
C351   C422    1.413   .     A
C351   C1082   1.417   1_545 S
C352   C423    1.413   .     A
C352   C382    1.417   .     A
C353   C425    1.413   .     A
C353   C413    1.400   .     A
C353   C36     1.417   1_655 S
C354   C426    1.413   .     A
C354   C424    1.400   .     A
C354   C385    1.417   .     A
C355   C427    1.413   .     A
C355   C435    1.399   .     A
C355   C386    1.417   .     A
C356   C383    1.400   .     A
C356   C387    1.417   .     A
C356   C428    1.413   .     A
C357   C394    1.400   .     A
C357   C429    1.413   .     A
C357   C1084   1.417   .     S
C358   C389    1.417   .     A
C358   C430    1.414   .     A
C358   C405    1.401   .     A
C359   C409    1.400   .     A
C359   C431    1.413   .     A
C360   C432    1.414   .     A
C360   C490    1.400   .     A
C360   C1083   1.417   .     S
C361   H551    1.083   .     S
C361   C363    1.400   .     A
C362   C433    1.414   .     A
C362   C388    1.417   .     A
C363   C434    1.413   .     A
C364   C436    1.413   .     A
C364   C372    1.400   .     A
C364   C390    1.417   .     A
C365   C452    1.454   .     S
C365   C480    1.402   .     A
C365   C482    1.402   .     A
C366   C481    1.402   .     A
C366   C478    1.402   .     A
C366   C453    1.454   .     S
C367   C477    1.402   .     A
C367   C484    1.402   .     A
C367   C445    1.455   .     S
C368   C447    1.455   .     S
C368   C476    1.402   .     A
C368   C483    1.402   .     A
C369   C486    1.402   .     A
C369   C475    1.402   .     A
C369   C448    1.454   .     S
C370   C485    1.402   .     A
C370   C449    1.454   .     S
C370   C474    1.402   .     A
C371   C488    1.402   .     A
C371   C450    1.455   .     S
C371   C473    1.402   .     A
C372   C418    1.396   .     A
C372   H552    1.082   .     S
C373   C487    1.402   .     A
C373   C451    1.455   .     S
C373   C472    1.402   .     A
C374   C471    1.402   .     A
C374   C491    1.402   .     A
C374   C461    1.455   .     S
C375   C489    1.402   .     A
C375   C470    1.402   .     A
C375   C462    1.455   .     S
C376   C493    1.402   .     A
C376   C454    1.454   .     S
C376   C469    1.402   .     A
C377   C467    1.402   .     A
C377   C492    1.402   .     A
C377   C455    1.454   .     S
C378   C495    1.402   .     A
C378   C466    1.402   .     A
C378   C456    1.455   .     S
C379   C458    1.455   .     S
C379   C465    1.402   .     A
C379   C494    1.402   .     A
C380   C464    1.402   .     A
C380   C459    1.454   .     S
C380   C497    1.402   .     A
C381   C463    1.402   .     A
C381   C496    1.402   .     A
C381   C460    1.454   .     S
C382   C384    1.402   .     A
C383   C415    1.396   .     A
C383   H553    1.082   .     S
C384   C499    1.417   .     A
C385   C1082   1.402   1_545 S
C385   C1196   1.417   1_545 S
C386   C1047   1.417   .     S
C386   C1081   1.402   .     S
C387   C1056   1.417   1_545 S
C387   C388    1.402   1_556 S
C388   C1053   1.417   1_545 S
C388   C387    1.402   1_554 S
C389   C15     1.417   1_655 S
C389   C390    1.402   1_556 S
C390   C11     1.417   1_655 S
C390   C389    1.402   1_554 S
C391   H559    1.110   .     S
C391   N613    1.447   .     S
C391   H560    1.111   .     S
C391   H561    1.110   .     S
C392   H564    1.110   .     S
C392   N621    1.448   .     S
C392   H565    1.111   .     S
C392   H563    1.111   .     S
C393   H570    1.111   .     S
C393   N622    1.447   .     S
C393   H568    1.110   .     S
C393   H567    1.111   .     S
C394   H554    1.082   .     S
C394   C1112   1.396   .     S
C395   H574    1.110   .     S
C395   H573    1.111   .     S
C395   H572    1.111   .     S
C395   N623    1.448   .     S
C396   H576    1.111   .     S
C396   H577    1.110   .     S
C396   N624    1.447   .     S
C396   H578    1.111   .     S
C397   H582    1.110   .     S
C397   N625    1.449   .     S
C397   H581    1.110   .     S
C397   H583    1.113   .     S
C398   H587    1.110   .     S
C398   H585    1.111   .     S
C398   N626    1.447   .     S
C398   H586    1.111   .     S
C399   H592    1.111   .     S
C399   H590    1.110   .     S
C399   H589    1.111   .     S
C399   N627    1.447   .     S
C400   H596    1.110   .     S
C400   H595    1.113   .     S
C400   N628    1.449   .     S
C400   H594    1.111   .     S
C401   H599    1.110   .     S
C401   H598    1.111   .     S
C401   H600    1.113   .     S
C401   N614    1.449   .     S
C402   H604    1.110   .     S
C402   N615    1.448   .     S
C402   H605    1.111   .     S
C402   H603    1.110   .     S
C403   H608    1.111   .     S
C403   N616    1.448   .     S
C403   H607    1.111   .     S
C403   H609    1.110   .     S
C404   H611    1.109   .     S
C404   N617    1.448   .     S
C404   H612    1.111   .     S
C404   H503    1.110   .     S
C405   H555    1.083   .     S
C405   C417    1.396   .     A
C406   N618    1.448   .     S
C406   H507    1.111   .     S
C406   H505    1.109   .     S
C406   H506    1.110   .     S
C407   H510    1.111   .     S
C407   H511    1.110   .     S
C407   H509    1.111   .     S
C407   N271    1.447   1_655 S
C408   H515    1.113   .     S
C408   H514    1.111   .     S
C408   H516    1.110   .     S
C408   N620    1.449   .     S
C409   H556    1.083   .     S
C410   C439    1.463   .     S
C411   C457    1.396   .     A
C411   C440    1.463   .     S
C412   C437    1.463   .     S
C412   C424    1.396   .     A
C412   C1164   1.396   1_545 S
C413   H541    1.082   .     S
C413   C63     1.396   1_655 S
C414   C435    1.396   .     A
C414   C1134   1.463   .     S
C414   C1175   1.396   .     S
C415   C443    1.463   .     S
C415   C1186   1.396   1_545 S
C416   C444    1.462   .     S
C416   C1090   1.396   1_545 S
C417   C441    1.463   .     S
C417   C13     1.396   1_655 S
C418   C442    1.463   .     S
C418   C61     1.396   1_655 S
C419   C498    1.414   .     A
C419   C425    1.411   .     A
C419   N613    1.428   .     S
C420   N621    1.427   .     S
C420   C499    1.413   .     A
C420   C423    1.411   .     A
C421   N622    1.427   .     S
C421   C427    1.411   .     A
C421   C500    1.413   .     A
C422   N623    1.427   .     S
C422   C426    1.411   .     A
C423   N624    1.427   .     S
C424   H542    1.083   .     S
C425   N625    1.427   .     S
C426   N626    1.427   .     S
C427   N627    1.427   .     S
C428   N628    1.427   .     S
C428   C433    1.411   1_556 S
C429   N614    1.427   .     S
C429   C432    1.411   1_554 S
C430   N615    1.428   .     S
C430   C436    1.412   1_556 S
C431   N616    1.427   .     S
C431   C434    1.411   1_554 S
C432   N617    1.428   .     S
C432   C429    1.411   1_556 S
C433   N618    1.428   .     S
C433   C428    1.411   1_554 S
C434   N619    1.427   .     S
C434   C431    1.411   1_556 S
C435   H543    1.083   .     S
C436   N620    1.427   .     S
C436   C430    1.412   1_554 S
C437   O680    1.281   .     A
C437   O1369   1.281   1_545 S
C438   O677    1.281   .     A
C438   C1110   1.463   1_545 S
C438   O1326   1.281   1_545 S
C439   O678    1.281   .     A
C440   O632    1.281   .     S
C441   O285    1.281   1_655 A
C441   O289    1.281   1_655 A
C442   O290    1.281   1_655 A
C442   O286    1.281   1_655 S
C443   O635    1.281   .     A
C443   O639    1.281   .     A
C444   O641    1.281   .     A
C444   O636    1.281   .     A
C445   O670    1.282   .     A
C445   O642    1.282   .     A
C446   C498    1.400   .     A
C446   H544    1.083   .     S
C446   C62     1.396   1_655 S
C447   O671    1.282   .     A
C447   O643    1.282   .     A
C448   O644    1.282   .     A
C448   O668    1.282   .     A
C449   O645    1.282   .     A
C449   O669    1.282   .     A
C450   O675    1.282   .     A
C450   O646    1.282   .     A
C451   O647    1.282   .     A
C451   O676    1.282   .     A
C452   O648    1.282   .     A
C452   O672    1.282   .     A
C453   O649    1.282   .     A
C453   O674    1.282   .     A
C454   O661    1.282   .     A
C454   O650    1.282   .     A
C455   O663    1.282   .     A
C455   O652    1.282   .     A
C456   O659    1.282   .     A
C456   O653    1.282   .     A
C457   H545    1.083   .     S
C457   C499    1.399   .     A
C458   O660    1.282   .     A
C458   O654    1.282   .     A
C459   O655    1.282   .     A
C459   O666    1.282   .     A
C460   O667    1.282   .     A
C460   O656    1.282   .     A
C461   O657    1.282   .     A
C461   O664    1.282   .     A
C462   O665    1.282   .     A
C462   O658    1.282   .     A
C463   C480    1.386   .     A
C463   H501    1.083   .     S
C464   C478    1.386   .     A
C464   H525    1.083   .     S
C465   C477    1.386   .     A
C465   H536    1.083   .     S
C466   C476    1.386   .     A
C466   H547    1.083   .     S
C467   H558    1.083   .     S
C467   C475    1.386   .     A
C468   H546    1.083   .     S
C468   C500    1.400   .     A
C468   C1108   1.396   .     S
C469   H569    1.083   .     S
C469   C474    1.386   .     A
C470   C473    1.386   .     A
C470   H580    1.083   .     S
C471   H591    1.083   .     S
C471   C472    1.386   .     A
C472   H602    1.083   .     S
C473   H502    1.083   .     S
C474   H513    1.083   .     S
C475   H517    1.083   .     S
C476   H518    1.083   .     S
C477   H519    1.083   .     S
C478   H520    1.083   .     S
C479   H548    1.083   .     S
C479   C1110   1.396   1_545 S
C480   H521    1.083   .     S
C481   H522    1.083   .     S
C481   C497    1.386   .     A
C482   H523    1.083   .     S
C482   C496    1.386   .     A
C483   C495    1.386   .     A
C483   H524    1.083   .     S
C484   C494    1.386   .     A
C484   H526    1.083   .     S
C485   H527    1.083   .     S
C485   C493    1.386   .     A
C486   C492    1.386   .     A
C486   H528    1.083   .     S
C487   H529    1.083   .     S
C487   C491    1.386   .     A
C488   C489    1.386   .     A
C488   H530    1.083   .     S
C489   H531    1.083   .     S
C490   H549    1.083   .     S
C490   C1111   1.396   .     S
C491   H532    1.083   .     S
C492   H533    1.083   .     S
C493   H534    1.083   .     S
C494   H535    1.083   .     S
C495   H537    1.083   .     S
C496   H538    1.083   .     S
C497   H539    1.083   .     S
C498   C34     1.417   1_655 S
C500   C1081   1.417   .     S
H504   N618    1.029   .     S
H508   N619    1.030   .     S
H512   N620    1.030   .     S
H557   N613    1.029   .     S
H562   N621    1.030   .     S
H566   N622    1.030   .     S
H571   N623    1.030   .     S
H575   N624    1.030   .     S
H579   N625    1.030   .     S
H584   N626    1.030   .     S
H588   N627    1.030   .     S
H593   N628    1.030   .     S
H597   N614    1.030   .     S
H601   N615    1.029   .     S
H606   N616    1.030   .     S
H610   N617    1.029   .     S
O629   Zn684   1.948   .     S
O629   Zn681   1.948   .     S
O629   Zn692   1.948   .     S
O629   Zn1384  1.948   1_545 S
O630   Zn683   1.951   .     S
O630   C1134   1.281   .     S
O631   Zn686   1.951   .     S
O631   C91     1.281   1_655 S
O632   Zn685   1.951   .     S
O633   Zn695   1.951   .     S
O634   Zn694   1.951   .     S
O635   Zn689   1.951   .     S
O636   Zn681   1.951   .     S
O637   Zn691   1.951   .     S
O638   Zn690   1.951   .     S
O639   Zn693   1.951   .     S
O640   Zn687   1.948   .     S
O640   Zn689   1.948   .     S
O640   Zn693   1.948   .     S
O640   Zn1379  1.948   1_545 S
O641   Zn692   1.951   .     S
O642   Zn684   1.936   .     S
O643   Zn683   1.936   .     S
O644   Zn686   1.935   .     S
O645   Zn685   1.935   .     S
O646   Zn688   1.936   .     S
O647   Zn687   1.936   .     S
O648   Zn682   1.935   .     S
O649   Zn696   1.935   .     S
O650   Zn683   1.935   .     S
O651   Zn682   1.948   .     S
O651   Zn690   1.948   .     S
O651   Zn694   1.948   .     S
O652   Zn684   1.935   .     S
O653   Zn696   1.936   .     S
O654   Zn682   1.936   .     S
O655   Zn687   1.935   .     S
O656   Zn688   1.935   .     S
O657   Zn685   1.936   .     S
O658   Zn686   1.936   .     S
O659   Zn343   1.936   1_655 S
O660   Zn690   1.936   .     S
O661   Zn1389  1.935   .     S
O662   Zn685   1.948   .     S
O662   Zn695   1.948   .     S
O662   Zn691   1.948   .     S
O663   Zn692   1.935   .     S
O664   Zn695   1.936   .     S
O665   Zn346   1.936   1_655 S
O666   Zn689   1.935   .     S
O667   Zn1377  1.935   .     S
O668   Zn342   1.935   1_655 S
O669   Zn691   1.935   .     S
O670   Zn681   1.936   .     S
O671   Zn1385  1.936   .     S
O672   Zn694   1.935   .     S
O673   Zn688   1.951   .     S
O673   C1133   1.281   .     S
O674   Zn347   1.935   1_655 S
O675   Zn1388  1.936   .     S
O676   Zn693   1.936   .     S
O677   Zn687   1.951   .     S
O678   Zn682   1.951   .     S
O679   Zn696   1.951   .     S
O679   C92     1.281   1_655 A
O680   Zn684   1.951   .     S
Zn681  O1363   1.935   1_545 S
Zn683  O1336   1.948   .     S
Zn686  O303    1.948   1_655 S
Zn688  O1325   1.948   .     S
Zn689  O1367   1.936   1_545 S
Zn692  O1371   1.936   1_545 S
Zn693  O1357   1.935   1_545 S
Zn696  O314    1.948   1_655 S
C697   H888    1.083   .     S
C697   C758    1.396   .     A
C697   C700    1.399   .     A
C698   H898    1.083   .     S
C698   C710    1.400   .     A
C698   C764    1.396   .     A
C699   C827    1.400   .     A
C699   C770    1.413   .     A
C700   C771    1.413   .     A
C700   C730    1.417   .     A
C701   C773    1.413   .     A
C701   C761    1.400   .     A
C701   C1080   1.417   .     S
C702   C774    1.413   .     A
C702   C772    1.400   .     A
C702   C733    1.417   .     A
C703   C775    1.413   .     A
C703   C783    1.399   .     A
C703   C734    1.417   .     A
C704   C731    1.400   .     A
C704   C735    1.417   .     A
C704   C776    1.413   .     A
C705   C742    1.400   .     A
C705   C777    1.413   .     A
C705   C40     1.417   1_565 S
C706   C737    1.417   .     A
C706   C778    1.414   .     A
C706   C753    1.401   .     A
C707   C757    1.400   .     A
C707   C779    1.413   .     A
C707   C1086   1.417   1_455 S
C708   C780    1.414   .     A
C708   C838    1.400   .     A
C708   C39     1.417   1_565 S
C709   H899    1.083   .     S
C709   C711    1.400   .     A
C709   C1113   1.396   1_455 S
C710   C781    1.414   .     A
C710   C736    1.417   .     A
C711   C782    1.413   .     A
C711   C1085   1.417   1_455 S
C712   C784    1.413   .     A
C712   C720    1.400   .     A
C712   C738    1.417   .     A
C713   C800    1.454   .     S
C713   C828    1.402   .     A
C713   C830    1.402   .     A
C714   C829    1.402   .     A
C714   C826    1.402   .     A
C714   C801    1.454   .     S
C715   C825    1.402   .     A
C715   C832    1.402   .     A
C715   C793    1.455   .     S
C716   C795    1.455   .     S
C716   C824    1.402   .     A
C716   C831    1.402   .     A
C717   C834    1.402   .     A
C717   C823    1.402   .     A
C717   C796    1.454   .     S
C718   C833    1.402   .     A
C718   C797    1.454   .     S
C718   C822    1.402   .     A
C719   C836    1.402   .     A
C719   C798    1.455   .     S
C719   C821    1.402   .     A
C720   C766    1.396   .     A
C720   H900    1.082   .     S
C721   C835    1.402   .     A
C721   C799    1.455   .     S
C721   C820    1.402   .     A
C722   C819    1.402   .     A
C722   C839    1.402   .     A
C722   C809    1.455   .     S
C723   C837    1.402   .     A
C723   C818    1.402   .     A
C723   C810    1.455   .     S
C724   C841    1.402   .     A
C724   C802    1.454   .     S
C724   C817    1.402   .     A
C725   C815    1.402   .     A
C725   C840    1.402   .     A
C725   C803    1.454   .     S
C726   C843    1.402   .     A
C726   C814    1.402   .     A
C726   C804    1.455   .     S
C727   C806    1.455   .     S
C727   C813    1.402   .     A
C727   C842    1.402   .     A
C728   C812    1.402   .     A
C728   C807    1.454   .     S
C728   C845    1.402   .     A
C729   C811    1.402   .     A
C729   C844    1.402   .     A
C729   C808    1.454   .     S
C730   C732    1.402   .     A
C730   C1194   1.417   1_455 S
C731   C763    1.396   .     A
C731   H901    1.082   .     S
C732   C847    1.417   .     A
C732   C1049   1.417   1_455 S
C734   C3      1.417   1_565 S
C734   C37     1.402   1_565 S
C735   C736    1.402   1_556 S
C736   C735    1.402   1_554 S
C737   C1059   1.417   .     S
C737   C738    1.402   1_556 S
C738   C1055   1.417   .     S
C738   C737    1.402   1_554 S
C739   H907    1.110   .     S
C739   N961    1.447   .     S
C739   H908    1.111   .     S
C739   H909    1.110   .     S
C740   H912    1.110   .     S
C740   N969    1.448   .     S
C740   H913    1.111   .     S
C740   H911    1.111   .     S
C741   H918    1.111   .     S
C741   N970    1.447   .     S
C741   H916    1.110   .     S
C741   H915    1.111   .     S
C742   H902    1.082   .     S
C742   C68     1.396   1_565 S
C743   H922    1.110   .     S
C743   H921    1.111   .     S
C743   H920    1.111   .     S
C743   N971    1.448   .     S
C744   H924    1.111   .     S
C744   H925    1.110   .     S
C744   N972    1.447   .     S
C744   H926    1.111   .     S
C745   H930    1.110   .     S
C745   N973    1.449   .     S
C745   H929    1.110   .     S
C745   H931    1.113   .     S
C746   H935    1.110   .     S
C746   H933    1.111   .     S
C746   N974    1.447   .     S
C746   H934    1.111   .     S
C747   H940    1.111   .     S
C747   H938    1.110   .     S
C747   H937    1.111   .     S
C747   N975    1.447   .     S
C748   H944    1.110   .     S
C748   H943    1.113   .     S
C748   N976    1.449   .     S
C748   H942    1.111   .     S
C749   H947    1.110   .     S
C749   H946    1.111   .     S
C749   H948    1.113   .     S
C749   N962    1.449   .     S
C750   H952    1.110   .     S
C750   N963    1.448   .     S
C750   H953    1.111   .     S
C750   H951    1.110   .     S
C751   H956    1.111   .     S
C751   N964    1.448   .     S
C751   H955    1.111   .     S
C751   H957    1.110   .     S
C752   H959    1.109   .     S
C752   N965    1.448   .     S
C752   H960    1.111   .     S
C752   H851    1.110   .     S
C753   H903    1.083   .     S
C753   C765    1.396   .     A
C754   N966    1.448   .     S
C754   H855    1.111   .     S
C754   H853    1.109   .     S
C754   H854    1.110   .     S
C755   H858    1.111   .     S
C755   H859    1.110   .     S
C755   H857    1.111   .     S
C755   N1315   1.447   .     S
C756   H863    1.113   .     S
C756   H862    1.111   .     S
C756   H864    1.110   .     S
C756   N968    1.449   .     S
C757   H904    1.083   .     S
C757   C1114   1.396   1_455 S
C758   C787    1.463   .     S
C758   C1142   1.396   1_455 S
C759   C805    1.396   .     A
C759   C1109   1.396   1_455 S
C759   C788    1.463   .     S
C760   C785    1.463   .     S
C760   C772    1.396   .     A
C761   H889    1.082   .     S
C761   C1107   1.396   .     S
C762   C783    1.396   .     A
C762   C90     1.463   1_565 S
C762   C131    1.396   1_565 S
C763   C791    1.463   .     S
C764   C792    1.462   .     S
C765   C789    1.463   .     S
C765   C1057   1.396   .     S
C766   C790    1.463   .     S
C766   C1105   1.396   .     S
C767   C846    1.414   .     A
C767   C773    1.411   .     A
C767   N961    1.428   .     S
C768   N969    1.427   .     S
C768   C847    1.413   .     A
C768   C771    1.411   .     A
C769   N970    1.427   .     S
C769   C775    1.411   .     A
C769   C848    1.413   .     A
C770   N971    1.427   .     S
C770   C774    1.411   .     A
C771   N972    1.427   .     S
C772   H890    1.083   .     S
C773   N973    1.427   .     S
C774   N974    1.427   .     S
C775   N975    1.427   .     S
C776   N976    1.427   .     S
C776   C781    1.411   1_556 S
C777   N962    1.427   .     S
C777   C780    1.411   1_554 S
C778   N963    1.428   .     S
C778   C784    1.412   1_556 S
C779   N964    1.427   .     S
C779   C782    1.411   1_554 S
C780   N965    1.428   .     S
C780   C777    1.411   1_556 S
C781   N966    1.428   .     S
C781   C776    1.411   1_554 S
C782   N967    1.427   .     S
C782   C779    1.411   1_556 S
C783   H891    1.083   .     S
C784   N968    1.427   .     S
C784   C778    1.412   1_554 S
C785   O1028   1.281   .     A
C786   O1025   1.281   .     A
C787   O1026   1.281   .     A
C787   O1327   1.281   1_455 S
C788   O1375   1.281   1_455 A
C788   O980    1.281   .     S
C789   O1329   1.281   .     A
C789   O1333   1.281   .     A
C790   O1334   1.281   .     A
C790   O1330   1.281   .     S
C791   O983    1.281   .     A
C791   O987    1.281   .     A
C792   O989    1.281   .     A
C792   O984    1.281   .     A
C793   O1018   1.282   .     A
C793   O990    1.282   .     A
C794   C846    1.400   .     A
C794   H892    1.083   .     S
C794   C1106   1.396   .     S
C795   O1019   1.282   .     A
C795   O991    1.282   .     A
C796   O992    1.282   .     A
C796   O1016   1.282   .     A
C797   O993    1.282   .     A
C797   O1017   1.282   .     A
C798   O1023   1.282   .     A
C798   O994    1.282   .     A
C799   O995    1.282   .     A
C799   O1024   1.282   .     A
C800   O996    1.282   .     A
C800   O1020   1.282   .     A
C801   O997    1.282   .     A
C801   O1022   1.282   .     A
C802   O1009   1.282   .     A
C802   O998    1.282   .     A
C803   O1011   1.282   .     A
C803   O1000   1.282   .     A
C804   O1007   1.282   .     A
C804   O1001   1.282   .     A
C805   H893    1.083   .     S
C805   C847    1.399   .     A
C806   O1008   1.282   .     A
C806   O1002   1.282   .     A
C807   O1003   1.282   .     A
C807   O1014   1.282   .     A
C808   O1015   1.282   .     A
C808   O1004   1.282   .     A
C809   O1005   1.282   .     A
C809   O1012   1.282   .     A
C810   O1013   1.282   .     A
C810   O1006   1.282   .     A
C811   C828    1.386   .     A
C811   H849    1.083   .     S
C812   C826    1.386   .     A
C812   H873    1.083   .     S
C813   C825    1.386   .     A
C813   H884    1.083   .     S
C814   C824    1.386   .     A
C814   H895    1.083   .     S
C815   H906    1.083   .     S
C815   C823    1.386   .     A
C816   H894    1.083   .     S
C816   C848    1.400   .     A
C816   C64     1.396   1_565 S
C817   H917    1.083   .     S
C817   C822    1.386   .     A
C818   C821    1.386   .     A
C818   H928    1.083   .     S
C819   H939    1.083   .     S
C819   C820    1.386   .     A
C820   H950    1.083   .     S
C821   H850    1.083   .     S
C822   H861    1.083   .     S
C823   H865    1.083   .     S
C824   H866    1.083   .     S
C825   H867    1.083   .     S
C826   H868    1.083   .     S
C827   H896    1.083   .     S
C828   H869    1.083   .     S
C829   H870    1.083   .     S
C829   C845    1.386   .     A
C830   H871    1.083   .     S
C830   C844    1.386   .     A
C831   C843    1.386   .     A
C831   H872    1.083   .     S
C832   C842    1.386   .     A
C832   H874    1.083   .     S
C833   H875    1.083   .     S
C833   C841    1.386   .     A
C834   C840    1.386   .     A
C834   H876    1.083   .     S
C835   H877    1.083   .     S
C835   C839    1.386   .     A
C836   C837    1.386   .     A
C836   H878    1.083   .     S
C837   H879    1.083   .     S
C838   H897    1.083   .     S
C838   C67     1.396   1_565 S
C839   H880    1.083   .     S
C840   H881    1.083   .     S
C841   H882    1.083   .     S
C842   H883    1.083   .     S
C843   H885    1.083   .     S
C844   H886    1.083   .     S
C845   H887    1.083   .     S
C846   C1078   1.417   .     S
C848   C37     1.417   1_565 S
H852   N966    1.029   .     S
H856   N967    1.030   .     S
H860   N968    1.030   .     S
H905   N961    1.029   .     S
H910   N969    1.030   .     S
H914   N970    1.030   .     S
H919   N971    1.030   .     S
H923   N972    1.030   .     S
H927   N973    1.030   .     S
H932   N974    1.030   .     S
H936   N975    1.030   .     S
H941   N976    1.030   .     S
H945   N962    1.030   .     S
H949   N963    1.029   .     S
H954   N964    1.030   .     S
H958   N965    1.029   .     S
N967   C1103   1.447   1_455 S
O977   Zn1032  1.948   .     S
O977   Zn1029  1.948   .     S
O977   Zn1040  1.948   .     S
O978   Zn1031  1.951   .     S
O978   C90     1.281   1_565 S
O979   Zn1034  1.951   .     S
O979   C1135   1.281   .     S
O980   Zn1033  1.951   .     S
O981   C1137   1.281   1_455 A
O981   Zn1043  1.951   .     S
O982   C1138   1.281   1_455 S
O982   Zn1042  1.951   .     S
O983   Zn1037  1.951   .     S
O984   Zn1029  1.951   .     S
O985   C1137   1.281   1_455 A
O985   Zn1039  1.951   .     S
O986   C1138   1.281   1_455 A
O986   Zn1038  1.951   .     S
O987   Zn1041  1.951   .     S
O988   Zn1035  1.948   .     S
O988   Zn1037  1.948   .     S
O988   Zn1041  1.948   .     S
O989   Zn1040  1.951   .     S
O990   Zn1032  1.936   .     S
O991   Zn1031  1.936   .     S
O992   Zn1034  1.935   .     S
O993   Zn1033  1.935   .     S
O994   Zn1036  1.936   .     S
O995   Zn1035  1.936   .     S
O996   Zn1030  1.935   .     S
O997   Zn1044  1.935   .     S
O998   Zn1031  1.935   .     S
O999   Zn1030  1.948   .     S
O999   Zn1382  1.948   1_455 S
O999   Zn1038  1.948   .     S
O999   Zn1042  1.948   .     S
O1000  Zn1032  1.935   .     S
O1001  Zn1044  1.936   .     S
O1002  Zn1030  1.936   .     S
O1003  Zn1035  1.935   .     S
O1004  Zn1036  1.935   .     S
O1005  Zn1033  1.936   .     S
O1006  Zn1034  1.936   .     S
O1007  Zn1387  1.936   .     S
O1008  Zn1038  1.936   .     S
O1009  Zn345   1.935   1_565 S
O1010  Zn1033  1.948   .     S
O1010  Zn1043  1.948   .     S
O1010  Zn1039  1.948   .     S
O1010  Zn1392  1.948   1_455 S
O1011  Zn1040  1.935   .     S
O1012  Zn1043  1.936   .     S
O1013  Zn1390  1.936   .     S
O1014  Zn1037  1.935   .     S
O1015  Zn333   1.935   1_565 S
O1016  Zn1386  1.935   .     S
O1017  Zn1039  1.935   .     S
O1018  Zn1029  1.936   .     S
O1019  Zn341   1.936   1_565 S
O1020  Zn1042  1.935   .     S
O1021  Zn1036  1.951   .     S
O1021  C89     1.281   1_565 S
O1022  Zn1391  1.935   .     S
O1023  Zn344   1.936   1_565 S
O1024  Zn1041  1.936   .     S
O1025  Zn1035  1.951   .     S
O1026  Zn1030  1.951   .     S
O1027  Zn1044  1.951   .     S
O1027  C1136   1.281   .     A
O1028  Zn1032  1.951   .     S
Zn1031 O292    1.948   1_565 S
Zn1034 O1347   1.948   .     S
Zn1036 O281    1.948   1_565 S
Zn1038 O1364   1.935   1_455 S
Zn1039 O1355   1.936   1_455 S
Zn1042 O1361   1.936   1_455 S
Zn1043 O1370   1.935   1_455 S
Zn1044 O1358   1.948   .     S
C1045  H1236   1.083   .     S
C1045  C1106   1.396   .     A
C1045  C1048   1.399   .     A
C1046  H1246   1.083   .     S
C1046  C1058   1.400   .     A
C1046  C1112   1.396   .     A
C1047  C1175   1.400   .     A
C1047  C1118   1.413   .     A
C1048  C1119   1.413   .     A
C1048  C1078   1.417   .     A
C1049  C1121   1.413   .     A
C1049  C1109   1.400   .     A
C1049  C732    1.417   1_655 S
C1050  C1122   1.413   .     A
C1050  C1120   1.400   .     A
C1050  C1081   1.417   .     A
C1051  C1123   1.413   .     A
C1051  C1131   1.399   .     A
C1051  C1082   1.417   .     A
C1052  C1079   1.400   .     A
C1052  C1083   1.417   .     A
C1052  C1124   1.413   .     A
C1053  C1090   1.400   .     A
C1053  C1125   1.413   .     A
C1053  C388    1.417   1_565 S
C1054  C1085   1.417   .     A
C1054  C1126   1.414   .     A
C1054  C1101   1.401   .     A
C1055  C1105   1.400   .     A
C1055  C1127   1.413   .     A
C1056  C1128   1.414   .     A
C1056  C1186   1.400   .     A
C1056  C387    1.417   1_565 S
C1057  H1247   1.083   .     S
C1057  C1059   1.400   .     A
C1058  C1129   1.414   .     A
C1058  C1084   1.417   .     A
C1059  C1130   1.413   .     A
C1060  C1132   1.413   .     A
C1060  C1068   1.400   .     A
C1060  C1086   1.417   .     A
C1061  C1148   1.454   .     S
C1061  C1176   1.402   .     A
C1061  C1178   1.402   .     A
C1062  C1177   1.402   .     A
C1062  C1174   1.402   .     A
C1062  C1149   1.454   .     S
C1063  C1173   1.402   .     A
C1063  C1180   1.402   .     A
C1063  C1141   1.455   .     S
C1064  C1143   1.455   .     S
C1064  C1172   1.402   .     A
C1064  C1179   1.402   .     A
C1065  C1182   1.402   .     A
C1065  C1171   1.402   .     A
C1065  C1144   1.454   .     S
C1066  C1181   1.402   .     A
C1066  C1145   1.454   .     S
C1066  C1170   1.402   .     A
C1067  C1184   1.402   .     A
C1067  C1146   1.455   .     S
C1067  C1169   1.402   .     A
C1068  C1114   1.396   .     A
C1068  H1248   1.082   .     S
C1069  C1183   1.402   .     A
C1069  C1147   1.455   .     S
C1069  C1168   1.402   .     A
C1070  C1167   1.402   .     A
C1070  C1187   1.402   .     A
C1070  C1157   1.455   .     S
C1071  C1185   1.402   .     A
C1071  C1166   1.402   .     A
C1071  C1158   1.455   .     S
C1072  C1189   1.402   .     A
C1072  C1150   1.454   .     S
C1072  C1165   1.402   .     A
C1073  C1163   1.402   .     A
C1073  C1188   1.402   .     A
C1073  C1151   1.454   .     S
C1074  C1191   1.402   .     A
C1074  C1162   1.402   .     A
C1074  C1152   1.455   .     S
C1075  C1154   1.455   .     S
C1075  C1161   1.402   .     A
C1075  C1190   1.402   .     A
C1076  C1160   1.402   .     A
C1076  C1155   1.454   .     S
C1076  C1193   1.402   .     A
C1077  C1159   1.402   .     A
C1077  C1192   1.402   .     A
C1077  C1156   1.454   .     S
C1078  C1080   1.402   .     A
C1079  C1111   1.396   .     A
C1079  H1249   1.082   .     S
C1080  C1195   1.417   .     A
C1082  C351    1.417   1_565 S
C1082  C385    1.402   1_565 S
C1083  C1084   1.402   1_556 S
C1084  C1083   1.402   1_554 S
C1085  C711    1.417   1_655 S
C1085  C1086   1.402   1_556 S
C1086  C707    1.417   1_655 S
C1086  C1085   1.402   1_554 S
C1087  H1255   1.110   .     S
C1087  N1309   1.447   .     S
C1087  H1256   1.111   .     S
C1087  H1257   1.110   .     S
C1088  H1260   1.110   .     S
C1088  N1317   1.448   .     S
C1088  H1261   1.111   .     S
C1088  H1259   1.111   .     S
C1089  H1266   1.111   .     S
C1089  N1318   1.447   .     S
C1089  H1264   1.110   .     S
C1089  H1263   1.111   .     S
C1090  H1250   1.082   .     S
C1090  C416    1.396   1_565 S
C1091  H1270   1.110   .     S
C1091  H1269   1.111   .     S
C1091  H1268   1.111   .     S
C1091  N1319   1.448   .     S
C1092  H1272   1.111   .     S
C1092  H1273   1.110   .     S
C1092  N1320   1.447   .     S
C1092  H1274   1.111   .     S
C1093  H1278   1.110   .     S
C1093  N1321   1.449   .     S
C1093  H1277   1.110   .     S
C1093  H1279   1.113   .     S
C1094  H1283   1.110   .     S
C1094  H1281   1.111   .     S
C1094  N1322   1.447   .     S
C1094  H1282   1.111   .     S
C1095  H1288   1.111   .     S
C1095  H1286   1.110   .     S
C1095  H1285   1.111   .     S
C1095  N1323   1.447   .     S
C1096  H1292   1.110   .     S
C1096  H1291   1.113   .     S
C1096  N1324   1.449   .     S
C1096  H1290   1.111   .     S
C1097  H1295   1.110   .     S
C1097  H1294   1.111   .     S
C1097  H1296   1.113   .     S
C1097  N1310   1.449   .     S
C1098  H1300   1.110   .     S
C1098  N1311   1.448   .     S
C1098  H1301   1.111   .     S
C1098  H1299   1.110   .     S
C1099  H1304   1.111   .     S
C1099  N1312   1.448   .     S
C1099  H1303   1.111   .     S
C1099  H1305   1.110   .     S
C1100  H1307   1.109   .     S
C1100  N1313   1.448   .     S
C1100  H1308   1.111   .     S
C1100  H1199   1.110   .     S
C1101  H1251   1.083   .     S
C1101  C1113   1.396   .     A
C1102  N1314   1.448   .     S
C1102  H1203   1.111   .     S
C1102  H1201   1.109   .     S
C1102  H1202   1.110   .     S
C1103  H1206   1.111   .     S
C1103  H1207   1.110   .     S
C1103  H1205   1.111   .     S
C1103  N967    1.447   1_655 S
C1104  H1211   1.113   .     S
C1104  H1210   1.111   .     S
C1104  H1212   1.110   .     S
C1104  N1316   1.449   .     S
C1105  H1252   1.083   .     S
C1106  C1135   1.463   .     S
C1107  C1153   1.396   .     A
C1107  C1136   1.463   .     S
C1108  C1133   1.463   .     S
C1108  C1120   1.396   .     A
C1109  H1237   1.082   .     S
C1109  C759    1.396   1_655 S
C1110  C1131   1.396   .     A
C1110  C438    1.463   1_565 S
C1110  C479    1.396   1_565 S
C1111  C1139   1.463   .     S
C1112  C1140   1.462   .     S
C1113  C1137   1.463   .     S
C1113  C709    1.396   1_655 S
C1114  C1138   1.463   .     S
C1114  C757    1.396   1_655 S
C1115  C1194   1.414   .     A
C1115  C1121   1.411   .     A
C1115  N1309   1.428   .     S
C1116  N1317   1.427   .     S
C1116  C1195   1.413   .     A
C1116  C1119   1.411   .     A
C1117  N1318   1.427   .     S
C1117  C1123   1.411   .     A
C1117  C1196   1.413   .     A
C1118  N1319   1.427   .     S
C1118  C1122   1.411   .     A
C1119  N1320   1.427   .     S
C1120  H1238   1.083   .     S
C1121  N1321   1.427   .     S
C1122  N1322   1.427   .     S
C1123  N1323   1.427   .     S
C1124  N1324   1.427   .     S
C1124  C1129   1.411   1_556 S
C1125  N1310   1.427   .     S
C1125  C1128   1.411   1_554 S
C1126  N1311   1.428   .     S
C1126  C1132   1.412   1_556 S
C1127  N1312   1.427   .     S
C1127  C1130   1.411   1_554 S
C1128  N1313   1.428   .     S
C1128  C1125   1.411   1_556 S
C1129  N1314   1.428   .     S
C1129  C1124   1.411   1_554 S
C1130  N1315   1.427   .     S
C1130  C1127   1.411   1_556 S
C1131  H1239   1.083   .     S
C1132  N1316   1.427   .     S
C1132  C1126   1.412   1_554 S
C1133  O1376   1.281   .     A
C1134  O1373   1.281   .     A
C1135  O1374   1.281   .     A
C1136  O1328   1.281   .     S
C1137  O981    1.281   1_655 A
C1137  O985    1.281   1_655 A
C1138  O986    1.281   1_655 A
C1138  O982    1.281   1_655 S
C1139  O1331   1.281   .     A
C1139  O1335   1.281   .     A
C1140  O1337   1.281   .     A
C1140  O1332   1.281   .     A
C1141  O1366   1.282   .     A
C1141  O1338   1.282   .     A
C1142  C1194   1.400   .     A
C1142  H1240   1.083   .     S
C1142  C758    1.396   1_655 S
C1143  O1367   1.282   .     A
C1143  O1339   1.282   .     A
C1144  O1340   1.282   .     A
C1144  O1364   1.282   .     A
C1145  O1341   1.282   .     A
C1145  O1365   1.282   .     A
C1146  O1371   1.282   .     A
C1146  O1342   1.282   .     A
C1147  O1343   1.282   .     A
C1147  O1372   1.282   .     A
C1148  O1344   1.282   .     A
C1148  O1368   1.282   .     A
C1149  O1345   1.282   .     A
C1149  O1370   1.282   .     A
C1150  O1357   1.282   .     A
C1150  O1346   1.282   .     A
C1151  O1359   1.282   .     A
C1151  O1348   1.282   .     A
C1152  O1355   1.282   .     A
C1152  O1349   1.282   .     A
C1153  H1241   1.083   .     S
C1153  C1195   1.399   .     A
C1154  O1356   1.282   .     A
C1154  O1350   1.282   .     A
C1155  O1351   1.282   .     A
C1155  O1362   1.282   .     A
C1156  O1363   1.282   .     A
C1156  O1352   1.282   .     A
C1157  O1353   1.282   .     A
C1157  O1360   1.282   .     A
C1158  O1361   1.282   .     A
C1158  O1354   1.282   .     A
C1159  C1176   1.386   .     A
C1159  H1197   1.083   .     S
C1160  C1174   1.386   .     A
C1160  H1221   1.083   .     S
C1161  C1173   1.386   .     A
C1161  H1232   1.083   .     S
C1162  C1172   1.386   .     A
C1162  H1243   1.083   .     S
C1163  H1254   1.083   .     S
C1163  C1171   1.386   .     A
C1164  H1242   1.083   .     S
C1164  C1196   1.400   .     A
C1164  C412    1.396   1_565 S
C1165  H1265   1.083   .     S
C1165  C1170   1.386   .     A
C1166  C1169   1.386   .     A
C1166  H1276   1.083   .     S
C1167  H1287   1.083   .     S
C1167  C1168   1.386   .     A
C1168  H1298   1.083   .     S
C1169  H1198   1.083   .     S
C1170  H1209   1.083   .     S
C1171  H1213   1.083   .     S
C1172  H1214   1.083   .     S
C1173  H1215   1.083   .     S
C1174  H1216   1.083   .     S
C1175  H1244   1.083   .     S
C1176  H1217   1.083   .     S
C1177  H1218   1.083   .     S
C1177  C1193   1.386   .     A
C1178  H1219   1.083   .     S
C1178  C1192   1.386   .     A
C1179  C1191   1.386   .     A
C1179  H1220   1.083   .     S
C1180  C1190   1.386   .     A
C1180  H1222   1.083   .     S
C1181  H1223   1.083   .     S
C1181  C1189   1.386   .     A
C1182  C1188   1.386   .     A
C1182  H1224   1.083   .     S
C1183  H1225   1.083   .     S
C1183  C1187   1.386   .     A
C1184  C1185   1.386   .     A
C1184  H1226   1.083   .     S
C1185  H1227   1.083   .     S
C1186  H1245   1.083   .     S
C1186  C415    1.396   1_565 S
C1187  H1228   1.083   .     S
C1188  H1229   1.083   .     S
C1189  H1230   1.083   .     S
C1190  H1231   1.083   .     S
C1191  H1233   1.083   .     S
C1192  H1234   1.083   .     S
C1193  H1235   1.083   .     S
C1194  C730    1.417   1_655 S
C1196  C385    1.417   1_565 S
H1200  N1314   1.029   .     S
H1204  N1315   1.030   .     S
H1208  N1316   1.030   .     S
H1253  N1309   1.029   .     S
H1258  N1317   1.030   .     S
H1262  N1318   1.030   .     S
H1267  N1319   1.030   .     S
H1271  N1320   1.030   .     S
H1275  N1321   1.030   .     S
H1280  N1322   1.030   .     S
H1284  N1323   1.030   .     S
H1289  N1324   1.030   .     S
H1293  N1310   1.030   .     S
H1297  N1311   1.029   .     S
H1302  N1312   1.030   .     S
H1306  N1313   1.029   .     S
O1325  Zn1380  1.948   .     S
O1325  Zn1377  1.948   .     S
O1325  Zn1388  1.948   .     S
O1326  Zn1379  1.951   .     S
O1326  C438    1.281   1_565 S
O1327  Zn1382  1.951   .     S
O1327  C787    1.281   1_655 S
O1328  Zn1381  1.951   .     S
O1329  Zn1391  1.951   .     S
O1330  Zn1390  1.951   .     S
O1331  Zn1385  1.951   .     S
O1332  Zn1377  1.951   .     S
O1333  Zn1387  1.951   .     S
O1334  Zn1386  1.951   .     S
O1335  Zn1389  1.951   .     S
O1336  Zn1383  1.948   .     S
O1336  Zn1385  1.948   .     S
O1336  Zn1389  1.948   .     S
O1337  Zn1388  1.951   .     S
O1338  Zn1380  1.936   .     S
O1339  Zn1379  1.936   .     S
O1340  Zn1382  1.935   .     S
O1341  Zn1381  1.935   .     S
O1342  Zn1384  1.936   .     S
O1343  Zn1383  1.936   .     S
O1344  Zn1378  1.935   .     S
O1345  Zn1392  1.935   .     S
O1346  Zn1379  1.935   .     S
O1347  Zn1378  1.948   .     S
O1347  Zn1386  1.948   .     S
O1347  Zn1390  1.948   .     S
O1348  Zn1380  1.935   .     S
O1349  Zn1392  1.936   .     S
O1350  Zn1378  1.936   .     S
O1351  Zn1383  1.935   .     S
O1352  Zn1384  1.935   .     S
O1353  Zn1381  1.936   .     S
O1354  Zn1382  1.936   .     S
O1355  Zn1039  1.936   1_655 S
O1356  Zn1386  1.936   .     S
O1357  Zn693   1.935   1_565 S
O1358  Zn1381  1.948   .     S
O1358  Zn1391  1.948   .     S
O1358  Zn1387  1.948   .     S
O1359  Zn1388  1.935   .     S
O1360  Zn1391  1.936   .     S
O1361  Zn1042  1.936   1_655 S
O1362  Zn1385  1.935   .     S
O1363  Zn681   1.935   1_565 S
O1364  Zn1038  1.935   1_655 S
O1365  Zn1387  1.935   .     S
O1366  Zn1377  1.936   .     S
O1367  Zn689   1.936   1_565 S
O1368  Zn1390  1.935   .     S
O1369  Zn1384  1.951   .     S
O1369  C437    1.281   1_565 S
O1370  Zn1043  1.935   1_655 S
O1371  Zn692   1.936   1_565 S
O1372  Zn1389  1.936   .     S
O1373  Zn1383  1.951   .     S
O1374  Zn1378  1.951   .     S
O1375  Zn1392  1.951   .     S
O1375  C788    1.281   1_655 A
O1376  Zn1380  1.951   .     S
Zn1379 O640    1.948   1_565 S
Zn1382 O999    1.948   1_655 S
Zn1384 O629    1.948   1_565 S
Zn1392 O1010   1.948   1_655 S
