data_str_m1_o1_o17_pcu_sym.127
_audit_creation_date              2020-01-03
_audit_creation_method            'Materials Studio'
_symmetry_space_group_name_H-M    'P1'
_symmetry_Int_Tables_number       1
_symmetry_cell_setting            triclinic
loop_
_symmetry_equiv_pos_as_xyz
  x,y,z
_cell_length_a                    36.5315
_cell_length_b                    36.6383
_cell_length_c                    34.4152
_cell_angle_alpha                 90.0195
_cell_angle_beta                  89.9977
_cell_angle_gamma                 90.0776
loop_
_atom_site_label
_atom_site_type_symbol
_atom_site_fract_x
_atom_site_fract_y
_atom_site_fract_z
_atom_site_U_iso_or_equiv
_atom_site_adp_type
_atom_site_occupancy
Zn1    Zn    0.20659   0.00000   0.21735   0.00000  Uiso   1.00
Zn2    Zn    0.29340   0.00000   0.78265   0.00000  Uiso   1.00
Zn3    Zn   -0.00000   0.20660   0.21735   0.00000  Uiso   1.00
Zn4    Zn   -0.00000   0.29341   0.78265   0.00000  Uiso   1.00
Zn5    Zn    0.29340   0.00000   0.21735   0.00000  Uiso   1.00
Zn6    Zn    0.20659   0.00000   0.78265   0.00000  Uiso   1.00
Zn7    Zn   -0.00000   0.29341   0.21735   0.00000  Uiso   1.00
Zn8    Zn    0.00000   0.20659   0.78265   0.00000  Uiso   1.00
Zn9    Zn    0.45659   0.25000   0.71735   0.00000  Uiso   1.00
Zn10   Zn    0.04340   0.25000   0.28265   0.00000  Uiso   1.00
Zn11   Zn    0.25000   0.45659   0.71735   0.00000  Uiso   1.00
Zn12   Zn    0.25000   0.04341   0.28265   0.00000  Uiso   1.00
Zn13   Zn    0.04340   0.25000   0.71735   0.00000  Uiso   1.00
Zn14   Zn    0.45659   0.25000   0.28265   0.00000  Uiso   1.00
Zn15   Zn    0.25000   0.04341   0.71735   0.00000  Uiso   1.00
Zn16   Zn    0.25000   0.45659   0.28265   0.00000  Uiso   1.00
C17    C     0.01409   0.28023   0.41839   0.00000  Uiso   1.00
C18    C     0.49775   0.21685   0.58205   0.00000  Uiso   1.00
C19    C     0.22061   0.48389   0.41841   0.00000  Uiso   1.00
C20    C     0.28271   0.00524   0.58206   0.00000  Uiso   1.00
C21    C     0.48591   0.21978   0.41838   0.00000  Uiso   1.00
C22    C     0.00232   0.28317   0.58208   0.00000  Uiso   1.00
C23    C     0.27911   0.01626   0.41849   0.00000  Uiso   1.00
C24    C     0.21694   0.49433   0.58217   0.00000  Uiso   1.00
C25    C     0.25225   0.03315   0.91795   0.00000  Uiso   1.00
C26    C     0.23591   0.46977   0.08161   0.00000  Uiso   1.00
C27    C     0.46728   0.24476   0.91794   0.00000  Uiso   1.00
C28    C     0.02939   0.26611   0.08159   0.00000  Uiso   1.00
C29    C     0.24768   0.46683   0.91793   0.00000  Uiso   1.00
C30    C     0.26409   0.03022   0.08162   0.00000  Uiso   1.00
C31    C     0.03306   0.25567   0.91783   0.00000  Uiso   1.00
C32    C     0.47089   0.23374   0.08151   0.00000  Uiso   1.00
C33    C    -0.00000   0.25000   0.39828   0.00000  Uiso   1.00
C34    C     0.00001   0.25001   0.60200   0.00000  Uiso   1.00
C35    C     0.24990   0.00004   0.39831   0.00000  Uiso   1.00
C36    C     0.24985   0.49991   0.60204   0.00000  Uiso   1.00
C37    C     0.24999   0.49999   0.89800   0.00000  Uiso   1.00
C38    C     0.25000  -0.00000   0.10172   0.00000  Uiso   1.00
C39    C     0.00015   0.25009   0.89796   0.00000  Uiso   1.00
C40    C     0.00010   0.24996   0.10169   0.00000  Uiso   1.00
O41    O     0.25000   0.00000   0.25000   0.00000  Uiso   1.00
O42    O     0.25000   0.00000   0.75000   0.00000  Uiso   1.00
O43    O    -0.00000   0.25000   0.25000   0.00000  Uiso   1.00
O44    O    -0.00000   0.25000   0.75000   0.00000  Uiso   1.00
O45    O     0.25000   0.46963   0.33755   0.00000  Uiso   1.00
O46    O     0.25000   0.03037   0.66245   0.00000  Uiso   1.00
O47    O     0.03036   0.25000   0.33755   0.00000  Uiso   1.00
O48    O     0.46963   0.25000   0.66245   0.00000  Uiso   1.00
O49    O     0.25000   0.03037   0.33755   0.00000  Uiso   1.00
O50    O     0.25000   0.46963   0.66245   0.00000  Uiso   1.00
O51    O     0.46963   0.25000   0.33755   0.00000  Uiso   1.00
O52    O     0.03036   0.25000   0.66245   0.00000  Uiso   1.00
O53    O    -0.00000   0.21964   0.83755   0.00000  Uiso   1.00
O54    O    -0.00000   0.28037   0.16245   0.00000  Uiso   1.00
O55    O     0.28036   0.00000   0.83755   0.00000  Uiso   1.00
O56    O     0.21963   0.00000   0.16245   0.00000  Uiso   1.00
O57    O    -0.00000   0.28037   0.83755   0.00000  Uiso   1.00
O58    O    -0.00000   0.21964   0.16245   0.00000  Uiso   1.00
O59    O     0.21963   0.00000   0.83755   0.00000  Uiso   1.00
O60    O     0.28036   0.00000   0.16245   0.00000  Uiso   1.00
O61    O     0.20724   0.07308   0.27302   0.00000  Uiso   1.00
O62    O     0.29275   0.42692   0.72698   0.00000  Uiso   1.00
O63    O     0.42692   0.20725   0.27302   0.00000  Uiso   1.00
O64    O     0.07307   0.29275   0.72698   0.00000  Uiso   1.00
O65    O     0.29275   0.42692   0.27302   0.00000  Uiso   1.00
O66    O     0.20724   0.07308   0.72698   0.00000  Uiso   1.00
O67    O     0.07307   0.29275   0.27302   0.00000  Uiso   1.00
O68    O     0.42692   0.20725   0.72698   0.00000  Uiso   1.00
O69    O     0.20724   0.42692   0.72698   0.00000  Uiso   1.00
O70    O     0.29275   0.07308   0.27302   0.00000  Uiso   1.00
O71    O     0.42692   0.29276   0.72698   0.00000  Uiso   1.00
O72    O     0.07307   0.20724   0.27302   0.00000  Uiso   1.00
O73    O     0.29275   0.07308   0.72698   0.00000  Uiso   1.00
O74    O     0.20724   0.42692   0.27302   0.00000  Uiso   1.00
O75    O     0.07307   0.20724   0.72698   0.00000  Uiso   1.00
O76    O     0.42692   0.29276   0.27302   0.00000  Uiso   1.00
O77    O     0.45724   0.32308   0.77302   0.00000  Uiso   1.00
O78    O     0.04275   0.17692   0.22698   0.00000  Uiso   1.00
O79    O     0.17692   0.45724   0.77302   0.00000  Uiso   1.00
O80    O     0.32307   0.04276   0.22698   0.00000  Uiso   1.00
O81    O     0.04275   0.17692   0.77302   0.00000  Uiso   1.00
O82    O     0.45724   0.32308   0.22698   0.00000  Uiso   1.00
O83    O     0.32307   0.04276   0.77302   0.00000  Uiso   1.00
O84    O     0.17692   0.45724   0.22698   0.00000  Uiso   1.00
O85    O     0.45724   0.17693   0.22698   0.00000  Uiso   1.00
O86    O     0.04275   0.32307   0.77302   0.00000  Uiso   1.00
O87    O     0.17692   0.04276   0.22698   0.00000  Uiso   1.00
O88    O     0.32307   0.45724   0.77302   0.00000  Uiso   1.00
O89    O     0.04275   0.32307   0.22698   0.00000  Uiso   1.00
O90    O     0.45724   0.17693   0.77302   0.00000  Uiso   1.00
O91    O     0.32307   0.45724   0.22698   0.00000  Uiso   1.00
O92    O     0.17692   0.04276   0.77302   0.00000  Uiso   1.00
C93    C     0.48511   0.18486   0.47998   0.00000  Uiso   1.00
C94    C     0.01764   0.31449   0.52049   0.00000  Uiso   1.00
C95    C     0.31379   0.01988   0.48015   0.00000  Uiso   1.00
C96    C     0.18682   0.47704   0.52042   0.00000  Uiso   1.00
C97    C     0.01491   0.31515   0.48002   0.00000  Uiso   1.00
C98    C     0.48241   0.18553   0.52046   0.00000  Uiso   1.00
C99    C     0.18582   0.48026   0.48002   0.00000  Uiso   1.00
C100   C     0.31274   0.02289   0.52055   0.00000  Uiso   1.00
C101   C     0.23236   0.43551   0.97951   0.00000  Uiso   1.00
C102   C     0.26489   0.06514   0.02002   0.00000  Uiso   1.00
C103   C     0.06318   0.27296   0.97958   0.00000  Uiso   1.00
C104   C     0.43621   0.23013   0.01985   0.00000  Uiso   1.00
C105   C     0.26759   0.06447   0.97954   0.00000  Uiso   1.00
C106   C     0.23509   0.43485   0.01998   0.00000  Uiso   1.00
C107   C     0.43726   0.22711   0.97945   0.00000  Uiso   1.00
C108   C     0.06418   0.26974   0.01998   0.00000  Uiso   1.00
C109   C     0.24998   0.00001   0.35587   0.00000  Uiso   1.00
C110   C     0.24997   0.49998   0.64427   0.00000  Uiso   1.00
C111   C    -0.00000   0.25000   0.35588   0.00000  Uiso   1.00
C112   C     0.00000   0.25000   0.64423   0.00000  Uiso   1.00
C113   C     0.00003   0.25002   0.85573   0.00000  Uiso   1.00
C114   C     0.00002   0.24999   0.14413   0.00000  Uiso   1.00
C115   C     0.25000  -0.00000   0.85577   0.00000  Uiso   1.00
C116   C     0.25000   0.00000   0.14411   0.00000  Uiso   1.00
C117   C     0.17995   0.06997   0.25000   0.00000  Uiso   1.00
C118   C     0.31992   0.42990   0.75034   0.00000  Uiso   1.00
C119   C     0.42983   0.18017   0.24993   0.00000  Uiso   1.00
C120   C     0.07011   0.31988   0.75027   0.00000  Uiso   1.00
C121   C     0.32006   0.43004   0.25000   0.00000  Uiso   1.00
C122   C     0.18008   0.07009   0.75034   0.00000  Uiso   1.00
C123   C     0.07016   0.31984   0.24994   0.00000  Uiso   1.00
C124   C     0.42999   0.18001   0.75000   0.00000  Uiso   1.00
C125   C     0.17989   0.43012   0.74973   0.00000  Uiso   1.00
C126   C     0.32016   0.06983   0.25007   0.00000  Uiso   1.00
C127   C     0.43008   0.32010   0.74966   0.00000  Uiso   1.00
C128   C     0.07005   0.18003   0.25000   0.00000  Uiso   1.00
C129   C     0.32000   0.06999   0.75000   0.00000  Uiso   1.00
C130   C     0.17984   0.43016   0.25005   0.00000  Uiso   1.00
C131   C     0.06992   0.17991   0.74966   0.00000  Uiso   1.00
C132   C     0.42994   0.31996   0.25000   0.00000  Uiso   1.00
C133   C     0.11505   0.41177   0.25569   0.00000  Uiso   1.00
C134   C     0.35919   0.11384   0.78558   0.00000  Uiso   1.00
C135   C     0.11264   0.13960   0.21434   0.00000  Uiso   1.00
C136   C     0.38233   0.35512   0.78428   0.00000  Uiso   1.00
C137   C     0.38491   0.08828   0.25611   0.00000  Uiso   1.00
C138   C     0.14403   0.38324   0.78471   0.00000  Uiso   1.00
C139   C     0.38735   0.36037   0.21434   0.00000  Uiso   1.00
C140   C     0.11739   0.14462   0.78439   0.00000  Uiso   1.00
C141   C     0.14372   0.11688   0.78474   0.00000  Uiso   1.00
C142   C     0.36067   0.38772   0.21445   0.00000  Uiso   1.00
C143   C     0.11642   0.35670   0.78488   0.00000  Uiso   1.00
C144   C     0.41190   0.11543   0.25710   0.00000  Uiso   1.00
C145   C     0.35600   0.38287   0.78464   0.00000  Uiso   1.00
C146   C     0.13934   0.11226   0.21445   0.00000  Uiso   1.00
C147   C     0.38655   0.14056   0.78538   0.00000  Uiso   1.00
C148   C     0.08805   0.38463   0.25672   0.00000  Uiso   1.00
C149   C     0.39081   0.13616   0.71442   0.00000  Uiso   1.00
C150   C     0.13495   0.33823   0.24430   0.00000  Uiso   1.00
C151   C     0.36766   0.39488   0.71572   0.00000  Uiso   1.00
C152   C     0.13735   0.11040   0.28566   0.00000  Uiso   1.00
C153   C     0.10597   0.36676   0.71529   0.00000  Uiso   1.00
C154   C     0.36509   0.16172   0.24389   0.00000  Uiso   1.00
C155   C     0.13261   0.10538   0.71561   0.00000  Uiso   1.00
C156   C     0.36265   0.38963   0.28566   0.00000  Uiso   1.00
C157   C     0.38933   0.36228   0.28555   0.00000  Uiso   1.00
C158   C     0.10628   0.13312   0.71526   0.00000  Uiso   1.00
C159   C     0.33810   0.13457   0.24290   0.00000  Uiso   1.00
C160   C     0.13358   0.39330   0.71512   0.00000  Uiso   1.00
C161   C     0.11066   0.13774   0.28555   0.00000  Uiso   1.00
C162   C     0.39400   0.36713   0.71536   0.00000  Uiso   1.00
C163   C     0.16195   0.36537   0.24327   0.00000  Uiso   1.00
C164   C     0.36344   0.10944   0.71462   0.00000  Uiso   1.00
C165   C     0.49068   0.21764   0.45906   0.00000  Uiso   1.00
C166   C     0.00723   0.28292   0.54138   0.00000  Uiso   1.00
C167   C     0.28149   0.01175   0.45916   0.00000  Uiso   1.00
C168   C     0.21753   0.48982   0.54141   0.00000  Uiso   1.00
C169   C     0.00934   0.28237   0.45908   0.00000  Uiso   1.00
C170   C     0.49282   0.21710   0.54136   0.00000  Uiso   1.00
C171   C     0.21814   0.48840   0.45909   0.00000  Uiso   1.00
C172   C     0.28202   0.01002   0.54141   0.00000  Uiso   1.00
C173   C     0.24276   0.46708   0.95862   0.00000  Uiso   1.00
C174   C     0.25932   0.03236   0.04094   0.00000  Uiso   1.00
C175   C     0.03246   0.26018   0.95859   0.00000  Uiso   1.00
C176   C     0.46851   0.23825   0.04084   0.00000  Uiso   1.00
C177   C     0.25718   0.03290   0.95864   0.00000  Uiso   1.00
C178   C     0.24066   0.46763   0.04092   0.00000  Uiso   1.00
C179   C     0.46798   0.23999   0.95859   0.00000  Uiso   1.00
C180   C     0.03186   0.26160   0.04090   0.00000  Uiso   1.00
C181   C     0.09817   0.34796   0.25081   0.00000  Uiso   1.00
C182   C     0.40211   0.15173   0.74988   0.00000  Uiso   1.00
C183   C     0.15169   0.09787   0.25006   0.00000  Uiso   1.00
C184   C     0.34859   0.40243   0.75033   0.00000  Uiso   1.00
C185   C     0.40182   0.15204   0.25078   0.00000  Uiso   1.00
C186   C     0.09766   0.34846   0.75019   0.00000  Uiso   1.00
C187   C     0.34833   0.40214   0.25006   0.00000  Uiso   1.00
C188   C     0.15141   0.09757   0.75032   0.00000  Uiso   1.00
C189   C     0.09859   0.15243   0.74968   0.00000  Uiso   1.00
C190   C     0.40167   0.34786   0.24994   0.00000  Uiso   1.00
C191   C     0.15233   0.40154   0.74981   0.00000  Uiso   1.00
C192   C     0.34818   0.09796   0.24922   0.00000  Uiso   1.00
C193   C     0.40141   0.34757   0.74967   0.00000  Uiso   1.00
C194   C     0.09831   0.15213   0.24994   0.00000  Uiso   1.00
C195   C     0.34789   0.09827   0.75012   0.00000  Uiso   1.00
C196   C     0.15183   0.40203   0.24919   0.00000  Uiso   1.00
C197   C     0.00001   0.25001   0.47965   0.00000  Uiso   1.00
C198   C     0.00002   0.25001   0.52077   0.00000  Uiso   1.00
C199   C     0.24979   0.00006   0.47970   0.00000  Uiso   1.00
C200   C     0.24977   0.49999   0.52082   0.00000  Uiso   1.00
C201   C     0.24998   0.49999   0.97923   0.00000  Uiso   1.00
C202   C     0.24999   0.49999   0.02035   0.00000  Uiso   1.00
C203   C     0.00023   0.25001   0.97918   0.00000  Uiso   1.00
C204   C     0.00021   0.24994   0.02030   0.00000  Uiso   1.00
Br205  Br    0.49097   0.13714   0.45665   0.00000  Uiso   1.00
Br206  Br    0.04479   0.35419   0.54401   0.00000  Uiso   1.00
Br207  Br    0.36210   0.01713   0.45722   0.00000  Uiso   1.00
Br208  Br    0.14949   0.44629   0.54339   0.00000  Uiso   1.00
Br209  Br    0.00903   0.36287   0.45672   0.00000  Uiso   1.00
Br210  Br    0.45530   0.14582   0.54399   0.00000  Uiso   1.00
Br211  Br    0.13754   0.48322   0.45702   0.00000  Uiso   1.00
Br212  Br    0.35001   0.05346   0.54391   0.00000  Uiso   1.00
Br213  Br    0.20521   0.39581   0.95599   0.00000  Uiso   1.00
Br214  Br    0.25903   0.11286   0.04335   0.00000  Uiso   1.00
Br215  Br    0.10050   0.30371   0.95662   0.00000  Uiso   1.00
Br216  Br    0.38790   0.23287   0.04278   0.00000  Uiso   1.00
Br217  Br    0.29470   0.10418   0.95601   0.00000  Uiso   1.00
Br218  Br    0.24097   0.38713   0.04328   0.00000  Uiso   1.00
Br219  Br    0.39999   0.19654   0.95609   0.00000  Uiso   1.00
Br220  Br    0.11245   0.26678   0.04298   0.00000  Uiso   1.00
N221   N     0.10547   0.44886   0.26426   0.00000  Uiso   1.00
O222   O     0.10341   0.47274   0.23638   0.00000  Uiso   1.00
O223   O     0.09396   0.45751   0.29882   0.00000  Uiso   1.00
N224   N     0.34126   0.10434   0.82139   0.00000  Uiso   1.00
O225   O     0.30577   0.10590   0.82404   0.00000  Uiso   1.00
O226   O     0.36028   0.09465   0.85161   0.00000  Uiso   1.00
N227   N     0.10200   0.15634   0.17830   0.00000  Uiso   1.00
O228   O     0.10487   0.19149   0.17381   0.00000  Uiso   1.00
O229   O     0.08860   0.13667   0.15022   0.00000  Uiso   1.00
N230   N     0.38895   0.33397   0.81873   0.00000  Uiso   1.00
O231   O     0.38827   0.29850   0.81715   0.00000  Uiso   1.00
O232   O     0.39411   0.35000   0.85203   0.00000  Uiso   1.00
N233   N     0.39442   0.05126   0.26510   0.00000  Uiso   1.00
O234   O     0.39634   0.02705   0.23752   0.00000  Uiso   1.00
O235   O     0.40597   0.04297   0.29975   0.00000  Uiso   1.00
N236   N     0.16404   0.39103   0.81977   0.00000  Uiso   1.00
O237   O     0.19965   0.39153   0.81951   0.00000  Uiso   1.00
O238   O     0.14679   0.39632   0.85237   0.00000  Uiso   1.00
N239   N     0.39799   0.34360   0.17830   0.00000  Uiso   1.00
O240   O     0.39514   0.30844   0.17382   0.00000  Uiso   1.00
O241   O     0.41134   0.36326   0.15020   0.00000  Uiso   1.00
N242   N     0.11049   0.16551   0.81898   0.00000  Uiso   1.00
O243   O     0.11119   0.20099   0.81775   0.00000  Uiso   1.00
O244   O     0.10507   0.14923   0.85208   0.00000  Uiso   1.00
N245   N     0.16444   0.11012   0.81938   0.00000  Uiso   1.00
O246   O     0.18545   0.13556   0.83351   0.00000  Uiso   1.00
O247   O     0.15830   0.08080   0.83967   0.00000  Uiso   1.00
N248   N     0.34413   0.39887   0.17858   0.00000  Uiso   1.00
O249   O     0.30985   0.39152   0.17188   0.00000  Uiso   1.00
O250   O     0.36177   0.42043   0.15509   0.00000  Uiso   1.00
N251   N     0.10941   0.33617   0.81960   0.00000  Uiso   1.00
O252   O     0.13481   0.31527   0.83393   0.00000  Uiso   1.00
O253   O     0.07990   0.34227   0.83971   0.00000  Uiso   1.00
N254   N     0.44934   0.10582   0.26514   0.00000  Uiso   1.00
O255   O     0.46466   0.07861   0.24711   0.00000  Uiso   1.00
O256   O     0.46791   0.12350   0.29138   0.00000  Uiso   1.00
N257   N     0.33504   0.38943   0.81917   0.00000  Uiso   1.00
O258   O     0.31397   0.36390   0.83300   0.00000  Uiso   1.00
O259   O     0.34094   0.41870   0.83963   0.00000  Uiso   1.00
N260   N     0.15589   0.10109   0.17858   0.00000  Uiso   1.00
O261   O     0.19018   0.10841   0.17190   0.00000  Uiso   1.00
O262   O     0.13823   0.07956   0.15506   0.00000  Uiso   1.00
N263   N     0.39626   0.15865   0.82084   0.00000  Uiso   1.00
O264   O     0.38551   0.19199   0.82692   0.00000  Uiso   1.00
O265   O     0.41938   0.14359   0.84466   0.00000  Uiso   1.00
N266   N     0.05057   0.39432   0.26444   0.00000  Uiso   1.00
O267   O     0.03535   0.42136   0.24605   0.00000  Uiso   1.00
O268   O     0.03187   0.37688   0.29076   0.00000  Uiso   1.00
N269   N     0.40874   0.14566   0.67861   0.00000  Uiso   1.00
O270   O     0.44423   0.14410   0.67596   0.00000  Uiso   1.00
O271   O     0.38972   0.15535   0.64839   0.00000  Uiso   1.00
N272   N     0.14453   0.30114   0.23574   0.00000  Uiso   1.00
O273   O     0.14658   0.27726   0.26361   0.00000  Uiso   1.00
O274   O     0.15604   0.29249   0.20117   0.00000  Uiso   1.00
N275   N     0.36104   0.41603   0.68127   0.00000  Uiso   1.00
O276   O     0.36173   0.45150   0.68285   0.00000  Uiso   1.00
O277   O     0.35589   0.40000   0.64797   0.00000  Uiso   1.00
N278   N     0.14800   0.09366   0.32170   0.00000  Uiso   1.00
O279   O     0.14513   0.05851   0.32619   0.00000  Uiso   1.00
O280   O     0.16139   0.11333   0.34978   0.00000  Uiso   1.00
N281   N     0.08596   0.35897   0.68023   0.00000  Uiso   1.00
O282   O     0.05035   0.35847   0.68049   0.00000  Uiso   1.00
O283   O     0.10321   0.35368   0.64763   0.00000  Uiso   1.00
N284   N     0.35557   0.19874   0.23490   0.00000  Uiso   1.00
O285   O     0.35366   0.22295   0.26248   0.00000  Uiso   1.00
O286   O     0.34403   0.20703   0.20026   0.00000  Uiso   1.00
N287   N     0.13951   0.08449   0.68102   0.00000  Uiso   1.00
O288   O     0.13881   0.04901   0.68225   0.00000  Uiso   1.00
O289   O     0.14493   0.10077   0.64792   0.00000  Uiso   1.00
N290   N     0.35201   0.40640   0.32170   0.00000  Uiso   1.00
O291   O     0.35486   0.44156   0.32618   0.00000  Uiso   1.00
O292   O     0.33867   0.38675   0.34980   0.00000  Uiso   1.00
N293   N     0.40587   0.35113   0.32142   0.00000  Uiso   1.00
O294   O     0.44015   0.35848   0.32812   0.00000  Uiso   1.00
O295   O     0.38823   0.32956   0.34490   0.00000  Uiso   1.00
N296   N     0.08556   0.13988   0.68062   0.00000  Uiso   1.00
O297   O     0.06455   0.11444   0.66649   0.00000  Uiso   1.00
O298   O     0.09170   0.16920   0.66033   0.00000  Uiso   1.00
N299   N     0.30066   0.14419   0.23486   0.00000  Uiso   1.00
O300   O     0.28534   0.17139   0.25290   0.00000  Uiso   1.00
O301   O     0.28209   0.12650   0.20862   0.00000  Uiso   1.00
N302   N     0.14058   0.41383   0.68040   0.00000  Uiso   1.00
O303   O     0.11519   0.43472   0.66607   0.00000  Uiso   1.00
O304   O     0.17010   0.40774   0.66029   0.00000  Uiso   1.00
N305   N     0.09411   0.14891   0.32142   0.00000  Uiso   1.00
O306   O     0.05982   0.14159   0.32810   0.00000  Uiso   1.00
O307   O     0.11177   0.17044   0.34494   0.00000  Uiso   1.00
N308   N     0.41496   0.36057   0.68083   0.00000  Uiso   1.00
O309   O     0.43602   0.38610   0.66700   0.00000  Uiso   1.00
O310   O     0.40906   0.33130   0.66036   0.00000  Uiso   1.00
N311   N     0.19943   0.35568   0.23555   0.00000  Uiso   1.00
O312   O     0.21465   0.32864   0.25394   0.00000  Uiso   1.00
O313   O     0.21813   0.37312   0.20924   0.00000  Uiso   1.00
N314   N     0.35374   0.09135   0.67917   0.00000  Uiso   1.00
O315   O     0.36448   0.05801   0.67308   0.00000  Uiso   1.00
O316   O     0.33061   0.10641   0.65534   0.00000  Uiso   1.00
Br317  Br    0.04438   0.31461   0.38987   0.00000  Uiso   1.00
Br318  Br    0.00894   0.17290   0.61101   0.00000  Uiso   1.00
Br319  Br    0.18807   0.45147   0.39002   0.00000  Uiso   1.00
Br320  Br    0.32764   0.49767   0.61076   0.00000  Uiso   1.00
Br321  Br    0.45561   0.18541   0.38985   0.00000  Uiso   1.00
Br322  Br    0.49126   0.32713   0.61109   0.00000  Uiso   1.00
Br323  Br    0.31162   0.04877   0.39021   0.00000  Uiso   1.00
Br324  Br    0.17210   0.00038   0.61150   0.00000  Uiso   1.00
Br325  Br    0.24106   0.07710   0.88899   0.00000  Uiso   1.00
Br326  Br    0.20562   0.43539   0.11013   0.00000  Uiso   1.00
Br327  Br    0.42236   0.25233   0.88924   0.00000  Uiso   1.00
Br328  Br    0.06193   0.29853   0.10997   0.00000  Uiso   1.00
Br329  Br    0.25873   0.42287   0.88891   0.00000  Uiso   1.00
Br330  Br    0.29439   0.06459   0.11015   0.00000  Uiso   1.00
Br331  Br    0.07790   0.24962   0.88850   0.00000  Uiso   1.00
Br332  Br    0.43838   0.20123   0.10979   0.00000  Uiso   1.00
Zn333  Zn    0.70659   0.00000   0.21735   0.00000  Uiso   1.00
Zn334  Zn    0.79340   0.00000   0.78265   0.00000  Uiso   1.00
Zn335  Zn    0.50000   0.20660   0.21735   0.00000  Uiso   1.00
Zn336  Zn    0.50000   0.29341   0.78265   0.00000  Uiso   1.00
Zn337  Zn    0.79340   0.00000   0.21735   0.00000  Uiso   1.00
Zn338  Zn    0.70659   0.00000   0.78265   0.00000  Uiso   1.00
Zn339  Zn    0.50000   0.29341   0.21735   0.00000  Uiso   1.00
Zn340  Zn    0.50000   0.20659   0.78265   0.00000  Uiso   1.00
Zn341  Zn    0.95659   0.25000   0.71735   0.00000  Uiso   1.00
Zn342  Zn    0.54340   0.25000   0.28265   0.00000  Uiso   1.00
Zn343  Zn    0.75000   0.45659   0.71735   0.00000  Uiso   1.00
Zn344  Zn    0.75000   0.04341   0.28265   0.00000  Uiso   1.00
Zn345  Zn    0.54340   0.25000   0.71735   0.00000  Uiso   1.00
Zn346  Zn    0.95659   0.25000   0.28265   0.00000  Uiso   1.00
Zn347  Zn    0.75000   0.04341   0.71735   0.00000  Uiso   1.00
Zn348  Zn    0.75000   0.45659   0.28265   0.00000  Uiso   1.00
C349   C     0.51409   0.28023   0.41839   0.00000  Uiso   1.00
C350   C     0.99775   0.21685   0.58205   0.00000  Uiso   1.00
C351   C     0.72061   0.48389   0.41841   0.00000  Uiso   1.00
C352   C     0.78271   0.00524   0.58206   0.00000  Uiso   1.00
C353   C     0.98591   0.21978   0.41838   0.00000  Uiso   1.00
C354   C     0.50232   0.28317   0.58208   0.00000  Uiso   1.00
C355   C     0.77911   0.01626   0.41849   0.00000  Uiso   1.00
C356   C     0.71694   0.49433   0.58217   0.00000  Uiso   1.00
C357   C     0.75225   0.03315   0.91795   0.00000  Uiso   1.00
C358   C     0.73591   0.46977   0.08161   0.00000  Uiso   1.00
C359   C     0.96728   0.24476   0.91794   0.00000  Uiso   1.00
C360   C     0.52939   0.26611   0.08159   0.00000  Uiso   1.00
C361   C     0.74768   0.46683   0.91793   0.00000  Uiso   1.00
C362   C     0.76409   0.03022   0.08162   0.00000  Uiso   1.00
C363   C     0.53306   0.25567   0.91783   0.00000  Uiso   1.00
C364   C     0.97089   0.23374   0.08151   0.00000  Uiso   1.00
C365   C     0.50000   0.25000   0.39828   0.00000  Uiso   1.00
C366   C     0.50001   0.25001   0.60200   0.00000  Uiso   1.00
C367   C     0.74990   0.00004   0.39831   0.00000  Uiso   1.00
C368   C     0.74985   0.49991   0.60204   0.00000  Uiso   1.00
C369   C     0.74999   0.49999   0.89800   0.00000  Uiso   1.00
C370   C     0.75000  -0.00000   0.10172   0.00000  Uiso   1.00
C371   C     0.50015   0.25009   0.89796   0.00000  Uiso   1.00
C372   C     0.50010   0.24996   0.10169   0.00000  Uiso   1.00
O373   O     0.75000   0.00000   0.25000   0.00000  Uiso   1.00
O374   O     0.75000   0.00000   0.75000   0.00000  Uiso   1.00
O375   O     0.50000   0.25000   0.25000   0.00000  Uiso   1.00
O376   O     0.50000   0.25000   0.75000   0.00000  Uiso   1.00
O377   O     0.75000   0.46963   0.33755   0.00000  Uiso   1.00
O378   O     0.75000   0.03037   0.66245   0.00000  Uiso   1.00
O379   O     0.53036   0.25000   0.33755   0.00000  Uiso   1.00
O380   O     0.96963   0.25000   0.66245   0.00000  Uiso   1.00
O381   O     0.75000   0.03037   0.33755   0.00000  Uiso   1.00
O382   O     0.75000   0.46963   0.66245   0.00000  Uiso   1.00
O383   O     0.96963   0.25000   0.33755   0.00000  Uiso   1.00
O384   O     0.53036   0.25000   0.66245   0.00000  Uiso   1.00
O385   O     0.50000   0.21964   0.83755   0.00000  Uiso   1.00
O386   O     0.50000   0.28037   0.16245   0.00000  Uiso   1.00
O387   O     0.78036   0.00000   0.83755   0.00000  Uiso   1.00
O388   O     0.71963   0.00000   0.16245   0.00000  Uiso   1.00
O389   O     0.50000   0.28037   0.83755   0.00000  Uiso   1.00
O390   O     0.50000   0.21964   0.16245   0.00000  Uiso   1.00
O391   O     0.71963   0.00000   0.83755   0.00000  Uiso   1.00
O392   O     0.78036   0.00000   0.16245   0.00000  Uiso   1.00
O393   O     0.70724   0.07308   0.27302   0.00000  Uiso   1.00
O394   O     0.79275   0.42692   0.72698   0.00000  Uiso   1.00
O395   O     0.92692   0.20725   0.27302   0.00000  Uiso   1.00
O396   O     0.57307   0.29275   0.72698   0.00000  Uiso   1.00
O397   O     0.79275   0.42692   0.27302   0.00000  Uiso   1.00
O398   O     0.70724   0.07308   0.72698   0.00000  Uiso   1.00
O399   O     0.57307   0.29275   0.27302   0.00000  Uiso   1.00
O400   O     0.92692   0.20725   0.72698   0.00000  Uiso   1.00
O401   O     0.70724   0.42692   0.72698   0.00000  Uiso   1.00
O402   O     0.79275   0.07308   0.27302   0.00000  Uiso   1.00
O403   O     0.92692   0.29276   0.72698   0.00000  Uiso   1.00
O404   O     0.57307   0.20724   0.27302   0.00000  Uiso   1.00
O405   O     0.79275   0.07308   0.72698   0.00000  Uiso   1.00
O406   O     0.70724   0.42692   0.27302   0.00000  Uiso   1.00
O407   O     0.57307   0.20724   0.72698   0.00000  Uiso   1.00
O408   O     0.92692   0.29276   0.27302   0.00000  Uiso   1.00
O409   O     0.95724   0.32308   0.77302   0.00000  Uiso   1.00
O410   O     0.54275   0.17692   0.22698   0.00000  Uiso   1.00
O411   O     0.67692   0.45724   0.77302   0.00000  Uiso   1.00
O412   O     0.82307   0.04276   0.22698   0.00000  Uiso   1.00
O413   O     0.54275   0.17692   0.77302   0.00000  Uiso   1.00
O414   O     0.95724   0.32308   0.22698   0.00000  Uiso   1.00
O415   O     0.82307   0.04276   0.77302   0.00000  Uiso   1.00
O416   O     0.67692   0.45724   0.22698   0.00000  Uiso   1.00
O417   O     0.95724   0.17693   0.22698   0.00000  Uiso   1.00
O418   O     0.54275   0.32307   0.77302   0.00000  Uiso   1.00
O419   O     0.67692   0.04276   0.22698   0.00000  Uiso   1.00
O420   O     0.82307   0.45724   0.77302   0.00000  Uiso   1.00
O421   O     0.54275   0.32307   0.22698   0.00000  Uiso   1.00
O422   O     0.95724   0.17693   0.77302   0.00000  Uiso   1.00
O423   O     0.82307   0.45724   0.22698   0.00000  Uiso   1.00
O424   O     0.67692   0.04276   0.77302   0.00000  Uiso   1.00
C425   C     0.98511   0.18486   0.47998   0.00000  Uiso   1.00
C426   C     0.51764   0.31449   0.52049   0.00000  Uiso   1.00
C427   C     0.81379   0.01988   0.48015   0.00000  Uiso   1.00
C428   C     0.68682   0.47704   0.52042   0.00000  Uiso   1.00
C429   C     0.51491   0.31515   0.48002   0.00000  Uiso   1.00
C430   C     0.98241   0.18553   0.52046   0.00000  Uiso   1.00
C431   C     0.68582   0.48026   0.48002   0.00000  Uiso   1.00
C432   C     0.81274   0.02289   0.52055   0.00000  Uiso   1.00
C433   C     0.73236   0.43551   0.97951   0.00000  Uiso   1.00
C434   C     0.76489   0.06514   0.02002   0.00000  Uiso   1.00
C435   C     0.56318   0.27296   0.97958   0.00000  Uiso   1.00
C436   C     0.93621   0.23013   0.01985   0.00000  Uiso   1.00
C437   C     0.76759   0.06447   0.97954   0.00000  Uiso   1.00
C438   C     0.73509   0.43485   0.01998   0.00000  Uiso   1.00
C439   C     0.93726   0.22711   0.97945   0.00000  Uiso   1.00
C440   C     0.56418   0.26974   0.01998   0.00000  Uiso   1.00
C441   C     0.74998   0.00001   0.35587   0.00000  Uiso   1.00
C442   C     0.74997   0.49998   0.64427   0.00000  Uiso   1.00
C443   C     0.50000   0.25000   0.35588   0.00000  Uiso   1.00
C444   C     0.50000   0.25000   0.64423   0.00000  Uiso   1.00
C445   C     0.50003   0.25002   0.85573   0.00000  Uiso   1.00
C446   C     0.50002   0.24999   0.14413   0.00000  Uiso   1.00
C447   C     0.75000  -0.00000   0.85577   0.00000  Uiso   1.00
C448   C     0.75000   0.00000   0.14411   0.00000  Uiso   1.00
C449   C     0.67995   0.06997   0.25000   0.00000  Uiso   1.00
C450   C     0.81992   0.42990   0.75034   0.00000  Uiso   1.00
C451   C     0.92983   0.18017   0.24993   0.00000  Uiso   1.00
C452   C     0.57011   0.31988   0.75027   0.00000  Uiso   1.00
C453   C     0.82006   0.43004   0.25000   0.00000  Uiso   1.00
C454   C     0.68008   0.07009   0.75034   0.00000  Uiso   1.00
C455   C     0.57016   0.31984   0.24994   0.00000  Uiso   1.00
C456   C     0.92999   0.18001   0.75000   0.00000  Uiso   1.00
C457   C     0.67989   0.43012   0.74973   0.00000  Uiso   1.00
C458   C     0.82016   0.06983   0.25007   0.00000  Uiso   1.00
C459   C     0.93008   0.32010   0.74966   0.00000  Uiso   1.00
C460   C     0.57005   0.18003   0.25000   0.00000  Uiso   1.00
C461   C     0.82000   0.06999   0.75000   0.00000  Uiso   1.00
C462   C     0.67984   0.43016   0.25005   0.00000  Uiso   1.00
C463   C     0.56992   0.17991   0.74966   0.00000  Uiso   1.00
C464   C     0.92994   0.31996   0.25000   0.00000  Uiso   1.00
C465   C     0.61505   0.41177   0.25569   0.00000  Uiso   1.00
C466   C     0.85919   0.11384   0.78558   0.00000  Uiso   1.00
C467   C     0.61264   0.13960   0.21434   0.00000  Uiso   1.00
C468   C     0.88233   0.35512   0.78428   0.00000  Uiso   1.00
C469   C     0.88491   0.08828   0.25611   0.00000  Uiso   1.00
C470   C     0.64403   0.38324   0.78471   0.00000  Uiso   1.00
C471   C     0.88735   0.36037   0.21434   0.00000  Uiso   1.00
C472   C     0.61739   0.14462   0.78439   0.00000  Uiso   1.00
C473   C     0.64372   0.11688   0.78474   0.00000  Uiso   1.00
C474   C     0.86067   0.38772   0.21445   0.00000  Uiso   1.00
C475   C     0.61642   0.35670   0.78488   0.00000  Uiso   1.00
C476   C     0.91190   0.11543   0.25710   0.00000  Uiso   1.00
C477   C     0.85600   0.38287   0.78464   0.00000  Uiso   1.00
C478   C     0.63934   0.11226   0.21445   0.00000  Uiso   1.00
C479   C     0.88655   0.14056   0.78538   0.00000  Uiso   1.00
C480   C     0.58805   0.38463   0.25672   0.00000  Uiso   1.00
C481   C     0.89081   0.13616   0.71442   0.00000  Uiso   1.00
C482   C     0.63495   0.33823   0.24430   0.00000  Uiso   1.00
C483   C     0.86766   0.39488   0.71572   0.00000  Uiso   1.00
C484   C     0.63735   0.11040   0.28566   0.00000  Uiso   1.00
C485   C     0.60597   0.36676   0.71529   0.00000  Uiso   1.00
C486   C     0.86509   0.16172   0.24389   0.00000  Uiso   1.00
C487   C     0.63261   0.10538   0.71561   0.00000  Uiso   1.00
C488   C     0.86265   0.38963   0.28566   0.00000  Uiso   1.00
C489   C     0.88933   0.36228   0.28555   0.00000  Uiso   1.00
C490   C     0.60628   0.13312   0.71526   0.00000  Uiso   1.00
C491   C     0.83810   0.13457   0.24290   0.00000  Uiso   1.00
C492   C     0.63358   0.39330   0.71512   0.00000  Uiso   1.00
C493   C     0.61066   0.13774   0.28555   0.00000  Uiso   1.00
C494   C     0.89400   0.36713   0.71536   0.00000  Uiso   1.00
C495   C     0.66195   0.36537   0.24327   0.00000  Uiso   1.00
C496   C     0.86344   0.10944   0.71462   0.00000  Uiso   1.00
C497   C     0.99068   0.21764   0.45906   0.00000  Uiso   1.00
C498   C     0.50723   0.28292   0.54138   0.00000  Uiso   1.00
C499   C     0.78149   0.01175   0.45916   0.00000  Uiso   1.00
C500   C     0.71753   0.48982   0.54141   0.00000  Uiso   1.00
C501   C     0.50934   0.28237   0.45908   0.00000  Uiso   1.00
C502   C     0.99282   0.21710   0.54136   0.00000  Uiso   1.00
C503   C     0.71814   0.48840   0.45909   0.00000  Uiso   1.00
C504   C     0.78202   0.01002   0.54141   0.00000  Uiso   1.00
C505   C     0.74276   0.46708   0.95862   0.00000  Uiso   1.00
C506   C     0.75932   0.03236   0.04094   0.00000  Uiso   1.00
C507   C     0.53246   0.26018   0.95859   0.00000  Uiso   1.00
C508   C     0.96851   0.23825   0.04084   0.00000  Uiso   1.00
C509   C     0.75718   0.03290   0.95864   0.00000  Uiso   1.00
C510   C     0.74066   0.46763   0.04092   0.00000  Uiso   1.00
C511   C     0.96798   0.23999   0.95859   0.00000  Uiso   1.00
C512   C     0.53186   0.26160   0.04090   0.00000  Uiso   1.00
C513   C     0.59817   0.34796   0.25081   0.00000  Uiso   1.00
C514   C     0.90211   0.15173   0.74988   0.00000  Uiso   1.00
C515   C     0.65169   0.09787   0.25006   0.00000  Uiso   1.00
C516   C     0.84859   0.40243   0.75033   0.00000  Uiso   1.00
C517   C     0.90182   0.15204   0.25078   0.00000  Uiso   1.00
C518   C     0.59766   0.34846   0.75019   0.00000  Uiso   1.00
C519   C     0.84833   0.40214   0.25006   0.00000  Uiso   1.00
C520   C     0.65141   0.09757   0.75032   0.00000  Uiso   1.00
C521   C     0.59859   0.15243   0.74968   0.00000  Uiso   1.00
C522   C     0.90167   0.34786   0.24994   0.00000  Uiso   1.00
C523   C     0.65233   0.40154   0.74981   0.00000  Uiso   1.00
C524   C     0.84818   0.09796   0.24922   0.00000  Uiso   1.00
C525   C     0.90141   0.34757   0.74967   0.00000  Uiso   1.00
C526   C     0.59831   0.15213   0.24994   0.00000  Uiso   1.00
C527   C     0.84789   0.09827   0.75012   0.00000  Uiso   1.00
C528   C     0.65183   0.40203   0.24919   0.00000  Uiso   1.00
C529   C     0.50001   0.25001   0.47965   0.00000  Uiso   1.00
C530   C     0.50002   0.25001   0.52077   0.00000  Uiso   1.00
C531   C     0.74979   0.00006   0.47970   0.00000  Uiso   1.00
C532   C     0.74977   0.49999   0.52082   0.00000  Uiso   1.00
C533   C     0.74998   0.49999   0.97923   0.00000  Uiso   1.00
C534   C     0.74999   0.49999   0.02035   0.00000  Uiso   1.00
C535   C     0.50023   0.25001   0.97918   0.00000  Uiso   1.00
C536   C     0.50021   0.24994   0.02030   0.00000  Uiso   1.00
Br537  Br    0.99097   0.13714   0.45665   0.00000  Uiso   1.00
Br538  Br    0.54479   0.35419   0.54401   0.00000  Uiso   1.00
Br539  Br    0.86210   0.01713   0.45722   0.00000  Uiso   1.00
Br540  Br    0.64949   0.44629   0.54339   0.00000  Uiso   1.00
Br541  Br    0.50903   0.36287   0.45672   0.00000  Uiso   1.00
Br542  Br    0.95530   0.14582   0.54399   0.00000  Uiso   1.00
Br543  Br    0.63754   0.48322   0.45702   0.00000  Uiso   1.00
Br544  Br    0.85001   0.05346   0.54391   0.00000  Uiso   1.00
Br545  Br    0.70521   0.39581   0.95599   0.00000  Uiso   1.00
Br546  Br    0.75903   0.11286   0.04335   0.00000  Uiso   1.00
Br547  Br    0.60050   0.30371   0.95662   0.00000  Uiso   1.00
Br548  Br    0.88790   0.23287   0.04278   0.00000  Uiso   1.00
Br549  Br    0.79470   0.10418   0.95601   0.00000  Uiso   1.00
Br550  Br    0.74097   0.38713   0.04328   0.00000  Uiso   1.00
Br551  Br    0.89999   0.19654   0.95609   0.00000  Uiso   1.00
Br552  Br    0.61245   0.26678   0.04298   0.00000  Uiso   1.00
N553   N     0.60547   0.44886   0.26426   0.00000  Uiso   1.00
O554   O     0.60341   0.47274   0.23638   0.00000  Uiso   1.00
O555   O     0.59396   0.45751   0.29882   0.00000  Uiso   1.00
N556   N     0.84126   0.10434   0.82139   0.00000  Uiso   1.00
O557   O     0.80577   0.10590   0.82404   0.00000  Uiso   1.00
O558   O     0.86028   0.09465   0.85161   0.00000  Uiso   1.00
N559   N     0.60200   0.15634   0.17830   0.00000  Uiso   1.00
O560   O     0.60487   0.19149   0.17381   0.00000  Uiso   1.00
O561   O     0.58860   0.13667   0.15022   0.00000  Uiso   1.00
N562   N     0.88895   0.33397   0.81873   0.00000  Uiso   1.00
O563   O     0.88827   0.29850   0.81715   0.00000  Uiso   1.00
O564   O     0.89411   0.35000   0.85203   0.00000  Uiso   1.00
N565   N     0.89442   0.05126   0.26510   0.00000  Uiso   1.00
O566   O     0.89634   0.02705   0.23752   0.00000  Uiso   1.00
O567   O     0.90597   0.04297   0.29975   0.00000  Uiso   1.00
N568   N     0.66404   0.39103   0.81977   0.00000  Uiso   1.00
O569   O     0.69965   0.39153   0.81951   0.00000  Uiso   1.00
O570   O     0.64679   0.39632   0.85237   0.00000  Uiso   1.00
N571   N     0.89799   0.34360   0.17830   0.00000  Uiso   1.00
O572   O     0.89514   0.30844   0.17382   0.00000  Uiso   1.00
O573   O     0.91134   0.36326   0.15020   0.00000  Uiso   1.00
N574   N     0.61049   0.16551   0.81898   0.00000  Uiso   1.00
O575   O     0.61119   0.20099   0.81775   0.00000  Uiso   1.00
O576   O     0.60507   0.14923   0.85208   0.00000  Uiso   1.00
N577   N     0.66444   0.11012   0.81938   0.00000  Uiso   1.00
O578   O     0.68545   0.13556   0.83351   0.00000  Uiso   1.00
O579   O     0.65830   0.08080   0.83967   0.00000  Uiso   1.00
N580   N     0.84413   0.39887   0.17858   0.00000  Uiso   1.00
O581   O     0.80985   0.39152   0.17188   0.00000  Uiso   1.00
O582   O     0.86177   0.42043   0.15509   0.00000  Uiso   1.00
N583   N     0.60941   0.33617   0.81960   0.00000  Uiso   1.00
O584   O     0.63481   0.31527   0.83393   0.00000  Uiso   1.00
O585   O     0.57990   0.34227   0.83971   0.00000  Uiso   1.00
N586   N     0.94934   0.10582   0.26514   0.00000  Uiso   1.00
O587   O     0.96466   0.07861   0.24711   0.00000  Uiso   1.00
O588   O     0.96791   0.12350   0.29138   0.00000  Uiso   1.00
N589   N     0.83504   0.38943   0.81917   0.00000  Uiso   1.00
O590   O     0.81397   0.36390   0.83300   0.00000  Uiso   1.00
O591   O     0.84094   0.41870   0.83963   0.00000  Uiso   1.00
N592   N     0.65589   0.10109   0.17858   0.00000  Uiso   1.00
O593   O     0.69018   0.10841   0.17190   0.00000  Uiso   1.00
O594   O     0.63823   0.07956   0.15506   0.00000  Uiso   1.00
N595   N     0.89626   0.15865   0.82084   0.00000  Uiso   1.00
O596   O     0.88551   0.19199   0.82692   0.00000  Uiso   1.00
O597   O     0.91938   0.14359   0.84466   0.00000  Uiso   1.00
N598   N     0.55057   0.39432   0.26444   0.00000  Uiso   1.00
O599   O     0.53535   0.42136   0.24605   0.00000  Uiso   1.00
O600   O     0.53187   0.37688   0.29076   0.00000  Uiso   1.00
N601   N     0.90874   0.14566   0.67861   0.00000  Uiso   1.00
O602   O     0.94423   0.14410   0.67596   0.00000  Uiso   1.00
O603   O     0.88972   0.15535   0.64839   0.00000  Uiso   1.00
N604   N     0.64453   0.30114   0.23574   0.00000  Uiso   1.00
O605   O     0.64658   0.27726   0.26361   0.00000  Uiso   1.00
O606   O     0.65604   0.29249   0.20117   0.00000  Uiso   1.00
N607   N     0.86104   0.41603   0.68127   0.00000  Uiso   1.00
O608   O     0.86173   0.45150   0.68285   0.00000  Uiso   1.00
O609   O     0.85589   0.40000   0.64797   0.00000  Uiso   1.00
N610   N     0.64800   0.09366   0.32170   0.00000  Uiso   1.00
O611   O     0.64513   0.05851   0.32619   0.00000  Uiso   1.00
O612   O     0.66139   0.11333   0.34978   0.00000  Uiso   1.00
N613   N     0.58596   0.35897   0.68023   0.00000  Uiso   1.00
O614   O     0.55035   0.35847   0.68049   0.00000  Uiso   1.00
O615   O     0.60321   0.35368   0.64763   0.00000  Uiso   1.00
N616   N     0.85557   0.19874   0.23490   0.00000  Uiso   1.00
O617   O     0.85366   0.22295   0.26248   0.00000  Uiso   1.00
O618   O     0.84403   0.20703   0.20026   0.00000  Uiso   1.00
N619   N     0.63951   0.08449   0.68102   0.00000  Uiso   1.00
O620   O     0.63881   0.04901   0.68225   0.00000  Uiso   1.00
O621   O     0.64493   0.10077   0.64792   0.00000  Uiso   1.00
N622   N     0.85201   0.40640   0.32170   0.00000  Uiso   1.00
O623   O     0.85486   0.44156   0.32618   0.00000  Uiso   1.00
O624   O     0.83867   0.38675   0.34980   0.00000  Uiso   1.00
N625   N     0.90587   0.35113   0.32142   0.00000  Uiso   1.00
O626   O     0.94015   0.35848   0.32812   0.00000  Uiso   1.00
O627   O     0.88823   0.32956   0.34490   0.00000  Uiso   1.00
N628   N     0.58556   0.13988   0.68062   0.00000  Uiso   1.00
O629   O     0.56455   0.11444   0.66649   0.00000  Uiso   1.00
O630   O     0.59170   0.16920   0.66033   0.00000  Uiso   1.00
N631   N     0.80066   0.14419   0.23486   0.00000  Uiso   1.00
O632   O     0.78534   0.17139   0.25290   0.00000  Uiso   1.00
O633   O     0.78209   0.12650   0.20862   0.00000  Uiso   1.00
N634   N     0.64058   0.41383   0.68040   0.00000  Uiso   1.00
O635   O     0.61519   0.43472   0.66607   0.00000  Uiso   1.00
O636   O     0.67010   0.40774   0.66029   0.00000  Uiso   1.00
N637   N     0.59411   0.14891   0.32142   0.00000  Uiso   1.00
O638   O     0.55982   0.14159   0.32810   0.00000  Uiso   1.00
O639   O     0.61177   0.17044   0.34494   0.00000  Uiso   1.00
N640   N     0.91496   0.36057   0.68083   0.00000  Uiso   1.00
O641   O     0.93602   0.38610   0.66700   0.00000  Uiso   1.00
O642   O     0.90906   0.33130   0.66036   0.00000  Uiso   1.00
N643   N     0.69943   0.35568   0.23555   0.00000  Uiso   1.00
O644   O     0.71465   0.32864   0.25394   0.00000  Uiso   1.00
O645   O     0.71813   0.37312   0.20924   0.00000  Uiso   1.00
N646   N     0.85374   0.09135   0.67917   0.00000  Uiso   1.00
O647   O     0.86448   0.05801   0.67308   0.00000  Uiso   1.00
O648   O     0.83061   0.10641   0.65534   0.00000  Uiso   1.00
Br649  Br    0.54438   0.31461   0.38987   0.00000  Uiso   1.00
Br650  Br    0.50894   0.17290   0.61101   0.00000  Uiso   1.00
Br651  Br    0.68807   0.45147   0.39002   0.00000  Uiso   1.00
Br652  Br    0.82764   0.49767   0.61076   0.00000  Uiso   1.00
Br653  Br    0.95561   0.18541   0.38985   0.00000  Uiso   1.00
Br654  Br    0.99126   0.32713   0.61109   0.00000  Uiso   1.00
Br655  Br    0.81162   0.04877   0.39021   0.00000  Uiso   1.00
Br656  Br    0.67210   0.00038   0.61150   0.00000  Uiso   1.00
Br657  Br    0.74106   0.07710   0.88899   0.00000  Uiso   1.00
Br658  Br    0.70562   0.43539   0.11013   0.00000  Uiso   1.00
Br659  Br    0.92236   0.25233   0.88924   0.00000  Uiso   1.00
Br660  Br    0.56193   0.29853   0.10997   0.00000  Uiso   1.00
Br661  Br    0.75873   0.42287   0.88891   0.00000  Uiso   1.00
Br662  Br    0.79439   0.06459   0.11015   0.00000  Uiso   1.00
Br663  Br    0.57790   0.24962   0.88850   0.00000  Uiso   1.00
Br664  Br    0.93838   0.20123   0.10979   0.00000  Uiso   1.00
Zn665  Zn    0.20659   0.50000   0.21735   0.00000  Uiso   1.00
Zn666  Zn    0.29340   0.50000   0.78265   0.00000  Uiso   1.00
Zn667  Zn   -0.00000   0.70660   0.21735   0.00000  Uiso   1.00
Zn668  Zn   -0.00000   0.79341   0.78265   0.00000  Uiso   1.00
Zn669  Zn    0.29340   0.50000   0.21735   0.00000  Uiso   1.00
Zn670  Zn    0.20659   0.50000   0.78265   0.00000  Uiso   1.00
Zn671  Zn   -0.00000   0.79341   0.21735   0.00000  Uiso   1.00
Zn672  Zn    0.00000   0.70659   0.78265   0.00000  Uiso   1.00
Zn673  Zn    0.45659   0.75000   0.71735   0.00000  Uiso   1.00
Zn674  Zn    0.04340   0.75000   0.28265   0.00000  Uiso   1.00
Zn675  Zn    0.25000   0.95659   0.71735   0.00000  Uiso   1.00
Zn676  Zn    0.25000   0.54341   0.28265   0.00000  Uiso   1.00
Zn677  Zn    0.04340   0.75000   0.71735   0.00000  Uiso   1.00
Zn678  Zn    0.45659   0.75000   0.28265   0.00000  Uiso   1.00
Zn679  Zn    0.25000   0.54341   0.71735   0.00000  Uiso   1.00
Zn680  Zn    0.25000   0.95659   0.28265   0.00000  Uiso   1.00
C681   C     0.01409   0.78023   0.41839   0.00000  Uiso   1.00
C682   C     0.49775   0.71685   0.58205   0.00000  Uiso   1.00
C683   C     0.22061   0.98389   0.41841   0.00000  Uiso   1.00
C684   C     0.28271   0.50524   0.58206   0.00000  Uiso   1.00
C685   C     0.48591   0.71978   0.41838   0.00000  Uiso   1.00
C686   C     0.00232   0.78317   0.58208   0.00000  Uiso   1.00
C687   C     0.27911   0.51626   0.41849   0.00000  Uiso   1.00
C688   C     0.21694   0.99433   0.58217   0.00000  Uiso   1.00
C689   C     0.25225   0.53315   0.91795   0.00000  Uiso   1.00
C690   C     0.23591   0.96977   0.08161   0.00000  Uiso   1.00
C691   C     0.46728   0.74476   0.91794   0.00000  Uiso   1.00
C692   C     0.02939   0.76611   0.08159   0.00000  Uiso   1.00
C693   C     0.24768   0.96683   0.91793   0.00000  Uiso   1.00
C694   C     0.26409   0.53022   0.08162   0.00000  Uiso   1.00
C695   C     0.03306   0.75567   0.91783   0.00000  Uiso   1.00
C696   C     0.47089   0.73374   0.08151   0.00000  Uiso   1.00
C697   C    -0.00000   0.75000   0.39828   0.00000  Uiso   1.00
C698   C     0.00001   0.75001   0.60200   0.00000  Uiso   1.00
C699   C     0.24990   0.50004   0.39831   0.00000  Uiso   1.00
C700   C     0.24985   0.99991   0.60204   0.00000  Uiso   1.00
C701   C     0.24999   0.99999   0.89800   0.00000  Uiso   1.00
C702   C     0.25000   0.50000   0.10172   0.00000  Uiso   1.00
C703   C     0.00015   0.75009   0.89796   0.00000  Uiso   1.00
C704   C     0.00010   0.74996   0.10169   0.00000  Uiso   1.00
O705   O     0.25000   0.50000   0.25000   0.00000  Uiso   1.00
O706   O     0.25000   0.50000   0.75000   0.00000  Uiso   1.00
O707   O    -0.00000   0.75000   0.25000   0.00000  Uiso   1.00
O708   O    -0.00000   0.75000   0.75000   0.00000  Uiso   1.00
O709   O     0.25000   0.96963   0.33755   0.00000  Uiso   1.00
O710   O     0.25000   0.53037   0.66245   0.00000  Uiso   1.00
O711   O     0.03036   0.75000   0.33755   0.00000  Uiso   1.00
O712   O     0.46963   0.75000   0.66245   0.00000  Uiso   1.00
O713   O     0.25000   0.53037   0.33755   0.00000  Uiso   1.00
O714   O     0.25000   0.96963   0.66245   0.00000  Uiso   1.00
O715   O     0.46963   0.75000   0.33755   0.00000  Uiso   1.00
O716   O     0.03036   0.75000   0.66245   0.00000  Uiso   1.00
O717   O    -0.00000   0.71964   0.83755   0.00000  Uiso   1.00
O718   O    -0.00000   0.78037   0.16245   0.00000  Uiso   1.00
O719   O     0.28036   0.50000   0.83755   0.00000  Uiso   1.00
O720   O     0.21963   0.50000   0.16245   0.00000  Uiso   1.00
O721   O    -0.00000   0.78037   0.83755   0.00000  Uiso   1.00
O722   O    -0.00000   0.71964   0.16245   0.00000  Uiso   1.00
O723   O     0.21963   0.50000   0.83755   0.00000  Uiso   1.00
O724   O     0.28036   0.50000   0.16245   0.00000  Uiso   1.00
O725   O     0.20724   0.57308   0.27302   0.00000  Uiso   1.00
O726   O     0.29275   0.92692   0.72698   0.00000  Uiso   1.00
O727   O     0.42692   0.70725   0.27302   0.00000  Uiso   1.00
O728   O     0.07307   0.79275   0.72698   0.00000  Uiso   1.00
O729   O     0.29275   0.92692   0.27302   0.00000  Uiso   1.00
O730   O     0.20724   0.57308   0.72698   0.00000  Uiso   1.00
O731   O     0.07307   0.79275   0.27302   0.00000  Uiso   1.00
O732   O     0.42692   0.70725   0.72698   0.00000  Uiso   1.00
O733   O     0.20724   0.92692   0.72698   0.00000  Uiso   1.00
O734   O     0.29275   0.57308   0.27302   0.00000  Uiso   1.00
O735   O     0.42692   0.79276   0.72698   0.00000  Uiso   1.00
O736   O     0.07307   0.70724   0.27302   0.00000  Uiso   1.00
O737   O     0.29275   0.57308   0.72698   0.00000  Uiso   1.00
O738   O     0.20724   0.92692   0.27302   0.00000  Uiso   1.00
O739   O     0.07307   0.70724   0.72698   0.00000  Uiso   1.00
O740   O     0.42692   0.79276   0.27302   0.00000  Uiso   1.00
O741   O     0.45724   0.82308   0.77302   0.00000  Uiso   1.00
O742   O     0.04275   0.67692   0.22698   0.00000  Uiso   1.00
O743   O     0.17692   0.95724   0.77302   0.00000  Uiso   1.00
O744   O     0.32307   0.54276   0.22698   0.00000  Uiso   1.00
O745   O     0.04275   0.67692   0.77302   0.00000  Uiso   1.00
O746   O     0.45724   0.82308   0.22698   0.00000  Uiso   1.00
O747   O     0.32307   0.54276   0.77302   0.00000  Uiso   1.00
O748   O     0.17692   0.95724   0.22698   0.00000  Uiso   1.00
O749   O     0.45724   0.67693   0.22698   0.00000  Uiso   1.00
O750   O     0.04275   0.82307   0.77302   0.00000  Uiso   1.00
O751   O     0.17692   0.54276   0.22698   0.00000  Uiso   1.00
O752   O     0.32307   0.95724   0.77302   0.00000  Uiso   1.00
O753   O     0.04275   0.82307   0.22698   0.00000  Uiso   1.00
O754   O     0.45724   0.67693   0.77302   0.00000  Uiso   1.00
O755   O     0.32307   0.95724   0.22698   0.00000  Uiso   1.00
O756   O     0.17692   0.54276   0.77302   0.00000  Uiso   1.00
C757   C     0.48511   0.68486   0.47998   0.00000  Uiso   1.00
C758   C     0.01764   0.81449   0.52049   0.00000  Uiso   1.00
C759   C     0.31379   0.51988   0.48015   0.00000  Uiso   1.00
C760   C     0.18682   0.97704   0.52042   0.00000  Uiso   1.00
C761   C     0.01491   0.81515   0.48002   0.00000  Uiso   1.00
C762   C     0.48241   0.68553   0.52046   0.00000  Uiso   1.00
C763   C     0.18582   0.98026   0.48002   0.00000  Uiso   1.00
C764   C     0.31274   0.52289   0.52055   0.00000  Uiso   1.00
C765   C     0.23236   0.93551   0.97951   0.00000  Uiso   1.00
C766   C     0.26489   0.56514   0.02002   0.00000  Uiso   1.00
C767   C     0.06318   0.77296   0.97958   0.00000  Uiso   1.00
C768   C     0.43621   0.73013   0.01985   0.00000  Uiso   1.00
C769   C     0.26759   0.56447   0.97954   0.00000  Uiso   1.00
C770   C     0.23509   0.93485   0.01998   0.00000  Uiso   1.00
C771   C     0.43726   0.72711   0.97945   0.00000  Uiso   1.00
C772   C     0.06418   0.76974   0.01998   0.00000  Uiso   1.00
C773   C     0.24998   0.50001   0.35587   0.00000  Uiso   1.00
C774   C     0.24997   0.99998   0.64427   0.00000  Uiso   1.00
C775   C    -0.00000   0.75000   0.35588   0.00000  Uiso   1.00
C776   C     0.00000   0.75000   0.64423   0.00000  Uiso   1.00
C777   C     0.00003   0.75002   0.85573   0.00000  Uiso   1.00
C778   C     0.00002   0.74999   0.14413   0.00000  Uiso   1.00
C779   C     0.25000   0.50000   0.85577   0.00000  Uiso   1.00
C780   C     0.25000   0.50000   0.14411   0.00000  Uiso   1.00
C781   C     0.17995   0.56997   0.25000   0.00000  Uiso   1.00
C782   C     0.31992   0.92990   0.75034   0.00000  Uiso   1.00
C783   C     0.42983   0.68017   0.24993   0.00000  Uiso   1.00
C784   C     0.07011   0.81988   0.75027   0.00000  Uiso   1.00
C785   C     0.32006   0.93004   0.25000   0.00000  Uiso   1.00
C786   C     0.18008   0.57009   0.75034   0.00000  Uiso   1.00
C787   C     0.07016   0.81984   0.24994   0.00000  Uiso   1.00
C788   C     0.42999   0.68001   0.75000   0.00000  Uiso   1.00
C789   C     0.17989   0.93012   0.74973   0.00000  Uiso   1.00
C790   C     0.32016   0.56983   0.25007   0.00000  Uiso   1.00
C791   C     0.43008   0.82010   0.74966   0.00000  Uiso   1.00
C792   C     0.07005   0.68003   0.25000   0.00000  Uiso   1.00
C793   C     0.32000   0.56999   0.75000   0.00000  Uiso   1.00
C794   C     0.17984   0.93016   0.25005   0.00000  Uiso   1.00
C795   C     0.06992   0.67991   0.74966   0.00000  Uiso   1.00
C796   C     0.42994   0.81996   0.25000   0.00000  Uiso   1.00
C797   C     0.11505   0.91177   0.25569   0.00000  Uiso   1.00
C798   C     0.35919   0.61384   0.78558   0.00000  Uiso   1.00
C799   C     0.11264   0.63960   0.21434   0.00000  Uiso   1.00
C800   C     0.38233   0.85512   0.78428   0.00000  Uiso   1.00
C801   C     0.38491   0.58828   0.25611   0.00000  Uiso   1.00
C802   C     0.14403   0.88324   0.78471   0.00000  Uiso   1.00
C803   C     0.38735   0.86037   0.21434   0.00000  Uiso   1.00
C804   C     0.11739   0.64462   0.78439   0.00000  Uiso   1.00
C805   C     0.14372   0.61688   0.78474   0.00000  Uiso   1.00
C806   C     0.36067   0.88772   0.21445   0.00000  Uiso   1.00
C807   C     0.11642   0.85670   0.78488   0.00000  Uiso   1.00
C808   C     0.41190   0.61543   0.25710   0.00000  Uiso   1.00
C809   C     0.35600   0.88287   0.78464   0.00000  Uiso   1.00
C810   C     0.13934   0.61226   0.21445   0.00000  Uiso   1.00
C811   C     0.38655   0.64056   0.78538   0.00000  Uiso   1.00
C812   C     0.08805   0.88463   0.25672   0.00000  Uiso   1.00
C813   C     0.39081   0.63616   0.71442   0.00000  Uiso   1.00
C814   C     0.13495   0.83823   0.24430   0.00000  Uiso   1.00
C815   C     0.36766   0.89488   0.71572   0.00000  Uiso   1.00
C816   C     0.13735   0.61040   0.28566   0.00000  Uiso   1.00
C817   C     0.10597   0.86676   0.71529   0.00000  Uiso   1.00
C818   C     0.36509   0.66172   0.24389   0.00000  Uiso   1.00
C819   C     0.13261   0.60538   0.71561   0.00000  Uiso   1.00
C820   C     0.36265   0.88963   0.28566   0.00000  Uiso   1.00
C821   C     0.38933   0.86228   0.28555   0.00000  Uiso   1.00
C822   C     0.10628   0.63312   0.71526   0.00000  Uiso   1.00
C823   C     0.33810   0.63457   0.24290   0.00000  Uiso   1.00
C824   C     0.13358   0.89330   0.71512   0.00000  Uiso   1.00
C825   C     0.11066   0.63774   0.28555   0.00000  Uiso   1.00
C826   C     0.39400   0.86713   0.71536   0.00000  Uiso   1.00
C827   C     0.16195   0.86537   0.24327   0.00000  Uiso   1.00
C828   C     0.36344   0.60944   0.71462   0.00000  Uiso   1.00
C829   C     0.49068   0.71764   0.45906   0.00000  Uiso   1.00
C830   C     0.00723   0.78292   0.54138   0.00000  Uiso   1.00
C831   C     0.28149   0.51175   0.45916   0.00000  Uiso   1.00
C832   C     0.21753   0.98982   0.54141   0.00000  Uiso   1.00
C833   C     0.00934   0.78237   0.45908   0.00000  Uiso   1.00
C834   C     0.49282   0.71710   0.54136   0.00000  Uiso   1.00
C835   C     0.21814   0.98840   0.45909   0.00000  Uiso   1.00
C836   C     0.28202   0.51002   0.54141   0.00000  Uiso   1.00
C837   C     0.24276   0.96708   0.95862   0.00000  Uiso   1.00
C838   C     0.25932   0.53236   0.04094   0.00000  Uiso   1.00
C839   C     0.03246   0.76018   0.95859   0.00000  Uiso   1.00
C840   C     0.46851   0.73825   0.04084   0.00000  Uiso   1.00
C841   C     0.25718   0.53290   0.95864   0.00000  Uiso   1.00
C842   C     0.24066   0.96763   0.04092   0.00000  Uiso   1.00
C843   C     0.46798   0.73999   0.95859   0.00000  Uiso   1.00
C844   C     0.03186   0.76160   0.04090   0.00000  Uiso   1.00
C845   C     0.09817   0.84796   0.25081   0.00000  Uiso   1.00
C846   C     0.40211   0.65173   0.74988   0.00000  Uiso   1.00
C847   C     0.15169   0.59787   0.25006   0.00000  Uiso   1.00
C848   C     0.34859   0.90243   0.75033   0.00000  Uiso   1.00
C849   C     0.40182   0.65204   0.25078   0.00000  Uiso   1.00
C850   C     0.09766   0.84846   0.75019   0.00000  Uiso   1.00
C851   C     0.34833   0.90214   0.25006   0.00000  Uiso   1.00
C852   C     0.15141   0.59757   0.75032   0.00000  Uiso   1.00
C853   C     0.09859   0.65243   0.74968   0.00000  Uiso   1.00
C854   C     0.40167   0.84786   0.24994   0.00000  Uiso   1.00
C855   C     0.15233   0.90154   0.74981   0.00000  Uiso   1.00
C856   C     0.34818   0.59796   0.24922   0.00000  Uiso   1.00
C857   C     0.40141   0.84757   0.74967   0.00000  Uiso   1.00
C858   C     0.09831   0.65213   0.24994   0.00000  Uiso   1.00
C859   C     0.34789   0.59827   0.75012   0.00000  Uiso   1.00
C860   C     0.15183   0.90203   0.24919   0.00000  Uiso   1.00
C861   C     0.00001   0.75001   0.47965   0.00000  Uiso   1.00
C862   C     0.00002   0.75001   0.52077   0.00000  Uiso   1.00
C863   C     0.24979   0.50006   0.47970   0.00000  Uiso   1.00
C864   C     0.24977   0.99999   0.52082   0.00000  Uiso   1.00
C865   C     0.24998   0.99999   0.97923   0.00000  Uiso   1.00
C866   C     0.24999   0.99999   0.02035   0.00000  Uiso   1.00
C867   C     0.00023   0.75001   0.97918   0.00000  Uiso   1.00
C868   C     0.00021   0.74994   0.02030   0.00000  Uiso   1.00
Br869  Br    0.49097   0.63714   0.45665   0.00000  Uiso   1.00
Br870  Br    0.04479   0.85419   0.54401   0.00000  Uiso   1.00
Br871  Br    0.36210   0.51713   0.45722   0.00000  Uiso   1.00
Br872  Br    0.14949   0.94629   0.54339   0.00000  Uiso   1.00
Br873  Br    0.00903   0.86287   0.45672   0.00000  Uiso   1.00
Br874  Br    0.45530   0.64582   0.54399   0.00000  Uiso   1.00
Br875  Br    0.13754   0.98322   0.45702   0.00000  Uiso   1.00
Br876  Br    0.35001   0.55346   0.54391   0.00000  Uiso   1.00
Br877  Br    0.20521   0.89581   0.95599   0.00000  Uiso   1.00
Br878  Br    0.25903   0.61286   0.04335   0.00000  Uiso   1.00
Br879  Br    0.10050   0.80371   0.95662   0.00000  Uiso   1.00
Br880  Br    0.38790   0.73287   0.04278   0.00000  Uiso   1.00
Br881  Br    0.29470   0.60418   0.95601   0.00000  Uiso   1.00
Br882  Br    0.24097   0.88713   0.04328   0.00000  Uiso   1.00
Br883  Br    0.39999   0.69654   0.95609   0.00000  Uiso   1.00
Br884  Br    0.11245   0.76678   0.04298   0.00000  Uiso   1.00
N885   N     0.10547   0.94886   0.26426   0.00000  Uiso   1.00
O886   O     0.10341   0.97274   0.23638   0.00000  Uiso   1.00
O887   O     0.09396   0.95751   0.29882   0.00000  Uiso   1.00
N888   N     0.34126   0.60434   0.82139   0.00000  Uiso   1.00
O889   O     0.30577   0.60590   0.82404   0.00000  Uiso   1.00
O890   O     0.36028   0.59465   0.85161   0.00000  Uiso   1.00
N891   N     0.10200   0.65634   0.17830   0.00000  Uiso   1.00
O892   O     0.10487   0.69149   0.17381   0.00000  Uiso   1.00
O893   O     0.08860   0.63667   0.15022   0.00000  Uiso   1.00
N894   N     0.38895   0.83397   0.81873   0.00000  Uiso   1.00
O895   O     0.38827   0.79850   0.81715   0.00000  Uiso   1.00
O896   O     0.39411   0.85000   0.85203   0.00000  Uiso   1.00
N897   N     0.39442   0.55126   0.26510   0.00000  Uiso   1.00
O898   O     0.39634   0.52705   0.23752   0.00000  Uiso   1.00
O899   O     0.40597   0.54297   0.29975   0.00000  Uiso   1.00
N900   N     0.16404   0.89103   0.81977   0.00000  Uiso   1.00
O901   O     0.19965   0.89153   0.81951   0.00000  Uiso   1.00
O902   O     0.14679   0.89632   0.85237   0.00000  Uiso   1.00
N903   N     0.39799   0.84360   0.17830   0.00000  Uiso   1.00
O904   O     0.39514   0.80844   0.17382   0.00000  Uiso   1.00
O905   O     0.41134   0.86326   0.15020   0.00000  Uiso   1.00
N906   N     0.11049   0.66551   0.81898   0.00000  Uiso   1.00
O907   O     0.11119   0.70099   0.81775   0.00000  Uiso   1.00
O908   O     0.10507   0.64923   0.85208   0.00000  Uiso   1.00
N909   N     0.16444   0.61012   0.81938   0.00000  Uiso   1.00
O910   O     0.18545   0.63556   0.83351   0.00000  Uiso   1.00
O911   O     0.15830   0.58080   0.83967   0.00000  Uiso   1.00
N912   N     0.34413   0.89887   0.17858   0.00000  Uiso   1.00
O913   O     0.30985   0.89152   0.17188   0.00000  Uiso   1.00
O914   O     0.36177   0.92043   0.15509   0.00000  Uiso   1.00
N915   N     0.10941   0.83617   0.81960   0.00000  Uiso   1.00
O916   O     0.13481   0.81527   0.83393   0.00000  Uiso   1.00
O917   O     0.07990   0.84227   0.83971   0.00000  Uiso   1.00
N918   N     0.44934   0.60582   0.26514   0.00000  Uiso   1.00
O919   O     0.46466   0.57861   0.24711   0.00000  Uiso   1.00
O920   O     0.46791   0.62350   0.29138   0.00000  Uiso   1.00
N921   N     0.33504   0.88943   0.81917   0.00000  Uiso   1.00
O922   O     0.31397   0.86390   0.83300   0.00000  Uiso   1.00
O923   O     0.34094   0.91870   0.83963   0.00000  Uiso   1.00
N924   N     0.15589   0.60109   0.17858   0.00000  Uiso   1.00
O925   O     0.19018   0.60841   0.17190   0.00000  Uiso   1.00
O926   O     0.13823   0.57956   0.15506   0.00000  Uiso   1.00
N927   N     0.39626   0.65865   0.82084   0.00000  Uiso   1.00
O928   O     0.38551   0.69199   0.82692   0.00000  Uiso   1.00
O929   O     0.41938   0.64359   0.84466   0.00000  Uiso   1.00
N930   N     0.05057   0.89432   0.26444   0.00000  Uiso   1.00
O931   O     0.03535   0.92136   0.24605   0.00000  Uiso   1.00
O932   O     0.03187   0.87688   0.29076   0.00000  Uiso   1.00
N933   N     0.40874   0.64566   0.67861   0.00000  Uiso   1.00
O934   O     0.44423   0.64410   0.67596   0.00000  Uiso   1.00
O935   O     0.38972   0.65535   0.64839   0.00000  Uiso   1.00
N936   N     0.14453   0.80114   0.23574   0.00000  Uiso   1.00
O937   O     0.14658   0.77726   0.26361   0.00000  Uiso   1.00
O938   O     0.15604   0.79249   0.20117   0.00000  Uiso   1.00
N939   N     0.36104   0.91603   0.68127   0.00000  Uiso   1.00
O940   O     0.36173   0.95150   0.68285   0.00000  Uiso   1.00
O941   O     0.35589   0.90000   0.64797   0.00000  Uiso   1.00
N942   N     0.14800   0.59366   0.32170   0.00000  Uiso   1.00
O943   O     0.14513   0.55851   0.32619   0.00000  Uiso   1.00
O944   O     0.16139   0.61333   0.34978   0.00000  Uiso   1.00
N945   N     0.08596   0.85897   0.68023   0.00000  Uiso   1.00
O946   O     0.05035   0.85847   0.68049   0.00000  Uiso   1.00
O947   O     0.10321   0.85368   0.64763   0.00000  Uiso   1.00
N948   N     0.35557   0.69874   0.23490   0.00000  Uiso   1.00
O949   O     0.35366   0.72295   0.26248   0.00000  Uiso   1.00
O950   O     0.34403   0.70703   0.20026   0.00000  Uiso   1.00
N951   N     0.13951   0.58449   0.68102   0.00000  Uiso   1.00
O952   O     0.13881   0.54901   0.68225   0.00000  Uiso   1.00
O953   O     0.14493   0.60077   0.64792   0.00000  Uiso   1.00
N954   N     0.35201   0.90640   0.32170   0.00000  Uiso   1.00
O955   O     0.35486   0.94156   0.32618   0.00000  Uiso   1.00
O956   O     0.33867   0.88675   0.34980   0.00000  Uiso   1.00
N957   N     0.40587   0.85113   0.32142   0.00000  Uiso   1.00
O958   O     0.44015   0.85848   0.32812   0.00000  Uiso   1.00
O959   O     0.38823   0.82956   0.34490   0.00000  Uiso   1.00
N960   N     0.08556   0.63988   0.68062   0.00000  Uiso   1.00
O961   O     0.06455   0.61444   0.66649   0.00000  Uiso   1.00
O962   O     0.09170   0.66920   0.66033   0.00000  Uiso   1.00
N963   N     0.30066   0.64419   0.23486   0.00000  Uiso   1.00
O964   O     0.28534   0.67139   0.25290   0.00000  Uiso   1.00
O965   O     0.28209   0.62650   0.20862   0.00000  Uiso   1.00
N966   N     0.14058   0.91383   0.68040   0.00000  Uiso   1.00
O967   O     0.11519   0.93472   0.66607   0.00000  Uiso   1.00
O968   O     0.17010   0.90774   0.66029   0.00000  Uiso   1.00
N969   N     0.09411   0.64891   0.32142   0.00000  Uiso   1.00
O970   O     0.05982   0.64159   0.32810   0.00000  Uiso   1.00
O971   O     0.11177   0.67044   0.34494   0.00000  Uiso   1.00
N972   N     0.41496   0.86057   0.68083   0.00000  Uiso   1.00
O973   O     0.43602   0.88610   0.66700   0.00000  Uiso   1.00
O974   O     0.40906   0.83130   0.66036   0.00000  Uiso   1.00
N975   N     0.19943   0.85568   0.23555   0.00000  Uiso   1.00
O976   O     0.21465   0.82864   0.25394   0.00000  Uiso   1.00
O977   O     0.21813   0.87312   0.20924   0.00000  Uiso   1.00
N978   N     0.35374   0.59135   0.67917   0.00000  Uiso   1.00
O979   O     0.36448   0.55801   0.67308   0.00000  Uiso   1.00
O980   O     0.33061   0.60641   0.65534   0.00000  Uiso   1.00
Br981  Br    0.04438   0.81461   0.38987   0.00000  Uiso   1.00
Br982  Br    0.00894   0.67290   0.61101   0.00000  Uiso   1.00
Br983  Br    0.18807   0.95147   0.39002   0.00000  Uiso   1.00
Br984  Br    0.32764   0.99767   0.61076   0.00000  Uiso   1.00
Br985  Br    0.45561   0.68541   0.38985   0.00000  Uiso   1.00
Br986  Br    0.49126   0.82713   0.61109   0.00000  Uiso   1.00
Br987  Br    0.31162   0.54877   0.39021   0.00000  Uiso   1.00
Br988  Br    0.17210   0.50038   0.61150   0.00000  Uiso   1.00
Br989  Br    0.24106   0.57710   0.88899   0.00000  Uiso   1.00
Br990  Br    0.20562   0.93539   0.11013   0.00000  Uiso   1.00
Br991  Br    0.42236   0.75233   0.88924   0.00000  Uiso   1.00
Br992  Br    0.06193   0.79853   0.10997   0.00000  Uiso   1.00
Br993  Br    0.25873   0.92287   0.88891   0.00000  Uiso   1.00
Br994  Br    0.29439   0.56459   0.11015   0.00000  Uiso   1.00
Br995  Br    0.07790   0.74962   0.88850   0.00000  Uiso   1.00
Br996  Br    0.43838   0.70123   0.10979   0.00000  Uiso   1.00
Zn997  Zn    0.70659   0.50000   0.21735   0.00000  Uiso   1.00
Zn998  Zn    0.79340   0.50000   0.78265   0.00000  Uiso   1.00
Zn999  Zn    0.50000   0.70660   0.21735   0.00000  Uiso   1.00
Zn1000 Zn    0.50000   0.79341   0.78265   0.00000  Uiso   1.00
Zn1001 Zn    0.79340   0.50000   0.21735   0.00000  Uiso   1.00
Zn1002 Zn    0.70659   0.50000   0.78265   0.00000  Uiso   1.00
Zn1003 Zn    0.50000   0.79341   0.21735   0.00000  Uiso   1.00
Zn1004 Zn    0.50000   0.70659   0.78265   0.00000  Uiso   1.00
Zn1005 Zn    0.95659   0.75000   0.71735   0.00000  Uiso   1.00
Zn1006 Zn    0.54340   0.75000   0.28265   0.00000  Uiso   1.00
Zn1007 Zn    0.75000   0.95659   0.71735   0.00000  Uiso   1.00
Zn1008 Zn    0.75000   0.54341   0.28265   0.00000  Uiso   1.00
Zn1009 Zn    0.54340   0.75000   0.71735   0.00000  Uiso   1.00
Zn1010 Zn    0.95659   0.75000   0.28265   0.00000  Uiso   1.00
Zn1011 Zn    0.75000   0.54341   0.71735   0.00000  Uiso   1.00
Zn1012 Zn    0.75000   0.95659   0.28265   0.00000  Uiso   1.00
C1013  C     0.51409   0.78023   0.41839   0.00000  Uiso   1.00
C1014  C     0.99775   0.71685   0.58205   0.00000  Uiso   1.00
C1015  C     0.72061   0.98389   0.41841   0.00000  Uiso   1.00
C1016  C     0.78271   0.50524   0.58206   0.00000  Uiso   1.00
C1017  C     0.98591   0.71978   0.41838   0.00000  Uiso   1.00
C1018  C     0.50232   0.78317   0.58208   0.00000  Uiso   1.00
C1019  C     0.77911   0.51626   0.41849   0.00000  Uiso   1.00
C1020  C     0.71694   0.99433   0.58217   0.00000  Uiso   1.00
C1021  C     0.75225   0.53315   0.91795   0.00000  Uiso   1.00
C1022  C     0.73591   0.96977   0.08161   0.00000  Uiso   1.00
C1023  C     0.96728   0.74476   0.91794   0.00000  Uiso   1.00
C1024  C     0.52939   0.76611   0.08159   0.00000  Uiso   1.00
C1025  C     0.74768   0.96683   0.91793   0.00000  Uiso   1.00
C1026  C     0.76409   0.53022   0.08162   0.00000  Uiso   1.00
C1027  C     0.53306   0.75567   0.91783   0.00000  Uiso   1.00
C1028  C     0.97089   0.73374   0.08151   0.00000  Uiso   1.00
C1029  C     0.50000   0.75000   0.39828   0.00000  Uiso   1.00
C1030  C     0.50001   0.75001   0.60200   0.00000  Uiso   1.00
C1031  C     0.74990   0.50004   0.39831   0.00000  Uiso   1.00
C1032  C     0.74985   0.99991   0.60204   0.00000  Uiso   1.00
C1033  C     0.74999   0.99999   0.89800   0.00000  Uiso   1.00
C1034  C     0.75000   0.50000   0.10172   0.00000  Uiso   1.00
C1035  C     0.50015   0.75009   0.89796   0.00000  Uiso   1.00
C1036  C     0.50010   0.74996   0.10169   0.00000  Uiso   1.00
O1037  O     0.75000   0.50000   0.25000   0.00000  Uiso   1.00
O1038  O     0.75000   0.50000   0.75000   0.00000  Uiso   1.00
O1039  O     0.50000   0.75000   0.25000   0.00000  Uiso   1.00
O1040  O     0.50000   0.75000   0.75000   0.00000  Uiso   1.00
O1041  O     0.75000   0.96963   0.33755   0.00000  Uiso   1.00
O1042  O     0.75000   0.53037   0.66245   0.00000  Uiso   1.00
O1043  O     0.53036   0.75000   0.33755   0.00000  Uiso   1.00
O1044  O     0.96963   0.75000   0.66245   0.00000  Uiso   1.00
O1045  O     0.75000   0.53037   0.33755   0.00000  Uiso   1.00
O1046  O     0.75000   0.96963   0.66245   0.00000  Uiso   1.00
O1047  O     0.96963   0.75000   0.33755   0.00000  Uiso   1.00
O1048  O     0.53036   0.75000   0.66245   0.00000  Uiso   1.00
O1049  O     0.50000   0.71964   0.83755   0.00000  Uiso   1.00
O1050  O     0.50000   0.78037   0.16245   0.00000  Uiso   1.00
O1051  O     0.78036   0.50000   0.83755   0.00000  Uiso   1.00
O1052  O     0.71963   0.50000   0.16245   0.00000  Uiso   1.00
O1053  O     0.50000   0.78037   0.83755   0.00000  Uiso   1.00
O1054  O     0.50000   0.71964   0.16245   0.00000  Uiso   1.00
O1055  O     0.71963   0.50000   0.83755   0.00000  Uiso   1.00
O1056  O     0.78036   0.50000   0.16245   0.00000  Uiso   1.00
O1057  O     0.70724   0.57308   0.27302   0.00000  Uiso   1.00
O1058  O     0.79275   0.92692   0.72698   0.00000  Uiso   1.00
O1059  O     0.92692   0.70725   0.27302   0.00000  Uiso   1.00
O1060  O     0.57307   0.79275   0.72698   0.00000  Uiso   1.00
O1061  O     0.79275   0.92692   0.27302   0.00000  Uiso   1.00
O1062  O     0.70724   0.57308   0.72698   0.00000  Uiso   1.00
O1063  O     0.57307   0.79275   0.27302   0.00000  Uiso   1.00
O1064  O     0.92692   0.70725   0.72698   0.00000  Uiso   1.00
O1065  O     0.70724   0.92692   0.72698   0.00000  Uiso   1.00
O1066  O     0.79275   0.57308   0.27302   0.00000  Uiso   1.00
O1067  O     0.92692   0.79276   0.72698   0.00000  Uiso   1.00
O1068  O     0.57307   0.70724   0.27302   0.00000  Uiso   1.00
O1069  O     0.79275   0.57308   0.72698   0.00000  Uiso   1.00
O1070  O     0.70724   0.92692   0.27302   0.00000  Uiso   1.00
O1071  O     0.57307   0.70724   0.72698   0.00000  Uiso   1.00
O1072  O     0.92692   0.79276   0.27302   0.00000  Uiso   1.00
O1073  O     0.95724   0.82308   0.77302   0.00000  Uiso   1.00
O1074  O     0.54275   0.67692   0.22698   0.00000  Uiso   1.00
O1075  O     0.67692   0.95724   0.77302   0.00000  Uiso   1.00
O1076  O     0.82307   0.54276   0.22698   0.00000  Uiso   1.00
O1077  O     0.54275   0.67692   0.77302   0.00000  Uiso   1.00
O1078  O     0.95724   0.82308   0.22698   0.00000  Uiso   1.00
O1079  O     0.82307   0.54276   0.77302   0.00000  Uiso   1.00
O1080  O     0.67692   0.95724   0.22698   0.00000  Uiso   1.00
O1081  O     0.95724   0.67693   0.22698   0.00000  Uiso   1.00
O1082  O     0.54275   0.82307   0.77302   0.00000  Uiso   1.00
O1083  O     0.67692   0.54276   0.22698   0.00000  Uiso   1.00
O1084  O     0.82307   0.95724   0.77302   0.00000  Uiso   1.00
O1085  O     0.54275   0.82307   0.22698   0.00000  Uiso   1.00
O1086  O     0.95724   0.67693   0.77302   0.00000  Uiso   1.00
O1087  O     0.82307   0.95724   0.22698   0.00000  Uiso   1.00
O1088  O     0.67692   0.54276   0.77302   0.00000  Uiso   1.00
C1089  C     0.98511   0.68486   0.47998   0.00000  Uiso   1.00
C1090  C     0.51764   0.81449   0.52049   0.00000  Uiso   1.00
C1091  C     0.81379   0.51988   0.48015   0.00000  Uiso   1.00
C1092  C     0.68682   0.97704   0.52042   0.00000  Uiso   1.00
C1093  C     0.51491   0.81515   0.48002   0.00000  Uiso   1.00
C1094  C     0.98241   0.68553   0.52046   0.00000  Uiso   1.00
C1095  C     0.68582   0.98026   0.48002   0.00000  Uiso   1.00
C1096  C     0.81274   0.52289   0.52055   0.00000  Uiso   1.00
C1097  C     0.73236   0.93551   0.97951   0.00000  Uiso   1.00
C1098  C     0.76489   0.56514   0.02002   0.00000  Uiso   1.00
C1099  C     0.56318   0.77296   0.97958   0.00000  Uiso   1.00
C1100  C     0.93621   0.73013   0.01985   0.00000  Uiso   1.00
C1101  C     0.76759   0.56447   0.97954   0.00000  Uiso   1.00
C1102  C     0.73509   0.93485   0.01998   0.00000  Uiso   1.00
C1103  C     0.93726   0.72711   0.97945   0.00000  Uiso   1.00
C1104  C     0.56418   0.76974   0.01998   0.00000  Uiso   1.00
C1105  C     0.74998   0.50001   0.35587   0.00000  Uiso   1.00
C1106  C     0.74997   0.99998   0.64427   0.00000  Uiso   1.00
C1107  C     0.50000   0.75000   0.35588   0.00000  Uiso   1.00
C1108  C     0.50000   0.75000   0.64423   0.00000  Uiso   1.00
C1109  C     0.50003   0.75002   0.85573   0.00000  Uiso   1.00
C1110  C     0.50002   0.74999   0.14413   0.00000  Uiso   1.00
C1111  C     0.75000   0.50000   0.85577   0.00000  Uiso   1.00
C1112  C     0.75000   0.50000   0.14411   0.00000  Uiso   1.00
C1113  C     0.67995   0.56997   0.25000   0.00000  Uiso   1.00
C1114  C     0.81992   0.92990   0.75034   0.00000  Uiso   1.00
C1115  C     0.92983   0.68017   0.24993   0.00000  Uiso   1.00
C1116  C     0.57011   0.81988   0.75027   0.00000  Uiso   1.00
C1117  C     0.82006   0.93004   0.25000   0.00000  Uiso   1.00
C1118  C     0.68008   0.57009   0.75034   0.00000  Uiso   1.00
C1119  C     0.57016   0.81984   0.24994   0.00000  Uiso   1.00
C1120  C     0.92999   0.68001   0.75000   0.00000  Uiso   1.00
C1121  C     0.67989   0.93012   0.74973   0.00000  Uiso   1.00
C1122  C     0.82016   0.56983   0.25007   0.00000  Uiso   1.00
C1123  C     0.93008   0.82010   0.74966   0.00000  Uiso   1.00
C1124  C     0.57005   0.68003   0.25000   0.00000  Uiso   1.00
C1125  C     0.82000   0.56999   0.75000   0.00000  Uiso   1.00
C1126  C     0.67984   0.93016   0.25005   0.00000  Uiso   1.00
C1127  C     0.56992   0.67991   0.74966   0.00000  Uiso   1.00
C1128  C     0.92994   0.81996   0.25000   0.00000  Uiso   1.00
C1129  C     0.61505   0.91177   0.25569   0.00000  Uiso   1.00
C1130  C     0.85919   0.61384   0.78558   0.00000  Uiso   1.00
C1131  C     0.61264   0.63960   0.21434   0.00000  Uiso   1.00
C1132  C     0.88233   0.85512   0.78428   0.00000  Uiso   1.00
C1133  C     0.88491   0.58828   0.25611   0.00000  Uiso   1.00
C1134  C     0.64403   0.88324   0.78471   0.00000  Uiso   1.00
C1135  C     0.88735   0.86037   0.21434   0.00000  Uiso   1.00
C1136  C     0.61739   0.64462   0.78439   0.00000  Uiso   1.00
C1137  C     0.64372   0.61688   0.78474   0.00000  Uiso   1.00
C1138  C     0.86067   0.88772   0.21445   0.00000  Uiso   1.00
C1139  C     0.61642   0.85670   0.78488   0.00000  Uiso   1.00
C1140  C     0.91190   0.61543   0.25710   0.00000  Uiso   1.00
C1141  C     0.85600   0.88287   0.78464   0.00000  Uiso   1.00
C1142  C     0.63934   0.61226   0.21445   0.00000  Uiso   1.00
C1143  C     0.88655   0.64056   0.78538   0.00000  Uiso   1.00
C1144  C     0.58805   0.88463   0.25672   0.00000  Uiso   1.00
C1145  C     0.89081   0.63616   0.71442   0.00000  Uiso   1.00
C1146  C     0.63495   0.83823   0.24430   0.00000  Uiso   1.00
C1147  C     0.86766   0.89488   0.71572   0.00000  Uiso   1.00
C1148  C     0.63735   0.61040   0.28566   0.00000  Uiso   1.00
C1149  C     0.60597   0.86676   0.71529   0.00000  Uiso   1.00
C1150  C     0.86509   0.66172   0.24389   0.00000  Uiso   1.00
C1151  C     0.63261   0.60538   0.71561   0.00000  Uiso   1.00
C1152  C     0.86265   0.88963   0.28566   0.00000  Uiso   1.00
C1153  C     0.88933   0.86228   0.28555   0.00000  Uiso   1.00
C1154  C     0.60628   0.63312   0.71526   0.00000  Uiso   1.00
C1155  C     0.83810   0.63457   0.24290   0.00000  Uiso   1.00
C1156  C     0.63358   0.89330   0.71512   0.00000  Uiso   1.00
C1157  C     0.61066   0.63774   0.28555   0.00000  Uiso   1.00
C1158  C     0.89400   0.86713   0.71536   0.00000  Uiso   1.00
C1159  C     0.66195   0.86537   0.24327   0.00000  Uiso   1.00
C1160  C     0.86344   0.60944   0.71462   0.00000  Uiso   1.00
C1161  C     0.99068   0.71764   0.45906   0.00000  Uiso   1.00
C1162  C     0.50723   0.78292   0.54138   0.00000  Uiso   1.00
C1163  C     0.78149   0.51175   0.45916   0.00000  Uiso   1.00
C1164  C     0.71753   0.98982   0.54141   0.00000  Uiso   1.00
C1165  C     0.50934   0.78237   0.45908   0.00000  Uiso   1.00
C1166  C     0.99282   0.71710   0.54136   0.00000  Uiso   1.00
C1167  C     0.71814   0.98840   0.45909   0.00000  Uiso   1.00
C1168  C     0.78202   0.51002   0.54141   0.00000  Uiso   1.00
C1169  C     0.74276   0.96708   0.95862   0.00000  Uiso   1.00
C1170  C     0.75932   0.53236   0.04094   0.00000  Uiso   1.00
C1171  C     0.53246   0.76018   0.95859   0.00000  Uiso   1.00
C1172  C     0.96851   0.73825   0.04084   0.00000  Uiso   1.00
C1173  C     0.75718   0.53290   0.95864   0.00000  Uiso   1.00
C1174  C     0.74066   0.96763   0.04092   0.00000  Uiso   1.00
C1175  C     0.96798   0.73999   0.95859   0.00000  Uiso   1.00
C1176  C     0.53186   0.76160   0.04090   0.00000  Uiso   1.00
C1177  C     0.59817   0.84796   0.25081   0.00000  Uiso   1.00
C1178  C     0.90211   0.65173   0.74988   0.00000  Uiso   1.00
C1179  C     0.65169   0.59787   0.25006   0.00000  Uiso   1.00
C1180  C     0.84859   0.90243   0.75033   0.00000  Uiso   1.00
C1181  C     0.90182   0.65204   0.25078   0.00000  Uiso   1.00
C1182  C     0.59766   0.84846   0.75019   0.00000  Uiso   1.00
C1183  C     0.84833   0.90214   0.25006   0.00000  Uiso   1.00
C1184  C     0.65141   0.59757   0.75032   0.00000  Uiso   1.00
C1185  C     0.59859   0.65243   0.74968   0.00000  Uiso   1.00
C1186  C     0.90167   0.84786   0.24994   0.00000  Uiso   1.00
C1187  C     0.65233   0.90154   0.74981   0.00000  Uiso   1.00
C1188  C     0.84818   0.59796   0.24922   0.00000  Uiso   1.00
C1189  C     0.90141   0.84757   0.74967   0.00000  Uiso   1.00
C1190  C     0.59831   0.65213   0.24994   0.00000  Uiso   1.00
C1191  C     0.84789   0.59827   0.75012   0.00000  Uiso   1.00
C1192  C     0.65183   0.90203   0.24919   0.00000  Uiso   1.00
C1193  C     0.50001   0.75001   0.47965   0.00000  Uiso   1.00
C1194  C     0.50002   0.75001   0.52077   0.00000  Uiso   1.00
C1195  C     0.74979   0.50006   0.47970   0.00000  Uiso   1.00
C1196  C     0.74977   0.99999   0.52082   0.00000  Uiso   1.00
C1197  C     0.74998   0.99999   0.97923   0.00000  Uiso   1.00
C1198  C     0.74999   0.99999   0.02035   0.00000  Uiso   1.00
C1199  C     0.50023   0.75001   0.97918   0.00000  Uiso   1.00
C1200  C     0.50021   0.74994   0.02030   0.00000  Uiso   1.00
Br1201 Br    0.99097   0.63714   0.45665   0.00000  Uiso   1.00
Br1202 Br    0.54479   0.85419   0.54401   0.00000  Uiso   1.00
Br1203 Br    0.86210   0.51713   0.45722   0.00000  Uiso   1.00
Br1204 Br    0.64949   0.94629   0.54339   0.00000  Uiso   1.00
Br1205 Br    0.50903   0.86287   0.45672   0.00000  Uiso   1.00
Br1206 Br    0.95530   0.64582   0.54399   0.00000  Uiso   1.00
Br1207 Br    0.63754   0.98322   0.45702   0.00000  Uiso   1.00
Br1208 Br    0.85001   0.55346   0.54391   0.00000  Uiso   1.00
Br1209 Br    0.70521   0.89581   0.95599   0.00000  Uiso   1.00
Br1210 Br    0.75903   0.61286   0.04335   0.00000  Uiso   1.00
Br1211 Br    0.60050   0.80371   0.95662   0.00000  Uiso   1.00
Br1212 Br    0.88790   0.73287   0.04278   0.00000  Uiso   1.00
Br1213 Br    0.79470   0.60418   0.95601   0.00000  Uiso   1.00
Br1214 Br    0.74097   0.88713   0.04328   0.00000  Uiso   1.00
Br1215 Br    0.89999   0.69654   0.95609   0.00000  Uiso   1.00
Br1216 Br    0.61245   0.76678   0.04298   0.00000  Uiso   1.00
N1217  N     0.60547   0.94886   0.26426   0.00000  Uiso   1.00
O1218  O     0.60341   0.97274   0.23638   0.00000  Uiso   1.00
O1219  O     0.59396   0.95751   0.29882   0.00000  Uiso   1.00
N1220  N     0.84126   0.60434   0.82139   0.00000  Uiso   1.00
O1221  O     0.80577   0.60590   0.82404   0.00000  Uiso   1.00
O1222  O     0.86028   0.59465   0.85161   0.00000  Uiso   1.00
N1223  N     0.60200   0.65634   0.17830   0.00000  Uiso   1.00
O1224  O     0.60487   0.69149   0.17381   0.00000  Uiso   1.00
O1225  O     0.58860   0.63667   0.15022   0.00000  Uiso   1.00
N1226  N     0.88895   0.83397   0.81873   0.00000  Uiso   1.00
O1227  O     0.88827   0.79850   0.81715   0.00000  Uiso   1.00
O1228  O     0.89411   0.85000   0.85203   0.00000  Uiso   1.00
N1229  N     0.89442   0.55126   0.26510   0.00000  Uiso   1.00
O1230  O     0.89634   0.52705   0.23752   0.00000  Uiso   1.00
O1231  O     0.90597   0.54297   0.29975   0.00000  Uiso   1.00
N1232  N     0.66404   0.89103   0.81977   0.00000  Uiso   1.00
O1233  O     0.69965   0.89153   0.81951   0.00000  Uiso   1.00
O1234  O     0.64679   0.89632   0.85237   0.00000  Uiso   1.00
N1235  N     0.89799   0.84360   0.17830   0.00000  Uiso   1.00
O1236  O     0.89514   0.80844   0.17382   0.00000  Uiso   1.00
O1237  O     0.91134   0.86326   0.15020   0.00000  Uiso   1.00
N1238  N     0.61049   0.66551   0.81898   0.00000  Uiso   1.00
O1239  O     0.61119   0.70099   0.81775   0.00000  Uiso   1.00
O1240  O     0.60507   0.64923   0.85208   0.00000  Uiso   1.00
N1241  N     0.66444   0.61012   0.81938   0.00000  Uiso   1.00
O1242  O     0.68545   0.63556   0.83351   0.00000  Uiso   1.00
O1243  O     0.65830   0.58080   0.83967   0.00000  Uiso   1.00
N1244  N     0.84413   0.89887   0.17858   0.00000  Uiso   1.00
O1245  O     0.80985   0.89152   0.17188   0.00000  Uiso   1.00
O1246  O     0.86177   0.92043   0.15509   0.00000  Uiso   1.00
N1247  N     0.60941   0.83617   0.81960   0.00000  Uiso   1.00
O1248  O     0.63481   0.81527   0.83393   0.00000  Uiso   1.00
O1249  O     0.57990   0.84227   0.83971   0.00000  Uiso   1.00
N1250  N     0.94934   0.60582   0.26514   0.00000  Uiso   1.00
O1251  O     0.96466   0.57861   0.24711   0.00000  Uiso   1.00
O1252  O     0.96791   0.62350   0.29138   0.00000  Uiso   1.00
N1253  N     0.83504   0.88943   0.81917   0.00000  Uiso   1.00
O1254  O     0.81397   0.86390   0.83300   0.00000  Uiso   1.00
O1255  O     0.84094   0.91870   0.83963   0.00000  Uiso   1.00
N1256  N     0.65589   0.60109   0.17858   0.00000  Uiso   1.00
O1257  O     0.69018   0.60841   0.17190   0.00000  Uiso   1.00
O1258  O     0.63823   0.57956   0.15506   0.00000  Uiso   1.00
N1259  N     0.89626   0.65865   0.82084   0.00000  Uiso   1.00
O1260  O     0.88551   0.69199   0.82692   0.00000  Uiso   1.00
O1261  O     0.91938   0.64359   0.84466   0.00000  Uiso   1.00
N1262  N     0.55057   0.89432   0.26444   0.00000  Uiso   1.00
O1263  O     0.53535   0.92136   0.24605   0.00000  Uiso   1.00
O1264  O     0.53187   0.87688   0.29076   0.00000  Uiso   1.00
N1265  N     0.90874   0.64566   0.67861   0.00000  Uiso   1.00
O1266  O     0.94423   0.64410   0.67596   0.00000  Uiso   1.00
O1267  O     0.88972   0.65535   0.64839   0.00000  Uiso   1.00
N1268  N     0.64453   0.80114   0.23574   0.00000  Uiso   1.00
O1269  O     0.64658   0.77726   0.26361   0.00000  Uiso   1.00
O1270  O     0.65604   0.79249   0.20117   0.00000  Uiso   1.00
N1271  N     0.86104   0.91603   0.68127   0.00000  Uiso   1.00
O1272  O     0.86173   0.95150   0.68285   0.00000  Uiso   1.00
O1273  O     0.85589   0.90000   0.64797   0.00000  Uiso   1.00
N1274  N     0.64800   0.59366   0.32170   0.00000  Uiso   1.00
O1275  O     0.64513   0.55851   0.32619   0.00000  Uiso   1.00
O1276  O     0.66139   0.61333   0.34978   0.00000  Uiso   1.00
N1277  N     0.58596   0.85897   0.68023   0.00000  Uiso   1.00
O1278  O     0.55035   0.85847   0.68049   0.00000  Uiso   1.00
O1279  O     0.60321   0.85368   0.64763   0.00000  Uiso   1.00
N1280  N     0.85557   0.69874   0.23490   0.00000  Uiso   1.00
O1281  O     0.85366   0.72295   0.26248   0.00000  Uiso   1.00
O1282  O     0.84403   0.70703   0.20026   0.00000  Uiso   1.00
N1283  N     0.63951   0.58449   0.68102   0.00000  Uiso   1.00
O1284  O     0.63881   0.54901   0.68225   0.00000  Uiso   1.00
O1285  O     0.64493   0.60077   0.64792   0.00000  Uiso   1.00
N1286  N     0.85201   0.90640   0.32170   0.00000  Uiso   1.00
O1287  O     0.85486   0.94156   0.32618   0.00000  Uiso   1.00
O1288  O     0.83867   0.88675   0.34980   0.00000  Uiso   1.00
N1289  N     0.90587   0.85113   0.32142   0.00000  Uiso   1.00
O1290  O     0.94015   0.85848   0.32812   0.00000  Uiso   1.00
O1291  O     0.88823   0.82956   0.34490   0.00000  Uiso   1.00
N1292  N     0.58556   0.63988   0.68062   0.00000  Uiso   1.00
O1293  O     0.56455   0.61444   0.66649   0.00000  Uiso   1.00
O1294  O     0.59170   0.66920   0.66033   0.00000  Uiso   1.00
N1295  N     0.80066   0.64419   0.23486   0.00000  Uiso   1.00
O1296  O     0.78534   0.67139   0.25290   0.00000  Uiso   1.00
O1297  O     0.78209   0.62650   0.20862   0.00000  Uiso   1.00
N1298  N     0.64058   0.91383   0.68040   0.00000  Uiso   1.00
O1299  O     0.61519   0.93472   0.66607   0.00000  Uiso   1.00
O1300  O     0.67010   0.90774   0.66029   0.00000  Uiso   1.00
N1301  N     0.59411   0.64891   0.32142   0.00000  Uiso   1.00
O1302  O     0.55982   0.64159   0.32810   0.00000  Uiso   1.00
O1303  O     0.61177   0.67044   0.34494   0.00000  Uiso   1.00
N1304  N     0.91496   0.86057   0.68083   0.00000  Uiso   1.00
O1305  O     0.93602   0.88610   0.66700   0.00000  Uiso   1.00
O1306  O     0.90906   0.83130   0.66036   0.00000  Uiso   1.00
N1307  N     0.69943   0.85568   0.23555   0.00000  Uiso   1.00
O1308  O     0.71465   0.82864   0.25394   0.00000  Uiso   1.00
O1309  O     0.71813   0.87312   0.20924   0.00000  Uiso   1.00
N1310  N     0.85374   0.59135   0.67917   0.00000  Uiso   1.00
O1311  O     0.86448   0.55801   0.67308   0.00000  Uiso   1.00
O1312  O     0.83061   0.60641   0.65534   0.00000  Uiso   1.00
Br1313 Br    0.54438   0.81461   0.38987   0.00000  Uiso   1.00
Br1314 Br    0.50894   0.67290   0.61101   0.00000  Uiso   1.00
Br1315 Br    0.68807   0.95147   0.39002   0.00000  Uiso   1.00
Br1316 Br    0.82764   0.99767   0.61076   0.00000  Uiso   1.00
Br1317 Br    0.95561   0.68541   0.38985   0.00000  Uiso   1.00
Br1318 Br    0.99126   0.82713   0.61109   0.00000  Uiso   1.00
Br1319 Br    0.81162   0.54877   0.39021   0.00000  Uiso   1.00
Br1320 Br    0.67210   0.50038   0.61150   0.00000  Uiso   1.00
Br1321 Br    0.74106   0.57710   0.88899   0.00000  Uiso   1.00
Br1322 Br    0.70562   0.93539   0.11013   0.00000  Uiso   1.00
Br1323 Br    0.92236   0.75233   0.88924   0.00000  Uiso   1.00
Br1324 Br    0.56193   0.79853   0.10997   0.00000  Uiso   1.00
Br1325 Br    0.75873   0.92287   0.88891   0.00000  Uiso   1.00
Br1326 Br    0.79439   0.56459   0.11015   0.00000  Uiso   1.00
Br1327 Br    0.57790   0.74962   0.88850   0.00000  Uiso   1.00
Br1328 Br    0.93838   0.70123   0.10979   0.00000  Uiso   1.00
loop_
_geom_bond_atom_site_label_1
_geom_bond_atom_site_label_2
_geom_bond_distance
_geom_bond_site_symmetry_2
_ccdc_geom_bond_type
Zn1    O87     1.935   .     S
Zn1    O56     1.949   .     S
Zn1    O41     1.943   .     S
Zn1    O748    1.932   1_545 S
Zn2    O55     1.949   .     S
Zn2    O83     1.932   .     S
Zn2    O42     1.943   .     S
Zn2    O752    1.935   1_545 S
Zn3    O417    1.930   1_455 S
Zn3    O58     1.949   .     S
Zn3    O43     1.947   .     S
Zn3    O78     1.933   .     S
Zn4    O44     1.947   .     S
Zn4    O409    1.933   1_455 S
Zn4    O57     1.949   .     S
Zn4    O86     1.930   .     S
Zn5    O60     1.949   .     S
Zn5    O80     1.932   .     S
Zn5    O41     1.943   .     S
Zn5    O755    1.935   1_545 S
Zn6    O42     1.943   .     S
Zn6    O92     1.935   .     S
Zn6    O59     1.949   .     S
Zn6    O743    1.932   1_545 S
Zn7    O43     1.948   .     S
Zn7    O54     1.949   .     S
Zn7    O414    1.933   1_455 S
Zn7    O89     1.930   .     S
Zn8    O81     1.933   .     S
Zn8    O44     1.948   .     S
Zn8    O53     1.949   .     S
Zn8    O422    1.930   1_455 S
Zn9    O48     1.949   .     S
Zn9    O71     1.935   .     S
Zn9    O376    1.943   .     S
Zn9    O68     1.932   .     S
Zn10   O47     1.949   .     S
Zn10   O72     1.935   .     S
Zn10   O67     1.932   .     S
Zn10   O43     1.943   .     S
Zn11   O62     1.933   .     S
Zn11   O69     1.930   .     S
Zn11   O50     1.949   .     S
Zn11   O706    1.947   .     S
Zn12   O49     1.949   .     S
Zn12   O70     1.930   .     S
Zn12   O61     1.933   .     S
Zn12   O41     1.947   .     S
Zn13   O75     1.935   .     S
Zn13   O52     1.949   .     S
Zn13   O64     1.932   .     S
Zn13   O44     1.943   .     S
Zn14   O76     1.935   .     S
Zn14   O375    1.943   .     S
Zn14   O51     1.949   .     S
Zn14   O63     1.932   .     S
Zn15   O66     1.933   .     S
Zn15   O73     1.930   .     S
Zn15   O42     1.948   .     S
Zn15   O46     1.949   .     S
Zn16   O45     1.949   .     S
Zn16   O65     1.933   .     S
Zn16   O74     1.930   .     S
Zn16   O705    1.948   .     S
C17    Br317   1.942   .     S
C17    C169    1.413   .     A
C17    C33     1.403   .     S
C18    C170    1.412   .     A
C18    C366    1.398   .     S
C18    Br650   1.938   .     S
C19    Br319   1.943   .     S
C19    C171    1.413   .     A
C19    C699    1.404   .     S
C20    C172    1.410   .     A
C20    C700    1.397   1_545 S
C20    Br984   1.936   1_545 S
C21    C365    1.403   .     A
C21    C165    1.413   .     A
C21    Br321   1.942   .     S
C22    C166    1.412   .     A
C22    C34     1.398   .     A
C22    Br654   1.938   1_455 S
C23    C167    1.412   .     A
C23    C35     1.404   .     A
C23    Br323   1.943   .     S
C24    C36     1.398   .     A
C24    C168    1.413   .     A
C24    Br988   1.937   .     S
C25    C177    1.412   .     A
C25    Br325   1.938   .     S
C25    C701    1.398   1_545 S
C26    Br326   1.942   .     S
C26    C702    1.403   .     A
C26    C178    1.413   .     A
C27    C179    1.410   .     A
C27    Br327   1.936   .     S
C27    C371    1.397   .     S
C28    C40     1.404   .     A
C28    C180    1.413   .     A
C28    Br328   1.943   .     S
C29    Br329   1.938   .     S
C29    C37     1.398   .     A
C29    C173    1.412   .     A
C30    C174    1.413   .     A
C30    Br330   1.942   .     S
C30    C38     1.403   .     S
C31    Br331   1.937   .     S
C31    C175    1.413   .     A
C31    C39     1.398   .     A
C32    Br332   1.943   .     S
C32    C176    1.412   .     A
C32    C372    1.404   .     S
C33    C353    1.403   1_455 A
C33    C111    1.459   .     S
C34    C112    1.453   .     S
C34    C350    1.398   1_455 S
C35    C109    1.460   .     S
C35    C683    1.404   1_545 S
C36    C110    1.453   .     S
C36    C684    1.397   .     S
C37    C779    1.453   .     S
C37    C689    1.398   .     S
C38    C690    1.403   1_545 A
C38    C116    1.459   .     S
C39    C113    1.453   .     S
C39    C359    1.397   1_455 S
C40    C114    1.460   .     S
C40    C364    1.404   1_455 S
O41    Zn680   1.948   1_545 S
O42    Zn675   1.947   1_545 S
O43    Zn346   1.943   1_455 S
O44    Zn341   1.943   1_455 S
O45    C773    1.279   .     S
O46    C774    1.277   1_545 S
O47    C111    1.276   .     S
O48    C444    1.274   .     S
O49    C109    1.279   .     A
O50    C110    1.276   .     A
O51    C443    1.276   .     A
O52    C112    1.274   .     A
O53    C113    1.277   .     S
O54    C114    1.279   .     S
O55    C115    1.274   .     S
O56    C116    1.276   .     A
O57    C113    1.276   .     S
O58    C114    1.279   .     S
O59    C115    1.274   .     S
O60    C116    1.276   .     A
O61    C117    1.279   .     A
O62    C118    1.282   .     A
O63    C119    1.275   .     A
O64    C120    1.281   .     A
O65    C121    1.279   .     A
O66    C122    1.282   .     A
O67    C123    1.276   .     A
O68    C124    1.279   .     A
O69    C125    1.275   .     A
O70    C126    1.281   .     A
O71    C127    1.275   .     A
O72    C128    1.278   .     A
O73    C129    1.277   .     A
O74    C130    1.281   .     A
O75    C131    1.275   .     A
O76    C132    1.278   .     A
O77    C127    1.282   .     A
O77    Zn336   1.933   .     S
O78    C128    1.279   .     A
O79    C125    1.281   .     A
O79    Zn670   1.932   .     S
O80    C126    1.275   .     A
O81    C131    1.282   .     A
O82    C132    1.279   .     A
O82    Zn339   1.933   .     S
O83    C129    1.279   .     A
O84    C130    1.276   .     A
O84    Zn665   1.932   .     S
O85    Zn335   1.930   .     S
O85    C119    1.281   .     A
O86    C120    1.275   .     A
O87    C117    1.278   .     A
O88    C118    1.275   .     A
O88    Zn666   1.935   .     S
O89    C123    1.281   .     A
O90    C124    1.277   .     A
O90    Zn340   1.930   .     S
O91    C121    1.278   .     A
O91    Zn669   1.935   .     S
O92    C122    1.275   .     A
C93    Br205   1.936   .     S
C93    C165    1.415   .     A
C93    C98     1.397   .     A
C94    C97     1.397   .     A
C94    Br206   1.936   .     S
C94    C166    1.414   .     A
C95    C167    1.415   .     A
C95    Br207   1.936   .     S
C95    C100    1.395   .     A
C96    Br208   1.936   .     S
C96    C99     1.396   .     A
C96    C168    1.414   .     A
C97    Br209   1.936   .     S
C97    C169    1.415   .     A
C98    C170    1.413   .     A
C98    Br210   1.936   .     S
C99    Br211   1.936   .     S
C99    C171    1.414   .     A
C100   C172    1.413   .     A
C100   Br212   1.937   .     S
C101   Br213   1.936   .     S
C101   C173    1.414   .     A
C101   C106    1.397   1_556 S
C102   Br214   1.936   .     S
C102   C174    1.415   .     A
C102   C105    1.397   1_554 S
C103   C175    1.414   .     A
C103   Br215   1.936   .     S
C103   C108    1.396   1_556 S
C104   Br216   1.936   .     S
C104   C176    1.415   .     A
C104   C107    1.395   1_554 S
C105   C177    1.413   .     A
C105   Br217   1.936   .     S
C105   C102    1.397   1_556 S
C106   C178    1.415   .     A
C106   Br218   1.936   .     S
C106   C101    1.397   1_554 S
C107   C179    1.413   .     A
C107   Br219   1.937   .     S
C107   C104    1.395   1_556 S
C108   Br220   1.936   .     S
C108   C180    1.414   .     A
C108   C103    1.396   1_554 S
C109   O709    1.279   1_545 S
C110   O710    1.277   .     S
C111   O383    1.276   1_455 A
C112   O380    1.274   1_455 S
C115   C701    1.453   1_545 S
C117   C183    1.454   .     S
C118   C184    1.454   .     S
C119   C185    1.452   .     S
C120   C186    1.452   .     S
C121   C187    1.454   .     S
C122   C188    1.454   .     S
C123   C181    1.452   .     S
C124   C182    1.452   .     S
C125   C191    1.452   .     S
C126   C192    1.452   .     S
C127   C193    1.454   .     S
C128   C194    1.454   .     S
C129   C195    1.452   .     S
C130   C196    1.452   .     S
C131   C189    1.454   .     S
C132   C190    1.454   .     S
C133   C196    1.409   .     A
C133   N221    1.434   .     S
C133   C148    1.400   .     A
C134   N224    1.438   .     S
C134   C147    1.398   .     A
C134   C195    1.409   .     A
C135   C146    1.399   .     A
C135   C194    1.409   .     A
C135   N227    1.438   .     S
C136   N230    1.437   .     S
C136   C145    1.401   .     A
C136   C193    1.408   .     A
C137   C192    1.409   .     A
C137   C144    1.400   .     A
C137   N233    1.434   .     S
C138   C143    1.400   .     A
C138   C191    1.408   .     A
C138   N236    1.439   .     S
C139   C142    1.399   .     A
C139   N239    1.438   .     S
C139   C190    1.409   .     A
C140   C141    1.400   .     A
C140   C189    1.408   .     A
C140   N242    1.437   .     S
C141   N245    1.434   .     S
C141   C188    1.408   .     A
C142   C187    1.409   .     A
C142   N248    1.435   .     S
C143   N251    1.435   .     S
C143   C186    1.409   .     A
C144   C185    1.409   .     A
C144   N254    1.440   .     S
C145   C184    1.408   .     A
C145   N257    1.434   .     S
C146   C183    1.409   .     A
C146   N260    1.435   .     S
C147   N263    1.433   .     S
C147   C182    1.408   .     A
C148   C181    1.409   .     A
C148   N266    1.440   .     S
C149   C182    1.409   .     A
C149   C164    1.398   .     A
C149   N269    1.438   .     S
C150   C163    1.400   .     A
C150   C181    1.409   .     A
C150   N272    1.434   .     S
C151   C184    1.408   .     A
C151   C162    1.401   .     A
C151   N275    1.437   .     S
C152   C161    1.399   .     A
C152   C183    1.409   .     A
C152   N278    1.438   .     S
C153   C160    1.400   .     A
C153   C186    1.408   .     A
C153   N281    1.439   .     S
C154   N284    1.434   .     S
C154   C159    1.400   .     A
C154   C185    1.409   .     A
C155   C158    1.400   .     A
C155   C188    1.408   .     A
C155   N287    1.437   .     S
C156   C187    1.409   .     A
C156   N290    1.438   .     S
C156   C157    1.399   .     A
C157   N293    1.435   .     S
C157   C190    1.409   .     A
C158   N296    1.434   .     S
C158   C189    1.408   .     A
C159   C192    1.409   .     A
C159   N299    1.440   .     S
C160   C191    1.409   .     A
C160   N302    1.435   .     S
C161   N305    1.435   .     S
C161   C194    1.409   .     A
C162   C193    1.408   .     A
C162   N308    1.434   .     S
C163   C196    1.409   .     A
C163   N311    1.440   .     S
C164   C195    1.408   .     A
C164   N314    1.433   .     S
C165   C529    1.422   .     S
C166   C198    1.423   .     A
C167   C199    1.422   .     A
C168   C200    1.423   .     A
C169   C197    1.422   .     A
C170   C530    1.423   .     S
C171   C863    1.422   .     S
C172   C864    1.423   1_545 S
C173   C201    1.423   .     A
C174   C866    1.422   1_545 S
C175   C203    1.424   .     A
C176   C536    1.422   .     S
C177   C865    1.423   1_545 S
C178   C202    1.422   .     A
C179   C535    1.423   .     S
C180   C204    1.422   .     A
C197   C198    1.415   .     A
C197   C497    1.422   1_455 S
C198   C502    1.423   1_455 S
C199   C835    1.422   1_545 S
C199   C864    1.415   1_545 S
C200   C836    1.423   .     S
C200   C863    1.415   .     S
C201   C841    1.423   .     S
C201   C202    1.415   1_556 S
C202   C838    1.422   .     S
C202   C201    1.415   1_554 S
C203   C511    1.423   1_455 S
C203   C204    1.415   1_556 S
C204   C508    1.422   1_455 S
C204   C203    1.415   1_554 S
N221   O222    1.301   .     A
N221   O223    1.301   .     A
N224   O225    1.301   .     A
N224   O226    1.301   .     A
N227   O228    1.301   .     A
N227   O229    1.301   .     A
N230   O231    1.301   .     A
N230   O232    1.301   .     A
N233   O234    1.301   .     A
N233   O235    1.301   .     A
N236   O237    1.301   .     A
N236   O238    1.301   .     A
N239   O240    1.301   .     A
N239   O241    1.301   .     A
N242   O244    1.301   .     A
N242   O243    1.301   .     A
N245   O246    1.301   .     A
N245   O247    1.301   .     A
N248   O250    1.301   .     A
N248   O249    1.301   .     A
N251   O252    1.301   .     A
N251   O253    1.301   .     A
N254   O256    1.302   .     A
N254   O255    1.301   .     A
N257   O258    1.301   .     A
N257   O259    1.301   .     A
N260   O261    1.301   .     A
N260   O262    1.301   .     A
N263   O265    1.301   .     A
N263   O264    1.300   .     A
N266   O268    1.302   .     A
N266   O267    1.301   .     A
N269   O271    1.301   .     A
N269   O270    1.301   .     A
N272   O273    1.301   .     A
N272   O274    1.301   .     A
N275   O276    1.301   .     A
N275   O277    1.301   .     A
N278   O279    1.301   .     A
N278   O280    1.301   .     A
N281   O283    1.301   .     A
N281   O282    1.301   .     A
N284   O285    1.301   .     A
N284   O286    1.301   .     A
N287   O289    1.301   .     A
N287   O288    1.301   .     A
N290   O291    1.301   .     A
N290   O292    1.301   .     A
N293   O294    1.301   .     A
N293   O295    1.301   .     A
N296   O297    1.301   .     A
N296   O298    1.301   .     A
N299   O300    1.301   .     A
N299   O301    1.302   .     A
N302   O304    1.301   .     A
N302   O303    1.301   .     A
N305   O306    1.301   .     A
N305   O307    1.301   .     A
N308   O310    1.301   .     A
N308   O309    1.301   .     A
N311   O313    1.302   .     A
N311   O312    1.301   .     A
N314   O315    1.300   .     A
N314   O316    1.301   .     A
Br318  C350    1.938   1_455 S
Br320  C684    1.936   .     S
Br322  C354    1.938   .     S
Br324  C688    1.937   1_545 S
Zn333  O419    1.935   .     S
Zn333  O388    1.949   .     S
Zn333  O373    1.943   .     S
Zn333  O1080   1.932   1_545 S
Zn334  O387    1.949   .     S
Zn334  O415    1.932   .     S
Zn334  O374    1.943   .     S
Zn334  O1084   1.935   1_545 S
Zn335  O390    1.949   .     S
Zn335  O375    1.947   .     S
Zn335  O410    1.933   .     S
Zn336  O376    1.947   .     S
Zn336  O389    1.949   .     S
Zn336  O418    1.930   .     S
Zn337  O392    1.949   .     S
Zn337  O412    1.932   .     S
Zn337  O373    1.943   .     S
Zn337  O1087   1.935   1_545 S
Zn338  O374    1.943   .     S
Zn338  O424    1.935   .     S
Zn338  O391    1.949   .     S
Zn338  O1075   1.932   1_545 S
Zn339  O375    1.948   .     S
Zn339  O386    1.949   .     S
Zn339  O421    1.930   .     S
Zn340  O413    1.933   .     S
Zn340  O376    1.948   .     S
Zn340  O385    1.949   .     S
Zn341  O380    1.949   .     S
Zn341  O403    1.935   .     S
Zn341  O44     1.943   1_655 S
Zn341  O400    1.932   .     S
Zn342  O379    1.949   .     S
Zn342  O404    1.935   .     S
Zn342  O399    1.932   .     S
Zn342  O375    1.943   .     S
Zn343  O394    1.933   .     S
Zn343  O401    1.930   .     S
Zn343  O382    1.949   .     S
Zn343  O1038   1.947   .     S
Zn344  O381    1.949   .     S
Zn344  O402    1.930   .     S
Zn344  O393    1.933   .     S
Zn344  O373    1.947   .     S
Zn345  O407    1.935   .     S
Zn345  O384    1.949   .     S
Zn345  O396    1.932   .     S
Zn345  O376    1.943   .     S
Zn346  O408    1.935   .     S
Zn346  O43     1.943   1_655 S
Zn346  O383    1.949   .     S
Zn346  O395    1.932   .     S
Zn347  O398    1.933   .     S
Zn347  O405    1.930   .     S
Zn347  O374    1.948   .     S
Zn347  O378    1.949   .     S
Zn348  O377    1.949   .     S
Zn348  O397    1.933   .     S
Zn348  O406    1.930   .     S
Zn348  O1037   1.948   .     S
C349   Br649   1.942   .     S
C349   C501    1.413   .     A
C349   C365    1.403   .     S
C350   C502    1.412   .     A
C350   C34     1.398   1_655 S
C350   Br318   1.938   1_655 S
C351   Br651   1.943   .     S
C351   C503    1.413   .     A
C351   C1031   1.404   .     S
C352   C504    1.410   .     A
C352   C1032   1.397   1_545 S
C352   Br1316  1.936   1_545 S
C353   C33     1.403   1_655 A
C353   C497    1.413   .     A
C353   Br653   1.942   .     S
C354   C498    1.412   .     A
C354   C366    1.398   .     A
C355   C499    1.412   .     A
C355   C367    1.404   .     A
C355   Br655   1.943   .     S
C356   C368    1.398   .     A
C356   C500    1.413   .     A
C356   Br1320  1.937   .     S
C357   C509    1.412   .     A
C357   Br657   1.938   .     S
C357   C1033   1.398   1_545 S
C358   Br658   1.942   .     S
C358   C1034   1.403   .     A
C358   C510    1.413   .     A
C359   C511    1.410   .     A
C359   Br659   1.936   .     S
C359   C39     1.397   1_655 S
C360   C372    1.404   .     A
C360   C512    1.413   .     A
C360   Br660   1.943   .     S
C361   Br661   1.938   .     S
C361   C369    1.398   .     A
C361   C505    1.412   .     A
C362   C506    1.413   .     A
C362   Br662   1.942   .     S
C362   C370    1.403   .     S
C363   Br663   1.937   .     S
C363   C507    1.413   .     A
C363   C371    1.398   .     A
C364   Br664   1.943   .     S
C364   C508    1.412   .     A
C364   C40     1.404   1_655 S
C365   C443    1.459   .     S
C366   C444    1.453   .     S
C367   C441    1.460   .     S
C367   C1015   1.404   1_545 S
C368   C442    1.453   .     S
C368   C1016   1.397   .     S
C369   C1111   1.453   .     S
C369   C1021   1.398   .     S
C370   C1022   1.403   1_545 A
C370   C448    1.459   .     S
C371   C445    1.453   .     S
C372   C446    1.460   .     S
O373   Zn1012  1.948   1_545 S
O374   Zn1007  1.947   1_545 S
O377   C1105   1.279   .     S
O378   C1106   1.277   1_545 S
O379   C443    1.276   .     S
O380   C112    1.274   1_655 S
O381   C441    1.279   .     A
O382   C442    1.276   .     A
O383   C111    1.276   1_655 A
O384   C444    1.274   .     A
O385   C445    1.277   .     S
O386   C446    1.279   .     S
O387   C447    1.274   .     S
O388   C448    1.276   .     A
O389   C445    1.276   .     S
O390   C446    1.279   .     S
O391   C447    1.274   .     S
O392   C448    1.276   .     A
O393   C449    1.279   .     A
O394   C450    1.282   .     A
O395   C451    1.275   .     A
O396   C452    1.281   .     A
O397   C453    1.279   .     A
O398   C454    1.282   .     A
O399   C455    1.276   .     A
O400   C456    1.279   .     A
O401   C457    1.275   .     A
O402   C458    1.281   .     A
O403   C459    1.275   .     A
O404   C460    1.278   .     A
O405   C461    1.277   .     A
O406   C462    1.281   .     A
O407   C463    1.275   .     A
O408   C464    1.278   .     A
O409   C459    1.282   .     A
O409   Zn4     1.933   1_655 S
O410   C460    1.279   .     A
O411   C457    1.281   .     A
O411   Zn1002  1.932   .     S
O412   C458    1.275   .     A
O413   C463    1.282   .     A
O414   C464    1.279   .     A
O414   Zn7     1.933   1_655 S
O415   C461    1.279   .     A
O416   C462    1.276   .     A
O416   Zn997   1.932   .     S
O417   Zn3     1.930   1_655 S
O417   C451    1.281   .     A
O418   C452    1.275   .     A
O419   C449    1.278   .     A
O420   C450    1.275   .     A
O420   Zn998   1.935   .     S
O421   C455    1.281   .     A
O422   C456    1.277   .     A
O422   Zn8     1.930   1_655 S
O423   C453    1.278   .     A
O423   Zn1001  1.935   .     S
O424   C454    1.275   .     A
C425   Br537   1.936   .     S
C425   C497    1.415   .     A
C425   C430    1.397   .     A
C426   C429    1.397   .     A
C426   Br538   1.936   .     S
C426   C498    1.414   .     A
C427   C499    1.415   .     A
C427   Br539   1.936   .     S
C427   C432    1.395   .     A
C428   Br540   1.936   .     S
C428   C431    1.396   .     A
C428   C500    1.414   .     A
C429   Br541   1.936   .     S
C429   C501    1.415   .     A
C430   C502    1.413   .     A
C430   Br542   1.936   .     S
C431   Br543   1.936   .     S
C431   C503    1.414   .     A
C432   C504    1.413   .     A
C432   Br544   1.937   .     S
C433   Br545   1.936   .     S
C433   C505    1.414   .     A
C433   C438    1.397   1_556 S
C434   Br546   1.936   .     S
C434   C506    1.415   .     A
C434   C437    1.397   1_554 S
C435   C507    1.414   .     A
C435   Br547   1.936   .     S
C435   C440    1.396   1_556 S
C436   Br548   1.936   .     S
C436   C508    1.415   .     A
C436   C439    1.395   1_554 S
C437   C509    1.413   .     A
C437   Br549   1.936   .     S
C437   C434    1.397   1_556 S
C438   C510    1.415   .     A
C438   Br550   1.936   .     S
C438   C433    1.397   1_554 S
C439   C511    1.413   .     A
C439   Br551   1.937   .     S
C439   C436    1.395   1_556 S
C440   Br552   1.936   .     S
C440   C512    1.414   .     A
C440   C435    1.396   1_554 S
C441   O1041   1.279   1_545 S
C442   O1042   1.277   .     S
C447   C1033   1.453   1_545 S
C449   C515    1.454   .     S
C450   C516    1.454   .     S
C451   C517    1.452   .     S
C452   C518    1.452   .     S
C453   C519    1.454   .     S
C454   C520    1.454   .     S
C455   C513    1.452   .     S
C456   C514    1.452   .     S
C457   C523    1.452   .     S
C458   C524    1.452   .     S
C459   C525    1.454   .     S
C460   C526    1.454   .     S
C461   C527    1.452   .     S
C462   C528    1.452   .     S
C463   C521    1.454   .     S
C464   C522    1.454   .     S
C465   C528    1.409   .     A
C465   N553    1.434   .     S
C465   C480    1.400   .     A
C466   N556    1.438   .     S
C466   C479    1.398   .     A
C466   C527    1.409   .     A
C467   C478    1.399   .     A
C467   C526    1.409   .     A
C467   N559    1.438   .     S
C468   N562    1.437   .     S
C468   C477    1.401   .     A
C468   C525    1.408   .     A
C469   C524    1.409   .     A
C469   C476    1.400   .     A
C469   N565    1.434   .     S
C470   C475    1.400   .     A
C470   C523    1.408   .     A
C470   N568    1.439   .     S
C471   C474    1.399   .     A
C471   N571    1.438   .     S
C471   C522    1.409   .     A
C472   C473    1.400   .     A
C472   C521    1.408   .     A
C472   N574    1.437   .     S
C473   N577    1.434   .     S
C473   C520    1.408   .     A
C474   C519    1.409   .     A
C474   N580    1.435   .     S
C475   N583    1.435   .     S
C475   C518    1.409   .     A
C476   C517    1.409   .     A
C476   N586    1.440   .     S
C477   C516    1.408   .     A
C477   N589    1.434   .     S
C478   C515    1.409   .     A
C478   N592    1.435   .     S
C479   N595    1.433   .     S
C479   C514    1.408   .     A
C480   C513    1.409   .     A
C480   N598    1.440   .     S
C481   C514    1.409   .     A
C481   C496    1.398   .     A
C481   N601    1.438   .     S
C482   C495    1.400   .     A
C482   C513    1.409   .     A
C482   N604    1.434   .     S
C483   C516    1.408   .     A
C483   C494    1.401   .     A
C483   N607    1.437   .     S
C484   C493    1.399   .     A
C484   C515    1.409   .     A
C484   N610    1.438   .     S
C485   C492    1.400   .     A
C485   C518    1.408   .     A
C485   N613    1.439   .     S
C486   N616    1.434   .     S
C486   C491    1.400   .     A
C486   C517    1.409   .     A
C487   C490    1.400   .     A
C487   C520    1.408   .     A
C487   N619    1.437   .     S
C488   C519    1.409   .     A
C488   N622    1.438   .     S
C488   C489    1.399   .     A
C489   N625    1.435   .     S
C489   C522    1.409   .     A
C490   N628    1.434   .     S
C490   C521    1.408   .     A
C491   C524    1.409   .     A
C491   N631    1.440   .     S
C492   C523    1.409   .     A
C492   N634    1.435   .     S
C493   N637    1.435   .     S
C493   C526    1.409   .     A
C494   C525    1.408   .     A
C494   N640    1.434   .     S
C495   C528    1.409   .     A
C495   N643    1.440   .     S
C496   C527    1.408   .     A
C496   N646    1.433   .     S
C497   C197    1.422   1_655 S
C498   C530    1.423   .     A
C499   C531    1.422   .     A
C500   C532    1.423   .     A
C501   C529    1.422   .     A
C502   C198    1.423   1_655 S
C503   C1195   1.422   .     S
C504   C1196   1.423   1_545 S
C505   C533    1.423   .     A
C506   C1198   1.422   1_545 S
C507   C535    1.424   .     A
C508   C204    1.422   1_655 S
C509   C1197   1.423   1_545 S
C510   C534    1.422   .     A
C511   C203    1.423   1_655 S
C512   C536    1.422   .     A
C529   C530    1.415   .     A
C531   C1167   1.422   1_545 S
C531   C1196   1.415   1_545 S
C532   C1168   1.423   .     S
C532   C1195   1.415   .     S
C533   C1173   1.423   .     S
C533   C534    1.415   1_556 S
C534   C1170   1.422   .     S
C534   C533    1.415   1_554 S
C535   C536    1.415   1_556 S
C536   C535    1.415   1_554 S
N553   O554    1.301   .     A
N553   O555    1.301   .     A
N556   O557    1.301   .     A
N556   O558    1.301   .     A
N559   O560    1.301   .     A
N559   O561    1.301   .     A
N562   O563    1.301   .     A
N562   O564    1.301   .     A
N565   O566    1.301   .     A
N565   O567    1.301   .     A
N568   O569    1.301   .     A
N568   O570    1.301   .     A
N571   O572    1.301   .     A
N571   O573    1.301   .     A
N574   O576    1.301   .     A
N574   O575    1.301   .     A
N577   O578    1.301   .     A
N577   O579    1.301   .     A
N580   O582    1.301   .     A
N580   O581    1.301   .     A
N583   O584    1.301   .     A
N583   O585    1.301   .     A
N586   O588    1.302   .     A
N586   O587    1.301   .     A
N589   O590    1.301   .     A
N589   O591    1.301   .     A
N592   O593    1.301   .     A
N592   O594    1.301   .     A
N595   O597    1.301   .     A
N595   O596    1.300   .     A
N598   O600    1.302   .     A
N598   O599    1.301   .     A
N601   O603    1.301   .     A
N601   O602    1.301   .     A
N604   O605    1.301   .     A
N604   O606    1.301   .     A
N607   O608    1.301   .     A
N607   O609    1.301   .     A
N610   O611    1.301   .     A
N610   O612    1.301   .     A
N613   O615    1.301   .     A
N613   O614    1.301   .     A
N616   O617    1.301   .     A
N616   O618    1.301   .     A
N619   O621    1.301   .     A
N619   O620    1.301   .     A
N622   O623    1.301   .     A
N622   O624    1.301   .     A
N625   O626    1.301   .     A
N625   O627    1.301   .     A
N628   O629    1.301   .     A
N628   O630    1.301   .     A
N631   O632    1.301   .     A
N631   O633    1.302   .     A
N634   O636    1.301   .     A
N634   O635    1.301   .     A
N637   O638    1.301   .     A
N637   O639    1.301   .     A
N640   O642    1.301   .     A
N640   O641    1.301   .     A
N643   O645    1.302   .     A
N643   O644    1.301   .     A
N646   O647    1.300   .     A
N646   O648    1.301   .     A
Br652  C1016   1.936   .     S
Br654  C22     1.938   1_655 S
Br656  C1020   1.937   1_545 S
Zn665  O751    1.935   .     S
Zn665  O720    1.949   .     S
Zn665  O705    1.943   .     S
Zn666  O719    1.949   .     S
Zn666  O747    1.932   .     S
Zn666  O706    1.943   .     S
Zn667  O1081   1.930   1_455 S
Zn667  O722    1.949   .     S
Zn667  O707    1.947   .     S
Zn667  O742    1.933   .     S
Zn668  O708    1.947   .     S
Zn668  O1073   1.933   1_455 S
Zn668  O721    1.949   .     S
Zn668  O750    1.930   .     S
Zn669  O724    1.949   .     S
Zn669  O744    1.932   .     S
Zn669  O705    1.943   .     S
Zn670  O706    1.943   .     S
Zn670  O756    1.935   .     S
Zn670  O723    1.949   .     S
Zn671  O707    1.948   .     S
Zn671  O718    1.949   .     S
Zn671  O1078   1.933   1_455 S
Zn671  O753    1.930   .     S
Zn672  O745    1.933   .     S
Zn672  O708    1.948   .     S
Zn672  O717    1.949   .     S
Zn672  O1086   1.930   1_455 S
Zn673  O712    1.949   .     S
Zn673  O735    1.935   .     S
Zn673  O1040   1.943   .     S
Zn673  O732    1.932   .     S
Zn674  O711    1.949   .     S
Zn674  O736    1.935   .     S
Zn674  O731    1.932   .     S
Zn674  O707    1.943   .     S
Zn675  O726    1.933   .     S
Zn675  O733    1.930   .     S
Zn675  O714    1.949   .     S
Zn675  O42     1.947   1_565 S
Zn676  O713    1.949   .     S
Zn676  O734    1.930   .     S
Zn676  O725    1.933   .     S
Zn676  O705    1.947   .     S
Zn677  O739    1.935   .     S
Zn677  O716    1.949   .     S
Zn677  O728    1.932   .     S
Zn677  O708    1.943   .     S
Zn678  O740    1.935   .     S
Zn678  O1039   1.943   .     S
Zn678  O715    1.949   .     S
Zn678  O727    1.932   .     S
Zn679  O730    1.933   .     S
Zn679  O737    1.930   .     S
Zn679  O706    1.948   .     S
Zn679  O710    1.949   .     S
Zn680  O709    1.949   .     S
Zn680  O729    1.933   .     S
Zn680  O738    1.930   .     S
Zn680  O41     1.948   1_565 S
C681   Br981   1.942   .     S
C681   C833    1.413   .     A
C681   C697    1.403   .     S
C682   C834    1.412   .     A
C682   C1030   1.398   .     S
C682   Br1314  1.938   .     S
C683   Br983   1.943   .     S
C683   C835    1.413   .     A
C683   C35     1.404   1_565 S
C684   C836    1.410   .     A
C685   C1029   1.403   .     A
C685   C829    1.413   .     A
C685   Br985   1.942   .     S
C686   C830    1.412   .     A
C686   C698    1.398   .     A
C686   Br1318  1.938   1_455 S
C687   C831    1.412   .     A
C687   C699    1.404   .     A
C687   Br987   1.943   .     S
C688   C700    1.398   .     A
C688   C832    1.413   .     A
C688   Br324   1.937   1_565 S
C689   C841    1.412   .     A
C689   Br989   1.938   .     S
C690   Br990   1.942   .     S
C690   C38     1.403   1_565 A
C690   C842    1.413   .     A
C691   C843    1.410   .     A
C691   Br991   1.936   .     S
C691   C1035   1.397   .     S
C692   C704    1.404   .     A
C692   C844    1.413   .     A
C692   Br992   1.943   .     S
C693   Br993   1.938   .     S
C693   C701    1.398   .     A
C693   C837    1.412   .     A
C694   C838    1.413   .     A
C694   Br994   1.942   .     S
C694   C702    1.403   .     S
C695   Br995   1.937   .     S
C695   C839    1.413   .     A
C695   C703    1.398   .     A
C696   Br996   1.943   .     S
C696   C840    1.412   .     A
C696   C1036   1.404   .     S
C697   C1017   1.403   1_455 A
C697   C775    1.459   .     S
C698   C776    1.453   .     S
C698   C1014   1.398   1_455 S
C699   C773    1.460   .     S
C700   C774    1.453   .     S
C700   C20     1.397   1_565 S
C701   C115    1.453   1_565 S
C701   C25     1.398   1_565 S
C702   C780    1.459   .     S
C703   C777    1.453   .     S
C703   C1023   1.397   1_455 S
C704   C778    1.460   .     S
C704   C1028   1.404   1_455 S
O707   Zn1010  1.943   1_455 S
O708   Zn1005  1.943   1_455 S
O709   C109    1.279   1_565 S
O711   C775    1.276   .     S
O712   C1108   1.274   .     S
O713   C773    1.279   .     A
O714   C774    1.276   .     A
O715   C1107   1.276   .     A
O716   C776    1.274   .     A
O717   C777    1.277   .     S
O718   C778    1.279   .     S
O719   C779    1.274   .     S
O720   C780    1.276   .     A
O721   C777    1.276   .     S
O722   C778    1.279   .     S
O723   C779    1.274   .     S
O724   C780    1.276   .     A
O725   C781    1.279   .     A
O726   C782    1.282   .     A
O727   C783    1.275   .     A
O728   C784    1.281   .     A
O729   C785    1.279   .     A
O730   C786    1.282   .     A
O731   C787    1.276   .     A
O732   C788    1.279   .     A
O733   C789    1.275   .     A
O734   C790    1.281   .     A
O735   C791    1.275   .     A
O736   C792    1.278   .     A
O737   C793    1.277   .     A
O738   C794    1.281   .     A
O739   C795    1.275   .     A
O740   C796    1.278   .     A
O741   C791    1.282   .     A
O741   Zn1000  1.933   .     S
O742   C792    1.279   .     A
O743   C789    1.281   .     A
O743   Zn6     1.932   1_565 S
O744   C790    1.275   .     A
O745   C795    1.282   .     A
O746   C796    1.279   .     A
O746   Zn1003  1.933   .     S
O747   C793    1.279   .     A
O748   C794    1.276   .     A
O748   Zn1     1.932   1_565 S
O749   Zn999   1.930   .     S
O749   C783    1.281   .     A
O750   C784    1.275   .     A
O751   C781    1.278   .     A
O752   C782    1.275   .     A
O752   Zn2     1.935   1_565 S
O753   C787    1.281   .     A
O754   C788    1.277   .     A
O754   Zn1004  1.930   .     S
O755   C785    1.278   .     A
O755   Zn5     1.935   1_565 S
O756   C786    1.275   .     A
C757   Br869   1.936   .     S
C757   C829    1.415   .     A
C757   C762    1.397   .     A
C758   C761    1.397   .     A
C758   Br870   1.936   .     S
C758   C830    1.414   .     A
C759   C831    1.415   .     A
C759   Br871   1.936   .     S
C759   C764    1.395   .     A
C760   Br872   1.936   .     S
C760   C763    1.396   .     A
C760   C832    1.414   .     A
C761   Br873   1.936   .     S
C761   C833    1.415   .     A
C762   C834    1.413   .     A
C762   Br874   1.936   .     S
C763   Br875   1.936   .     S
C763   C835    1.414   .     A
C764   C836    1.413   .     A
C764   Br876   1.937   .     S
C765   Br877   1.936   .     S
C765   C837    1.414   .     A
C765   C770    1.397   1_556 S
C766   Br878   1.936   .     S
C766   C838    1.415   .     A
C766   C769    1.397   1_554 S
C767   C839    1.414   .     A
C767   Br879   1.936   .     S
C767   C772    1.396   1_556 S
C768   Br880   1.936   .     S
C768   C840    1.415   .     A
C768   C771    1.395   1_554 S
C769   C841    1.413   .     A
C769   Br881   1.936   .     S
C769   C766    1.397   1_556 S
C770   C842    1.415   .     A
C770   Br882   1.936   .     S
C770   C765    1.397   1_554 S
C771   C843    1.413   .     A
C771   Br883   1.937   .     S
C771   C768    1.395   1_556 S
C772   Br884   1.936   .     S
C772   C844    1.414   .     A
C772   C767    1.396   1_554 S
C774   O46     1.277   1_565 S
C775   O1047   1.276   1_455 A
C776   O1044   1.274   1_455 S
C781   C847    1.454   .     S
C782   C848    1.454   .     S
C783   C849    1.452   .     S
C784   C850    1.452   .     S
C785   C851    1.454   .     S
C786   C852    1.454   .     S
C787   C845    1.452   .     S
C788   C846    1.452   .     S
C789   C855    1.452   .     S
C790   C856    1.452   .     S
C791   C857    1.454   .     S
C792   C858    1.454   .     S
C793   C859    1.452   .     S
C794   C860    1.452   .     S
C795   C853    1.454   .     S
C796   C854    1.454   .     S
C797   C860    1.409   .     A
C797   N885    1.434   .     S
C797   C812    1.400   .     A
C798   N888    1.438   .     S
C798   C811    1.398   .     A
C798   C859    1.409   .     A
C799   C810    1.399   .     A
C799   C858    1.409   .     A
C799   N891    1.438   .     S
C800   N894    1.437   .     S
C800   C809    1.401   .     A
C800   C857    1.408   .     A
C801   C856    1.409   .     A
C801   C808    1.400   .     A
C801   N897    1.434   .     S
C802   C807    1.400   .     A
C802   C855    1.408   .     A
C802   N900    1.439   .     S
C803   C806    1.399   .     A
C803   N903    1.438   .     S
C803   C854    1.409   .     A
C804   C805    1.400   .     A
C804   C853    1.408   .     A
C804   N906    1.437   .     S
C805   N909    1.434   .     S
C805   C852    1.408   .     A
C806   C851    1.409   .     A
C806   N912    1.435   .     S
C807   N915    1.435   .     S
C807   C850    1.409   .     A
C808   C849    1.409   .     A
C808   N918    1.440   .     S
C809   C848    1.408   .     A
C809   N921    1.434   .     S
C810   C847    1.409   .     A
C810   N924    1.435   .     S
C811   N927    1.433   .     S
C811   C846    1.408   .     A
C812   C845    1.409   .     A
C812   N930    1.440   .     S
C813   C846    1.409   .     A
C813   C828    1.398   .     A
C813   N933    1.438   .     S
C814   C827    1.400   .     A
C814   C845    1.409   .     A
C814   N936    1.434   .     S
C815   C848    1.408   .     A
C815   C826    1.401   .     A
C815   N939    1.437   .     S
C816   C825    1.399   .     A
C816   C847    1.409   .     A
C816   N942    1.438   .     S
C817   C824    1.400   .     A
C817   C850    1.408   .     A
C817   N945    1.439   .     S
C818   N948    1.434   .     S
C818   C823    1.400   .     A
C818   C849    1.409   .     A
C819   C822    1.400   .     A
C819   C852    1.408   .     A
C819   N951    1.437   .     S
C820   C851    1.409   .     A
C820   N954    1.438   .     S
C820   C821    1.399   .     A
C821   N957    1.435   .     S
C821   C854    1.409   .     A
C822   N960    1.434   .     S
C822   C853    1.408   .     A
C823   C856    1.409   .     A
C823   N963    1.440   .     S
C824   C855    1.409   .     A
C824   N966    1.435   .     S
C825   N969    1.435   .     S
C825   C858    1.409   .     A
C826   C857    1.408   .     A
C826   N972    1.434   .     S
C827   C860    1.409   .     A
C827   N975    1.440   .     S
C828   C859    1.408   .     A
C828   N978    1.433   .     S
C829   C1193   1.422   .     S
C830   C862    1.423   .     A
C831   C863    1.422   .     A
C832   C864    1.423   .     A
C833   C861    1.422   .     A
C834   C1194   1.423   .     S
C835   C199    1.422   1_565 S
C837   C865    1.423   .     A
C839   C867    1.424   .     A
C840   C1200   1.422   .     S
C842   C866    1.422   .     A
C843   C1199   1.423   .     S
C844   C868    1.422   .     A
C861   C862    1.415   .     A
C861   C1161   1.422   1_455 S
C862   C1166   1.423   1_455 S
C864   C172    1.423   1_565 S
C864   C199    1.415   1_565 S
C865   C177    1.423   1_565 S
C865   C866    1.415   1_556 S
C866   C174    1.422   1_565 S
C866   C865    1.415   1_554 S
C867   C1175   1.423   1_455 S
C867   C868    1.415   1_556 S
C868   C1172   1.422   1_455 S
C868   C867    1.415   1_554 S
N885   O886    1.301   .     A
N885   O887    1.301   .     A
N888   O889    1.301   .     A
N888   O890    1.301   .     A
N891   O892    1.301   .     A
N891   O893    1.301   .     A
N894   O895    1.301   .     A
N894   O896    1.301   .     A
N897   O898    1.301   .     A
N897   O899    1.301   .     A
N900   O901    1.301   .     A
N900   O902    1.301   .     A
N903   O904    1.301   .     A
N903   O905    1.301   .     A
N906   O908    1.301   .     A
N906   O907    1.301   .     A
N909   O910    1.301   .     A
N909   O911    1.301   .     A
N912   O914    1.301   .     A
N912   O913    1.301   .     A
N915   O916    1.301   .     A
N915   O917    1.301   .     A
N918   O920    1.302   .     A
N918   O919    1.301   .     A
N921   O922    1.301   .     A
N921   O923    1.301   .     A
N924   O925    1.301   .     A
N924   O926    1.301   .     A
N927   O929    1.301   .     A
N927   O928    1.300   .     A
N930   O932    1.302   .     A
N930   O931    1.301   .     A
N933   O935    1.301   .     A
N933   O934    1.301   .     A
N936   O937    1.301   .     A
N936   O938    1.301   .     A
N939   O940    1.301   .     A
N939   O941    1.301   .     A
N942   O943    1.301   .     A
N942   O944    1.301   .     A
N945   O947    1.301   .     A
N945   O946    1.301   .     A
N948   O949    1.301   .     A
N948   O950    1.301   .     A
N951   O953    1.301   .     A
N951   O952    1.301   .     A
N954   O955    1.301   .     A
N954   O956    1.301   .     A
N957   O958    1.301   .     A
N957   O959    1.301   .     A
N960   O961    1.301   .     A
N960   O962    1.301   .     A
N963   O964    1.301   .     A
N963   O965    1.302   .     A
N966   O968    1.301   .     A
N966   O967    1.301   .     A
N969   O970    1.301   .     A
N969   O971    1.301   .     A
N972   O974    1.301   .     A
N972   O973    1.301   .     A
N975   O977    1.302   .     A
N975   O976    1.301   .     A
N978   O979    1.300   .     A
N978   O980    1.301   .     A
Br982  C1014   1.938   1_455 S
Br984  C20     1.936   1_565 S
Br986  C1018   1.938   .     S
Zn997  O1083   1.935   .     S
Zn997  O1052   1.949   .     S
Zn997  O1037   1.943   .     S
Zn998  O1051   1.949   .     S
Zn998  O1079   1.932   .     S
Zn998  O1038   1.943   .     S
Zn999  O1054   1.949   .     S
Zn999  O1039   1.947   .     S
Zn999  O1074   1.933   .     S
Zn1000 O1040   1.947   .     S
Zn1000 O1053   1.949   .     S
Zn1000 O1082   1.930   .     S
Zn1001 O1056   1.949   .     S
Zn1001 O1076   1.932   .     S
Zn1001 O1037   1.943   .     S
Zn1002 O1038   1.943   .     S
Zn1002 O1088   1.935   .     S
Zn1002 O1055   1.949   .     S
Zn1003 O1039   1.948   .     S
Zn1003 O1050   1.949   .     S
Zn1003 O1085   1.930   .     S
Zn1004 O1077   1.933   .     S
Zn1004 O1040   1.948   .     S
Zn1004 O1049   1.949   .     S
Zn1005 O1044   1.949   .     S
Zn1005 O1067   1.935   .     S
Zn1005 O708    1.943   1_655 S
Zn1005 O1064   1.932   .     S
Zn1006 O1043   1.949   .     S
Zn1006 O1068   1.935   .     S
Zn1006 O1063   1.932   .     S
Zn1006 O1039   1.943   .     S
Zn1007 O1058   1.933   .     S
Zn1007 O1065   1.930   .     S
Zn1007 O1046   1.949   .     S
Zn1007 O374    1.947   1_565 S
Zn1008 O1045   1.949   .     S
Zn1008 O1066   1.930   .     S
Zn1008 O1057   1.933   .     S
Zn1008 O1037   1.947   .     S
Zn1009 O1071   1.935   .     S
Zn1009 O1048   1.949   .     S
Zn1009 O1060   1.932   .     S
Zn1009 O1040   1.943   .     S
Zn1010 O1072   1.935   .     S
Zn1010 O707    1.943   1_655 S
Zn1010 O1047   1.949   .     S
Zn1010 O1059   1.932   .     S
Zn1011 O1062   1.933   .     S
Zn1011 O1069   1.930   .     S
Zn1011 O1038   1.948   .     S
Zn1011 O1042   1.949   .     S
Zn1012 O1041   1.949   .     S
Zn1012 O1061   1.933   .     S
Zn1012 O1070   1.930   .     S
Zn1012 O373    1.948   1_565 S
C1013  Br1313  1.942   .     S
C1013  C1165   1.413   .     A
C1013  C1029   1.403   .     S
C1014  C1166   1.412   .     A
C1014  C698    1.398   1_655 S
C1014  Br982   1.938   1_655 S
C1015  Br1315  1.943   .     S
C1015  C1167   1.413   .     A
C1015  C367    1.404   1_565 S
C1016  C1168   1.410   .     A
C1017  C697    1.403   1_655 A
C1017  C1161   1.413   .     A
C1017  Br1317  1.942   .     S
C1018  C1162   1.412   .     A
C1018  C1030   1.398   .     A
C1019  C1163   1.412   .     A
C1019  C1031   1.404   .     A
C1019  Br1319  1.943   .     S
C1020  C1032   1.398   .     A
C1020  C1164   1.413   .     A
C1020  Br656   1.937   1_565 S
C1021  C1173   1.412   .     A
C1021  Br1321  1.938   .     S
C1022  Br1322  1.942   .     S
C1022  C370    1.403   1_565 A
C1022  C1174   1.413   .     A
C1023  C1175   1.410   .     A
C1023  Br1323  1.936   .     S
C1023  C703    1.397   1_655 S
C1024  C1036   1.404   .     A
C1024  C1176   1.413   .     A
C1024  Br1324  1.943   .     S
C1025  Br1325  1.938   .     S
C1025  C1033   1.398   .     A
C1025  C1169   1.412   .     A
C1026  C1170   1.413   .     A
C1026  Br1326  1.942   .     S
C1026  C1034   1.403   .     S
C1027  Br1327  1.937   .     S
C1027  C1171   1.413   .     A
C1027  C1035   1.398   .     A
C1028  Br1328  1.943   .     S
C1028  C1172   1.412   .     A
C1028  C704    1.404   1_655 S
C1029  C1107   1.459   .     S
C1030  C1108   1.453   .     S
C1031  C1105   1.460   .     S
C1032  C1106   1.453   .     S
C1032  C352    1.397   1_565 S
C1033  C447    1.453   1_565 S
C1033  C357    1.398   1_565 S
C1034  C1112   1.459   .     S
C1035  C1109   1.453   .     S
C1036  C1110   1.460   .     S
O1041  C441    1.279   1_565 S
O1043  C1107   1.276   .     S
O1044  C776    1.274   1_655 S
O1045  C1105   1.279   .     A
O1046  C1106   1.276   .     A
O1047  C775    1.276   1_655 A
O1048  C1108   1.274   .     A
O1049  C1109   1.277   .     S
O1050  C1110   1.279   .     S
O1051  C1111   1.274   .     S
O1052  C1112   1.276   .     A
O1053  C1109   1.276   .     S
O1054  C1110   1.279   .     S
O1055  C1111   1.274   .     S
O1056  C1112   1.276   .     A
O1057  C1113   1.279   .     A
O1058  C1114   1.282   .     A
O1059  C1115   1.275   .     A
O1060  C1116   1.281   .     A
O1061  C1117   1.279   .     A
O1062  C1118   1.282   .     A
O1063  C1119   1.276   .     A
O1064  C1120   1.279   .     A
O1065  C1121   1.275   .     A
O1066  C1122   1.281   .     A
O1067  C1123   1.275   .     A
O1068  C1124   1.278   .     A
O1069  C1125   1.277   .     A
O1070  C1126   1.281   .     A
O1071  C1127   1.275   .     A
O1072  C1128   1.278   .     A
O1073  C1123   1.282   .     A
O1073  Zn668   1.933   1_655 S
O1074  C1124   1.279   .     A
O1075  C1121   1.281   .     A
O1075  Zn338   1.932   1_565 S
O1076  C1122   1.275   .     A
O1077  C1127   1.282   .     A
O1078  C1128   1.279   .     A
O1078  Zn671   1.933   1_655 S
O1079  C1125   1.279   .     A
O1080  C1126   1.276   .     A
O1080  Zn333   1.932   1_565 S
O1081  Zn667   1.930   1_655 S
O1081  C1115   1.281   .     A
O1082  C1116   1.275   .     A
O1083  C1113   1.278   .     A
O1084  C1114   1.275   .     A
O1084  Zn334   1.935   1_565 S
O1085  C1119   1.281   .     A
O1086  C1120   1.277   .     A
O1086  Zn672   1.930   1_655 S
O1087  C1117   1.278   .     A
O1087  Zn337   1.935   1_565 S
O1088  C1118   1.275   .     A
C1089  Br1201  1.936   .     S
C1089  C1161   1.415   .     A
C1089  C1094   1.397   .     A
C1090  C1093   1.397   .     A
C1090  Br1202  1.936   .     S
C1090  C1162   1.414   .     A
C1091  C1163   1.415   .     A
C1091  Br1203  1.936   .     S
C1091  C1096   1.395   .     A
C1092  Br1204  1.936   .     S
C1092  C1095   1.396   .     A
C1092  C1164   1.414   .     A
C1093  Br1205  1.936   .     S
C1093  C1165   1.415   .     A
C1094  C1166   1.413   .     A
C1094  Br1206  1.936   .     S
C1095  Br1207  1.936   .     S
C1095  C1167   1.414   .     A
C1096  C1168   1.413   .     A
C1096  Br1208  1.937   .     S
C1097  Br1209  1.936   .     S
C1097  C1169   1.414   .     A
C1097  C1102   1.397   1_556 S
C1098  Br1210  1.936   .     S
C1098  C1170   1.415   .     A
C1098  C1101   1.397   1_554 S
C1099  C1171   1.414   .     A
C1099  Br1211  1.936   .     S
C1099  C1104   1.396   1_556 S
C1100  Br1212  1.936   .     S
C1100  C1172   1.415   .     A
C1100  C1103   1.395   1_554 S
C1101  C1173   1.413   .     A
C1101  Br1213  1.936   .     S
C1101  C1098   1.397   1_556 S
C1102  C1174   1.415   .     A
C1102  Br1214  1.936   .     S
C1102  C1097   1.397   1_554 S
C1103  C1175   1.413   .     A
C1103  Br1215  1.937   .     S
C1103  C1100   1.395   1_556 S
C1104  Br1216  1.936   .     S
C1104  C1176   1.414   .     A
C1104  C1099   1.396   1_554 S
C1106  O378    1.277   1_565 S
C1113  C1179   1.454   .     S
C1114  C1180   1.454   .     S
C1115  C1181   1.452   .     S
C1116  C1182   1.452   .     S
C1117  C1183   1.454   .     S
C1118  C1184   1.454   .     S
C1119  C1177   1.452   .     S
C1120  C1178   1.452   .     S
C1121  C1187   1.452   .     S
C1122  C1188   1.452   .     S
C1123  C1189   1.454   .     S
C1124  C1190   1.454   .     S
C1125  C1191   1.452   .     S
C1126  C1192   1.452   .     S
C1127  C1185   1.454   .     S
C1128  C1186   1.454   .     S
C1129  C1192   1.409   .     A
C1129  N1217   1.434   .     S
C1129  C1144   1.400   .     A
C1130  N1220   1.438   .     S
C1130  C1143   1.398   .     A
C1130  C1191   1.409   .     A
C1131  C1142   1.399   .     A
C1131  C1190   1.409   .     A
C1131  N1223   1.438   .     S
C1132  N1226   1.437   .     S
C1132  C1141   1.401   .     A
C1132  C1189   1.408   .     A
C1133  C1188   1.409   .     A
C1133  C1140   1.400   .     A
C1133  N1229   1.434   .     S
C1134  C1139   1.400   .     A
C1134  C1187   1.408   .     A
C1134  N1232   1.439   .     S
C1135  C1138   1.399   .     A
C1135  N1235   1.438   .     S
C1135  C1186   1.409   .     A
C1136  C1137   1.400   .     A
C1136  C1185   1.408   .     A
C1136  N1238   1.437   .     S
C1137  N1241   1.434   .     S
C1137  C1184   1.408   .     A
C1138  C1183   1.409   .     A
C1138  N1244   1.435   .     S
C1139  N1247   1.435   .     S
C1139  C1182   1.409   .     A
C1140  C1181   1.409   .     A
C1140  N1250   1.440   .     S
C1141  C1180   1.408   .     A
C1141  N1253   1.434   .     S
C1142  C1179   1.409   .     A
C1142  N1256   1.435   .     S
C1143  N1259   1.433   .     S
C1143  C1178   1.408   .     A
C1144  C1177   1.409   .     A
C1144  N1262   1.440   .     S
C1145  C1178   1.409   .     A
C1145  C1160   1.398   .     A
C1145  N1265   1.438   .     S
C1146  C1159   1.400   .     A
C1146  C1177   1.409   .     A
C1146  N1268   1.434   .     S
C1147  C1180   1.408   .     A
C1147  C1158   1.401   .     A
C1147  N1271   1.437   .     S
C1148  C1157   1.399   .     A
C1148  C1179   1.409   .     A
C1148  N1274   1.438   .     S
C1149  C1156   1.400   .     A
C1149  C1182   1.408   .     A
C1149  N1277   1.439   .     S
C1150  N1280   1.434   .     S
C1150  C1155   1.400   .     A
C1150  C1181   1.409   .     A
C1151  C1154   1.400   .     A
C1151  C1184   1.408   .     A
C1151  N1283   1.437   .     S
C1152  C1183   1.409   .     A
C1152  N1286   1.438   .     S
C1152  C1153   1.399   .     A
C1153  N1289   1.435   .     S
C1153  C1186   1.409   .     A
C1154  N1292   1.434   .     S
C1154  C1185   1.408   .     A
C1155  C1188   1.409   .     A
C1155  N1295   1.440   .     S
C1156  C1187   1.409   .     A
C1156  N1298   1.435   .     S
C1157  N1301   1.435   .     S
C1157  C1190   1.409   .     A
C1158  C1189   1.408   .     A
C1158  N1304   1.434   .     S
C1159  C1192   1.409   .     A
C1159  N1307   1.440   .     S
C1160  C1191   1.408   .     A
C1160  N1310   1.433   .     S
C1161  C861    1.422   1_655 S
C1162  C1194   1.423   .     A
C1163  C1195   1.422   .     A
C1164  C1196   1.423   .     A
C1165  C1193   1.422   .     A
C1166  C862    1.423   1_655 S
C1167  C531    1.422   1_565 S
C1169  C1197   1.423   .     A
C1171  C1199   1.424   .     A
C1172  C868    1.422   1_655 S
C1174  C1198   1.422   .     A
C1175  C867    1.423   1_655 S
C1176  C1200   1.422   .     A
C1193  C1194   1.415   .     A
C1196  C504    1.423   1_565 S
C1196  C531    1.415   1_565 S
C1197  C509    1.423   1_565 S
C1197  C1198   1.415   1_556 S
C1198  C506    1.422   1_565 S
C1198  C1197   1.415   1_554 S
C1199  C1200   1.415   1_556 S
C1200  C1199   1.415   1_554 S
N1217  O1218   1.301   .     A
N1217  O1219   1.301   .     A
N1220  O1221   1.301   .     A
N1220  O1222   1.301   .     A
N1223  O1224   1.301   .     A
N1223  O1225   1.301   .     A
N1226  O1227   1.301   .     A
N1226  O1228   1.301   .     A
N1229  O1230   1.301   .     A
N1229  O1231   1.301   .     A
N1232  O1233   1.301   .     A
N1232  O1234   1.301   .     A
N1235  O1236   1.301   .     A
N1235  O1237   1.301   .     A
N1238  O1240   1.301   .     A
N1238  O1239   1.301   .     A
N1241  O1242   1.301   .     A
N1241  O1243   1.301   .     A
N1244  O1246   1.301   .     A
N1244  O1245   1.301   .     A
N1247  O1248   1.301   .     A
N1247  O1249   1.301   .     A
N1250  O1252   1.302   .     A
N1250  O1251   1.301   .     A
N1253  O1254   1.301   .     A
N1253  O1255   1.301   .     A
N1256  O1257   1.301   .     A
N1256  O1258   1.301   .     A
N1259  O1261   1.301   .     A
N1259  O1260   1.300   .     A
N1262  O1264   1.302   .     A
N1262  O1263   1.301   .     A
N1265  O1267   1.301   .     A
N1265  O1266   1.301   .     A
N1268  O1269   1.301   .     A
N1268  O1270   1.301   .     A
N1271  O1272   1.301   .     A
N1271  O1273   1.301   .     A
N1274  O1275   1.301   .     A
N1274  O1276   1.301   .     A
N1277  O1279   1.301   .     A
N1277  O1278   1.301   .     A
N1280  O1281   1.301   .     A
N1280  O1282   1.301   .     A
N1283  O1285   1.301   .     A
N1283  O1284   1.301   .     A
N1286  O1287   1.301   .     A
N1286  O1288   1.301   .     A
N1289  O1290   1.301   .     A
N1289  O1291   1.301   .     A
N1292  O1293   1.301   .     A
N1292  O1294   1.301   .     A
N1295  O1296   1.301   .     A
N1295  O1297   1.302   .     A
N1298  O1300   1.301   .     A
N1298  O1299   1.301   .     A
N1301  O1302   1.301   .     A
N1301  O1303   1.301   .     A
N1304  O1306   1.301   .     A
N1304  O1305   1.301   .     A
N1307  O1309   1.302   .     A
N1307  O1308   1.301   .     A
N1310  O1311   1.300   .     A
N1310  O1312   1.301   .     A
Br1316 C352    1.936   1_565 S
Br1318 C686    1.938   1_655 S
