data_str_m1_o10_o16_pcu_sym.144
_audit_creation_date              2020-01-03
_audit_creation_method            'Materials Studio'
_symmetry_space_group_name_H-M    'P1'
_symmetry_Int_Tables_number       1
_symmetry_cell_setting            triclinic
loop_
_symmetry_equiv_pos_as_xyz
  x,y,z
_cell_length_a                    32.5990
_cell_length_b                    32.5315
_cell_length_c                    30.9674
_cell_angle_alpha                 96.4064
_cell_angle_beta                  74.0942
_cell_angle_gamma                 98.4370
loop_
_atom_site_label
_atom_site_type_symbol
_atom_site_fract_x
_atom_site_fract_y
_atom_site_fract_z
_atom_site_U_iso_or_equiv
_atom_site_adp_type
_atom_site_occupancy
Br1    Br    0.29461   0.15343   0.40775   0.00000  Uiso   1.00
Br2    Br    0.05760   0.22285   0.41992   0.00000  Uiso   1.00
Br3    Br    0.02421   0.19986   0.02640   0.00000  Uiso   1.00
Br4    Br    0.24154   0.21863   0.37623   0.00000  Uiso   1.00
Br5    Br    0.03299   0.20522   0.18574   0.00000  Uiso   1.00
C6     C     0.05268   0.15966   0.26034   0.00000  Uiso   1.00
C7     C     0.16671   0.15374   0.05908   0.00000  Uiso   1.00
C8     C     0.23544   0.13229   0.05539   0.00000  Uiso   1.00
C9     C     0.28093   0.17386   0.23975   0.00000  Uiso   1.00
C10    C     0.13821   0.19161   0.42110   0.00000  Uiso   1.00
C11    C     0.32703   0.17631   0.23466   0.00000  Uiso   1.00
C12    C     0.00753   0.15819   0.26394   0.00000  Uiso   1.00
C13    C     0.18066   0.32257   0.23642   0.00000  Uiso   1.00
C14    C     0.15191   0.01183   0.26401   0.00000  Uiso   1.00
C15    C     0.15619   0.05592   0.26020   0.00000  Uiso   1.00
C16    C     0.17664   0.27801   0.24014   0.00000  Uiso   1.00
C17    C     0.08163   0.19238   0.49139   0.00000  Uiso   1.00
C18    C     0.18580   0.14818   0.12919   0.00000  Uiso   1.00
C19    C     0.14841   0.18506   0.37120   0.00000  Uiso   1.00
C20    C     0.24832   0.13613   0.00923   0.00000  Uiso   1.00
C21    C     0.19509   0.14208   0.08039   0.00000  Uiso   1.00
C22    C     0.09641   0.20053   0.44600   0.00000  Uiso   1.00
C23    C     0.10783   0.17648   0.01221   0.00000  Uiso   1.00
C24    C     0.15122   0.17216   0.49010   0.00000  Uiso   1.00
C25    C     0.16727   0.18205   0.44447   0.00000  Uiso   1.00
C26    C     0.17905   0.15851   0.01230   0.00000  Uiso   1.00
C27    C     0.22142   0.15123   0.48750   0.00000  Uiso   1.00
C28    C     0.23731   0.16255   0.44286   0.00000  Uiso   1.00
C29    C     0.21191   0.18229   0.42370   0.00000  Uiso   1.00
H30    H     0.25782   0.12363   0.07201   0.00000  Uiso   1.00
H31    H     0.31865   0.14252   0.29190   0.00000  Uiso   1.00
H32    H     0.20726   0.00377   0.21101   0.00000  Uiso   1.00
H33    H     0.12493   0.33137   0.28949   0.00000  Uiso   1.00
H34    H     0.28047   0.12960   0.49161   0.00000  Uiso   1.00
H35    H     0.13686   0.16255   0.08076   0.00000  Uiso   1.00
H36    H     0.09292   0.16781   0.04600   0.00000  Uiso   1.00
O37    O     0.16667   0.16667   0.25000   0.00000  Uiso   1.00
O38    O     0.15451   0.12637   0.15458   0.00000  Uiso   1.00
O39    O     0.12940   0.20391   0.34968   0.00000  Uiso   1.00
O40    O     0.20824   0.17759   0.14606   0.00000  Uiso   1.00
O41    O     0.17451   0.15880   0.34968   0.00000  Uiso   1.00
O42    O     0.17930   0.08019   0.28213   0.00000  Uiso   1.00
O43    O     0.14632   0.26085   0.27013   0.00000  Uiso   1.00
O44    O     0.07412   0.13291   0.23413   0.00000  Uiso   1.00
O45    O     0.26693   0.19272   0.21360   0.00000  Uiso   1.00
O46    O     0.07071   0.18878   0.28213   0.00000  Uiso   1.00
O47    O     0.25491   0.15226   0.27013   0.00000  Uiso   1.00
O48    O     0.13760   0.06944   0.23413   0.00000  Uiso   1.00
O49    O     0.20345   0.25620   0.21360   0.00000  Uiso   1.00
Zn50   Zn    0.19338   0.13994   0.28734   0.00000  Uiso   1.00
Zn51   Zn    0.13379   0.12458   0.21875   0.00000  Uiso   1.00
Zn52   Zn    0.21056   0.19775   0.20657   0.00000  Uiso   1.00
Zn53   Zn    0.12893   0.20439   0.28733   0.00000  Uiso   1.00
Br54   Br    0.62795   0.15343   0.40775   0.00000  Uiso   1.00
Br55   Br    0.39094   0.22285   0.41992   0.00000  Uiso   1.00
Br56   Br    0.35754   0.19986   0.02640   0.00000  Uiso   1.00
Br57   Br    0.57488   0.21863   0.37623   0.00000  Uiso   1.00
Br58   Br    0.36632   0.20522   0.18574   0.00000  Uiso   1.00
C59    C     0.38601   0.15966   0.26034   0.00000  Uiso   1.00
C60    C     0.50005   0.15374   0.05908   0.00000  Uiso   1.00
C61    C     0.56877   0.13229   0.05539   0.00000  Uiso   1.00
C62    C     0.61426   0.17386   0.23975   0.00000  Uiso   1.00
C63    C     0.47155   0.19161   0.42110   0.00000  Uiso   1.00
C64    C     0.66037   0.17631   0.23466   0.00000  Uiso   1.00
C65    C     0.34086   0.15819   0.26394   0.00000  Uiso   1.00
C66    C     0.51399   0.32257   0.23642   0.00000  Uiso   1.00
C67    C     0.48524   0.01183   0.26401   0.00000  Uiso   1.00
C68    C     0.48953   0.05592   0.26020   0.00000  Uiso   1.00
C69    C     0.50998   0.27801   0.24014   0.00000  Uiso   1.00
C70    C     0.41496   0.19238   0.49139   0.00000  Uiso   1.00
C71    C     0.51913   0.14818   0.12919   0.00000  Uiso   1.00
C72    C     0.48175   0.18506   0.37120   0.00000  Uiso   1.00
C73    C     0.58165   0.13613   0.00923   0.00000  Uiso   1.00
C74    C     0.52842   0.14208   0.08039   0.00000  Uiso   1.00
C75    C     0.42974   0.20053   0.44600   0.00000  Uiso   1.00
C76    C     0.44117   0.17648   0.01221   0.00000  Uiso   1.00
C77    C     0.48455   0.17216   0.49010   0.00000  Uiso   1.00
C78    C     0.50060   0.18205   0.44447   0.00000  Uiso   1.00
C79    C     0.51239   0.15851   0.01230   0.00000  Uiso   1.00
C80    C     0.55475   0.15123   0.48750   0.00000  Uiso   1.00
C81    C     0.57064   0.16255   0.44286   0.00000  Uiso   1.00
C82    C     0.54524   0.18229   0.42370   0.00000  Uiso   1.00
H83    H     0.59115   0.12363   0.07201   0.00000  Uiso   1.00
H84    H     0.65198   0.14252   0.29190   0.00000  Uiso   1.00
H85    H     0.54059   0.00377   0.21101   0.00000  Uiso   1.00
H86    H     0.45826   0.33137   0.28949   0.00000  Uiso   1.00
H87    H     0.61380   0.12960   0.49161   0.00000  Uiso   1.00
H88    H     0.47020   0.16255   0.08076   0.00000  Uiso   1.00
H89    H     0.42625   0.16781   0.04600   0.00000  Uiso   1.00
O90    O     0.50000   0.16667   0.25000   0.00000  Uiso   1.00
O91    O     0.48784   0.12637   0.15458   0.00000  Uiso   1.00
O92    O     0.46274   0.20391   0.34968   0.00000  Uiso   1.00
O93    O     0.54157   0.17759   0.14606   0.00000  Uiso   1.00
O94    O     0.50785   0.15880   0.34968   0.00000  Uiso   1.00
O95    O     0.51264   0.08019   0.28213   0.00000  Uiso   1.00
O96    O     0.47965   0.26085   0.27013   0.00000  Uiso   1.00
O97    O     0.40745   0.13291   0.23413   0.00000  Uiso   1.00
O98    O     0.60026   0.19272   0.21360   0.00000  Uiso   1.00
O99    O     0.40405   0.18878   0.28213   0.00000  Uiso   1.00
O100   O     0.58824   0.15226   0.27013   0.00000  Uiso   1.00
O101   O     0.47093   0.06944   0.23413   0.00000  Uiso   1.00
O102   O     0.53678   0.25620   0.21360   0.00000  Uiso   1.00
Zn103  Zn    0.52672   0.13994   0.28734   0.00000  Uiso   1.00
Zn104  Zn    0.46713   0.12458   0.21875   0.00000  Uiso   1.00
Zn105  Zn    0.54389   0.19775   0.20657   0.00000  Uiso   1.00
Zn106  Zn    0.46226   0.20439   0.28733   0.00000  Uiso   1.00
Br107  Br    0.96128   0.15343   0.40775   0.00000  Uiso   1.00
Br108  Br    0.72427   0.22285   0.41992   0.00000  Uiso   1.00
Br109  Br    0.69088   0.19986   0.02640   0.00000  Uiso   1.00
Br110  Br    0.90821   0.21863   0.37623   0.00000  Uiso   1.00
Br111  Br    0.69965   0.20522   0.18574   0.00000  Uiso   1.00
C112   C     0.71935   0.15966   0.26034   0.00000  Uiso   1.00
C113   C     0.83338   0.15374   0.05908   0.00000  Uiso   1.00
C114   C     0.90211   0.13229   0.05539   0.00000  Uiso   1.00
C115   C     0.94759   0.17386   0.23975   0.00000  Uiso   1.00
C116   C     0.80488   0.19161   0.42110   0.00000  Uiso   1.00
C117   C     0.99370   0.17631   0.23466   0.00000  Uiso   1.00
C118   C     0.67419   0.15819   0.26394   0.00000  Uiso   1.00
C119   C     0.84733   0.32257   0.23642   0.00000  Uiso   1.00
C120   C     0.81857   0.01183   0.26401   0.00000  Uiso   1.00
C121   C     0.82286   0.05592   0.26020   0.00000  Uiso   1.00
C122   C     0.84331   0.27801   0.24014   0.00000  Uiso   1.00
C123   C     0.74829   0.19238   0.49139   0.00000  Uiso   1.00
C124   C     0.85247   0.14818   0.12919   0.00000  Uiso   1.00
C125   C     0.81508   0.18506   0.37120   0.00000  Uiso   1.00
C126   C     0.91498   0.13613   0.00923   0.00000  Uiso   1.00
C127   C     0.86175   0.14208   0.08039   0.00000  Uiso   1.00
C128   C     0.76308   0.20053   0.44600   0.00000  Uiso   1.00
C129   C     0.77450   0.17648   0.01221   0.00000  Uiso   1.00
C130   C     0.81789   0.17216   0.49010   0.00000  Uiso   1.00
C131   C     0.83394   0.18205   0.44447   0.00000  Uiso   1.00
C132   C     0.84572   0.15851   0.01230   0.00000  Uiso   1.00
C133   C     0.88809   0.15123   0.48750   0.00000  Uiso   1.00
C134   C     0.90397   0.16255   0.44286   0.00000  Uiso   1.00
C135   C     0.87858   0.18229   0.42370   0.00000  Uiso   1.00
H136   H     0.92448   0.12363   0.07201   0.00000  Uiso   1.00
H137   H     0.98532   0.14252   0.29190   0.00000  Uiso   1.00
H138   H     0.87393   0.00377   0.21101   0.00000  Uiso   1.00
H139   H     0.79160   0.33137   0.28949   0.00000  Uiso   1.00
H140   H     0.94714   0.12960   0.49161   0.00000  Uiso   1.00
H141   H     0.80353   0.16255   0.08076   0.00000  Uiso   1.00
H142   H     0.75958   0.16781   0.04600   0.00000  Uiso   1.00
O143   O     0.83333   0.16667   0.25000   0.00000  Uiso   1.00
O144   O     0.82118   0.12637   0.15458   0.00000  Uiso   1.00
O145   O     0.79607   0.20391   0.34968   0.00000  Uiso   1.00
O146   O     0.87491   0.17759   0.14606   0.00000  Uiso   1.00
O147   O     0.84118   0.15880   0.34968   0.00000  Uiso   1.00
O148   O     0.84597   0.08019   0.28213   0.00000  Uiso   1.00
O149   O     0.81298   0.26085   0.27013   0.00000  Uiso   1.00
O150   O     0.74078   0.13291   0.23413   0.00000  Uiso   1.00
O151   O     0.93360   0.19272   0.21360   0.00000  Uiso   1.00
O152   O     0.73738   0.18878   0.28213   0.00000  Uiso   1.00
O153   O     0.92158   0.15226   0.27013   0.00000  Uiso   1.00
O154   O     0.80426   0.06944   0.23413   0.00000  Uiso   1.00
O155   O     0.87012   0.25620   0.21360   0.00000  Uiso   1.00
Zn156  Zn    0.86005   0.13994   0.28734   0.00000  Uiso   1.00
Zn157  Zn    0.80046   0.12458   0.21875   0.00000  Uiso   1.00
Zn158  Zn    0.87723   0.19775   0.20657   0.00000  Uiso   1.00
Zn159  Zn    0.79560   0.20439   0.28733   0.00000  Uiso   1.00
Br160  Br    0.29461   0.48677   0.40775   0.00000  Uiso   1.00
Br161  Br    0.05760   0.55618   0.41992   0.00000  Uiso   1.00
Br162  Br    0.02421   0.53319   0.02640   0.00000  Uiso   1.00
Br163  Br    0.24154   0.55197   0.37623   0.00000  Uiso   1.00
Br164  Br    0.03299   0.53856   0.18574   0.00000  Uiso   1.00
C165   C     0.05268   0.49299   0.26034   0.00000  Uiso   1.00
C166   C     0.16671   0.48708   0.05908   0.00000  Uiso   1.00
C167   C     0.23544   0.46562   0.05539   0.00000  Uiso   1.00
C168   C     0.28093   0.50719   0.23975   0.00000  Uiso   1.00
C169   C     0.13821   0.52494   0.42110   0.00000  Uiso   1.00
C170   C     0.32703   0.50964   0.23466   0.00000  Uiso   1.00
C171   C     0.00753   0.49152   0.26394   0.00000  Uiso   1.00
C172   C     0.18066   0.65590   0.23642   0.00000  Uiso   1.00
C173   C     0.15191   0.34516   0.26401   0.00000  Uiso   1.00
C174   C     0.15619   0.38926   0.26020   0.00000  Uiso   1.00
C175   C     0.17664   0.61134   0.24014   0.00000  Uiso   1.00
C176   C     0.08163   0.52571   0.49139   0.00000  Uiso   1.00
C177   C     0.18580   0.48152   0.12919   0.00000  Uiso   1.00
C178   C     0.14841   0.51839   0.37120   0.00000  Uiso   1.00
C179   C     0.24832   0.46946   0.00923   0.00000  Uiso   1.00
C180   C     0.19509   0.47542   0.08039   0.00000  Uiso   1.00
C181   C     0.09641   0.53387   0.44600   0.00000  Uiso   1.00
C182   C     0.10783   0.50981   0.01221   0.00000  Uiso   1.00
C183   C     0.15122   0.50550   0.49010   0.00000  Uiso   1.00
C184   C     0.16727   0.51538   0.44447   0.00000  Uiso   1.00
C185   C     0.17905   0.49184   0.01230   0.00000  Uiso   1.00
C186   C     0.22142   0.48456   0.48750   0.00000  Uiso   1.00
C187   C     0.23731   0.49588   0.44286   0.00000  Uiso   1.00
C188   C     0.21191   0.51563   0.42370   0.00000  Uiso   1.00
H189   H     0.25782   0.45697   0.07201   0.00000  Uiso   1.00
H190   H     0.31865   0.47585   0.29190   0.00000  Uiso   1.00
H191   H     0.20726   0.33710   0.21101   0.00000  Uiso   1.00
H192   H     0.12493   0.66471   0.28949   0.00000  Uiso   1.00
H193   H     0.28047   0.46294   0.49161   0.00000  Uiso   1.00
H194   H     0.13686   0.49588   0.08076   0.00000  Uiso   1.00
H195   H     0.09292   0.50114   0.04600   0.00000  Uiso   1.00
O196   O     0.16667   0.50000   0.25000   0.00000  Uiso   1.00
O197   O     0.15451   0.45970   0.15458   0.00000  Uiso   1.00
O198   O     0.12940   0.53724   0.34968   0.00000  Uiso   1.00
O199   O     0.20824   0.51092   0.14606   0.00000  Uiso   1.00
O200   O     0.17451   0.49213   0.34968   0.00000  Uiso   1.00
O201   O     0.17930   0.41352   0.28213   0.00000  Uiso   1.00
O202   O     0.14632   0.59418   0.27013   0.00000  Uiso   1.00
O203   O     0.07412   0.46625   0.23413   0.00000  Uiso   1.00
O204   O     0.26693   0.52605   0.21360   0.00000  Uiso   1.00
O205   O     0.07071   0.52211   0.28213   0.00000  Uiso   1.00
O206   O     0.25491   0.48559   0.27013   0.00000  Uiso   1.00
O207   O     0.13760   0.40277   0.23413   0.00000  Uiso   1.00
O208   O     0.20345   0.58953   0.21360   0.00000  Uiso   1.00
Zn209  Zn    0.19338   0.47327   0.28734   0.00000  Uiso   1.00
Zn210  Zn    0.13379   0.45791   0.21875   0.00000  Uiso   1.00
Zn211  Zn    0.21056   0.53109   0.20657   0.00000  Uiso   1.00
Zn212  Zn    0.12893   0.53773   0.28733   0.00000  Uiso   1.00
Br213  Br    0.62795   0.48677   0.40775   0.00000  Uiso   1.00
Br214  Br    0.39094   0.55618   0.41992   0.00000  Uiso   1.00
Br215  Br    0.35754   0.53319   0.02640   0.00000  Uiso   1.00
Br216  Br    0.57488   0.55197   0.37623   0.00000  Uiso   1.00
Br217  Br    0.36632   0.53856   0.18574   0.00000  Uiso   1.00
C218   C     0.38601   0.49299   0.26034   0.00000  Uiso   1.00
C219   C     0.50005   0.48708   0.05908   0.00000  Uiso   1.00
C220   C     0.56877   0.46562   0.05539   0.00000  Uiso   1.00
C221   C     0.61426   0.50719   0.23975   0.00000  Uiso   1.00
C222   C     0.47155   0.52494   0.42110   0.00000  Uiso   1.00
C223   C     0.66037   0.50964   0.23466   0.00000  Uiso   1.00
C224   C     0.34086   0.49152   0.26394   0.00000  Uiso   1.00
C225   C     0.51399   0.65590   0.23642   0.00000  Uiso   1.00
C226   C     0.48524   0.34516   0.26401   0.00000  Uiso   1.00
C227   C     0.48953   0.38926   0.26020   0.00000  Uiso   1.00
C228   C     0.50998   0.61134   0.24014   0.00000  Uiso   1.00
C229   C     0.41496   0.52571   0.49139   0.00000  Uiso   1.00
C230   C     0.51913   0.48152   0.12919   0.00000  Uiso   1.00
C231   C     0.48175   0.51839   0.37120   0.00000  Uiso   1.00
C232   C     0.58165   0.46946   0.00923   0.00000  Uiso   1.00
C233   C     0.52842   0.47542   0.08039   0.00000  Uiso   1.00
C234   C     0.42974   0.53387   0.44600   0.00000  Uiso   1.00
C235   C     0.44117   0.50981   0.01221   0.00000  Uiso   1.00
C236   C     0.48455   0.50550   0.49010   0.00000  Uiso   1.00
C237   C     0.50060   0.51538   0.44447   0.00000  Uiso   1.00
C238   C     0.51239   0.49184   0.01230   0.00000  Uiso   1.00
C239   C     0.55475   0.48456   0.48750   0.00000  Uiso   1.00
C240   C     0.57064   0.49588   0.44286   0.00000  Uiso   1.00
C241   C     0.54524   0.51563   0.42370   0.00000  Uiso   1.00
H242   H     0.59115   0.45697   0.07201   0.00000  Uiso   1.00
H243   H     0.65198   0.47585   0.29190   0.00000  Uiso   1.00
H244   H     0.54059   0.33710   0.21101   0.00000  Uiso   1.00
H245   H     0.45826   0.66471   0.28949   0.00000  Uiso   1.00
H246   H     0.61380   0.46294   0.49161   0.00000  Uiso   1.00
H247   H     0.47020   0.49588   0.08076   0.00000  Uiso   1.00
H248   H     0.42625   0.50114   0.04600   0.00000  Uiso   1.00
O249   O     0.50000   0.50000   0.25000   0.00000  Uiso   1.00
O250   O     0.48784   0.45970   0.15458   0.00000  Uiso   1.00
O251   O     0.46274   0.53724   0.34968   0.00000  Uiso   1.00
O252   O     0.54157   0.51092   0.14606   0.00000  Uiso   1.00
O253   O     0.50785   0.49213   0.34968   0.00000  Uiso   1.00
O254   O     0.51264   0.41352   0.28213   0.00000  Uiso   1.00
O255   O     0.47965   0.59418   0.27013   0.00000  Uiso   1.00
O256   O     0.40745   0.46625   0.23413   0.00000  Uiso   1.00
O257   O     0.60026   0.52605   0.21360   0.00000  Uiso   1.00
O258   O     0.40405   0.52211   0.28213   0.00000  Uiso   1.00
O259   O     0.58824   0.48559   0.27013   0.00000  Uiso   1.00
O260   O     0.47093   0.40277   0.23413   0.00000  Uiso   1.00
O261   O     0.53678   0.58953   0.21360   0.00000  Uiso   1.00
Zn262  Zn    0.52672   0.47327   0.28734   0.00000  Uiso   1.00
Zn263  Zn    0.46713   0.45791   0.21875   0.00000  Uiso   1.00
Zn264  Zn    0.54389   0.53109   0.20657   0.00000  Uiso   1.00
Zn265  Zn    0.46226   0.53773   0.28733   0.00000  Uiso   1.00
Br266  Br    0.96128   0.48677   0.40775   0.00000  Uiso   1.00
Br267  Br    0.72427   0.55618   0.41992   0.00000  Uiso   1.00
Br268  Br    0.69088   0.53319   0.02640   0.00000  Uiso   1.00
Br269  Br    0.90821   0.55197   0.37623   0.00000  Uiso   1.00
Br270  Br    0.69965   0.53856   0.18574   0.00000  Uiso   1.00
C271   C     0.71935   0.49299   0.26034   0.00000  Uiso   1.00
C272   C     0.83338   0.48708   0.05908   0.00000  Uiso   1.00
C273   C     0.90211   0.46562   0.05539   0.00000  Uiso   1.00
C274   C     0.94759   0.50719   0.23975   0.00000  Uiso   1.00
C275   C     0.80488   0.52494   0.42110   0.00000  Uiso   1.00
C276   C     0.99370   0.50964   0.23466   0.00000  Uiso   1.00
C277   C     0.67419   0.49152   0.26394   0.00000  Uiso   1.00
C278   C     0.84733   0.65590   0.23642   0.00000  Uiso   1.00
C279   C     0.81857   0.34516   0.26401   0.00000  Uiso   1.00
C280   C     0.82286   0.38926   0.26020   0.00000  Uiso   1.00
C281   C     0.84331   0.61134   0.24014   0.00000  Uiso   1.00
C282   C     0.74829   0.52571   0.49139   0.00000  Uiso   1.00
C283   C     0.85247   0.48152   0.12919   0.00000  Uiso   1.00
C284   C     0.81508   0.51839   0.37120   0.00000  Uiso   1.00
C285   C     0.91498   0.46946   0.00923   0.00000  Uiso   1.00
C286   C     0.86175   0.47542   0.08039   0.00000  Uiso   1.00
C287   C     0.76308   0.53387   0.44600   0.00000  Uiso   1.00
C288   C     0.77450   0.50981   0.01221   0.00000  Uiso   1.00
C289   C     0.81789   0.50550   0.49010   0.00000  Uiso   1.00
C290   C     0.83394   0.51538   0.44447   0.00000  Uiso   1.00
C291   C     0.84572   0.49184   0.01230   0.00000  Uiso   1.00
C292   C     0.88809   0.48456   0.48750   0.00000  Uiso   1.00
C293   C     0.90397   0.49588   0.44286   0.00000  Uiso   1.00
C294   C     0.87858   0.51563   0.42370   0.00000  Uiso   1.00
H295   H     0.92448   0.45697   0.07201   0.00000  Uiso   1.00
H296   H     0.98532   0.47585   0.29190   0.00000  Uiso   1.00
H297   H     0.87393   0.33710   0.21101   0.00000  Uiso   1.00
H298   H     0.79160   0.66471   0.28949   0.00000  Uiso   1.00
H299   H     0.94714   0.46294   0.49161   0.00000  Uiso   1.00
H300   H     0.80353   0.49588   0.08076   0.00000  Uiso   1.00
H301   H     0.75958   0.50114   0.04600   0.00000  Uiso   1.00
O302   O     0.83333   0.50000   0.25000   0.00000  Uiso   1.00
O303   O     0.82118   0.45970   0.15458   0.00000  Uiso   1.00
O304   O     0.79607   0.53724   0.34968   0.00000  Uiso   1.00
O305   O     0.87491   0.51092   0.14606   0.00000  Uiso   1.00
O306   O     0.84118   0.49213   0.34968   0.00000  Uiso   1.00
O307   O     0.84597   0.41352   0.28213   0.00000  Uiso   1.00
O308   O     0.81298   0.59418   0.27013   0.00000  Uiso   1.00
O309   O     0.74078   0.46625   0.23413   0.00000  Uiso   1.00
O310   O     0.93360   0.52605   0.21360   0.00000  Uiso   1.00
O311   O     0.73738   0.52211   0.28213   0.00000  Uiso   1.00
O312   O     0.92158   0.48559   0.27013   0.00000  Uiso   1.00
O313   O     0.80426   0.40277   0.23413   0.00000  Uiso   1.00
O314   O     0.87012   0.58953   0.21360   0.00000  Uiso   1.00
Zn315  Zn    0.86005   0.47327   0.28734   0.00000  Uiso   1.00
Zn316  Zn    0.80046   0.45791   0.21875   0.00000  Uiso   1.00
Zn317  Zn    0.87723   0.53109   0.20657   0.00000  Uiso   1.00
Zn318  Zn    0.79560   0.53773   0.28733   0.00000  Uiso   1.00
Br319  Br    0.29461   0.82010   0.40775   0.00000  Uiso   1.00
Br320  Br    0.05760   0.88951   0.41992   0.00000  Uiso   1.00
Br321  Br    0.02421   0.86653   0.02640   0.00000  Uiso   1.00
Br322  Br    0.24154   0.88530   0.37623   0.00000  Uiso   1.00
Br323  Br    0.03299   0.87189   0.18574   0.00000  Uiso   1.00
C324   C     0.05268   0.82633   0.26034   0.00000  Uiso   1.00
C325   C     0.16671   0.82041   0.05908   0.00000  Uiso   1.00
C326   C     0.23544   0.79895   0.05539   0.00000  Uiso   1.00
C327   C     0.28093   0.84053   0.23975   0.00000  Uiso   1.00
C328   C     0.13821   0.85827   0.42110   0.00000  Uiso   1.00
C329   C     0.32703   0.84297   0.23466   0.00000  Uiso   1.00
C330   C     0.00753   0.82486   0.26394   0.00000  Uiso   1.00
C331   C     0.18066   0.98923   0.23642   0.00000  Uiso   1.00
C332   C     0.15191   0.67850   0.26401   0.00000  Uiso   1.00
C333   C     0.15619   0.72259   0.26020   0.00000  Uiso   1.00
C334   C     0.17664   0.94467   0.24014   0.00000  Uiso   1.00
C335   C     0.08163   0.85904   0.49139   0.00000  Uiso   1.00
C336   C     0.18580   0.81485   0.12919   0.00000  Uiso   1.00
C337   C     0.14841   0.85173   0.37120   0.00000  Uiso   1.00
C338   C     0.24832   0.80280   0.00923   0.00000  Uiso   1.00
C339   C     0.19509   0.80875   0.08039   0.00000  Uiso   1.00
C340   C     0.09641   0.86720   0.44600   0.00000  Uiso   1.00
C341   C     0.10783   0.84314   0.01221   0.00000  Uiso   1.00
C342   C     0.15122   0.83883   0.49010   0.00000  Uiso   1.00
C343   C     0.16727   0.84871   0.44447   0.00000  Uiso   1.00
C344   C     0.17905   0.82518   0.01230   0.00000  Uiso   1.00
C345   C     0.22142   0.81790   0.48750   0.00000  Uiso   1.00
C346   C     0.23731   0.82921   0.44286   0.00000  Uiso   1.00
C347   C     0.21191   0.84896   0.42370   0.00000  Uiso   1.00
H348   H     0.25782   0.79030   0.07201   0.00000  Uiso   1.00
H349   H     0.31865   0.80919   0.29190   0.00000  Uiso   1.00
H350   H     0.20726   0.67044   0.21101   0.00000  Uiso   1.00
H351   H     0.12493   0.99804   0.28949   0.00000  Uiso   1.00
H352   H     0.28047   0.79627   0.49161   0.00000  Uiso   1.00
H353   H     0.13686   0.82922   0.08076   0.00000  Uiso   1.00
H354   H     0.09292   0.83447   0.04600   0.00000  Uiso   1.00
O355   O     0.16667   0.83333   0.25000   0.00000  Uiso   1.00
O356   O     0.15451   0.79304   0.15458   0.00000  Uiso   1.00
O357   O     0.12940   0.87058   0.34968   0.00000  Uiso   1.00
O358   O     0.20824   0.84425   0.14606   0.00000  Uiso   1.00
O359   O     0.17451   0.82546   0.34968   0.00000  Uiso   1.00
O360   O     0.17930   0.74686   0.28213   0.00000  Uiso   1.00
O361   O     0.14632   0.92751   0.27013   0.00000  Uiso   1.00
O362   O     0.07412   0.79958   0.23413   0.00000  Uiso   1.00
O363   O     0.26693   0.85939   0.21360   0.00000  Uiso   1.00
O364   O     0.07071   0.85544   0.28213   0.00000  Uiso   1.00
O365   O     0.25491   0.81892   0.27013   0.00000  Uiso   1.00
O366   O     0.13760   0.73610   0.23413   0.00000  Uiso   1.00
O367   O     0.20345   0.92286   0.21360   0.00000  Uiso   1.00
Zn368  Zn    0.19338   0.80661   0.28734   0.00000  Uiso   1.00
Zn369  Zn    0.13379   0.79124   0.21875   0.00000  Uiso   1.00
Zn370  Zn    0.21056   0.86442   0.20657   0.00000  Uiso   1.00
Zn371  Zn    0.12893   0.87106   0.28733   0.00000  Uiso   1.00
Br372  Br    0.62795   0.82010   0.40775   0.00000  Uiso   1.00
Br373  Br    0.39094   0.88951   0.41992   0.00000  Uiso   1.00
Br374  Br    0.35754   0.86653   0.02640   0.00000  Uiso   1.00
Br375  Br    0.57488   0.88530   0.37623   0.00000  Uiso   1.00
Br376  Br    0.36632   0.87189   0.18574   0.00000  Uiso   1.00
C377   C     0.38601   0.82633   0.26034   0.00000  Uiso   1.00
C378   C     0.50005   0.82041   0.05908   0.00000  Uiso   1.00
C379   C     0.56877   0.79895   0.05539   0.00000  Uiso   1.00
C380   C     0.61426   0.84053   0.23975   0.00000  Uiso   1.00
C381   C     0.47155   0.85827   0.42110   0.00000  Uiso   1.00
C382   C     0.66037   0.84297   0.23466   0.00000  Uiso   1.00
C383   C     0.34086   0.82486   0.26394   0.00000  Uiso   1.00
C384   C     0.51399   0.98923   0.23642   0.00000  Uiso   1.00
C385   C     0.48524   0.67850   0.26401   0.00000  Uiso   1.00
C386   C     0.48953   0.72259   0.26020   0.00000  Uiso   1.00
C387   C     0.50998   0.94467   0.24014   0.00000  Uiso   1.00
C388   C     0.41496   0.85904   0.49139   0.00000  Uiso   1.00
C389   C     0.51913   0.81485   0.12919   0.00000  Uiso   1.00
C390   C     0.48175   0.85173   0.37120   0.00000  Uiso   1.00
C391   C     0.58165   0.80280   0.00923   0.00000  Uiso   1.00
C392   C     0.52842   0.80875   0.08039   0.00000  Uiso   1.00
C393   C     0.42974   0.86720   0.44600   0.00000  Uiso   1.00
C394   C     0.44117   0.84314   0.01221   0.00000  Uiso   1.00
C395   C     0.48455   0.83883   0.49010   0.00000  Uiso   1.00
C396   C     0.50060   0.84871   0.44447   0.00000  Uiso   1.00
C397   C     0.51239   0.82518   0.01230   0.00000  Uiso   1.00
C398   C     0.55475   0.81790   0.48750   0.00000  Uiso   1.00
C399   C     0.57064   0.82921   0.44286   0.00000  Uiso   1.00
C400   C     0.54524   0.84896   0.42370   0.00000  Uiso   1.00
H401   H     0.59115   0.79030   0.07201   0.00000  Uiso   1.00
H402   H     0.65198   0.80919   0.29190   0.00000  Uiso   1.00
H403   H     0.54059   0.67044   0.21101   0.00000  Uiso   1.00
H404   H     0.45826   0.99804   0.28949   0.00000  Uiso   1.00
H405   H     0.61380   0.79627   0.49161   0.00000  Uiso   1.00
H406   H     0.47020   0.82922   0.08076   0.00000  Uiso   1.00
H407   H     0.42625   0.83447   0.04600   0.00000  Uiso   1.00
O408   O     0.50000   0.83333   0.25000   0.00000  Uiso   1.00
O409   O     0.48784   0.79304   0.15458   0.00000  Uiso   1.00
O410   O     0.46274   0.87058   0.34968   0.00000  Uiso   1.00
O411   O     0.54157   0.84425   0.14606   0.00000  Uiso   1.00
O412   O     0.50785   0.82546   0.34968   0.00000  Uiso   1.00
O413   O     0.51264   0.74686   0.28213   0.00000  Uiso   1.00
O414   O     0.47965   0.92751   0.27013   0.00000  Uiso   1.00
O415   O     0.40745   0.79958   0.23413   0.00000  Uiso   1.00
O416   O     0.60026   0.85939   0.21360   0.00000  Uiso   1.00
O417   O     0.40405   0.85544   0.28213   0.00000  Uiso   1.00
O418   O     0.58824   0.81892   0.27013   0.00000  Uiso   1.00
O419   O     0.47093   0.73610   0.23413   0.00000  Uiso   1.00
O420   O     0.53678   0.92286   0.21360   0.00000  Uiso   1.00
Zn421  Zn    0.52672   0.80661   0.28734   0.00000  Uiso   1.00
Zn422  Zn    0.46713   0.79124   0.21875   0.00000  Uiso   1.00
Zn423  Zn    0.54389   0.86442   0.20657   0.00000  Uiso   1.00
Zn424  Zn    0.46226   0.87106   0.28733   0.00000  Uiso   1.00
Br425  Br    0.96128   0.82010   0.40775   0.00000  Uiso   1.00
Br426  Br    0.72427   0.88951   0.41992   0.00000  Uiso   1.00
Br427  Br    0.69088   0.86653   0.02640   0.00000  Uiso   1.00
Br428  Br    0.90821   0.88530   0.37623   0.00000  Uiso   1.00
Br429  Br    0.69965   0.87189   0.18574   0.00000  Uiso   1.00
C430   C     0.71935   0.82633   0.26034   0.00000  Uiso   1.00
C431   C     0.83338   0.82041   0.05908   0.00000  Uiso   1.00
C432   C     0.90211   0.79895   0.05539   0.00000  Uiso   1.00
C433   C     0.94759   0.84053   0.23975   0.00000  Uiso   1.00
C434   C     0.80488   0.85827   0.42110   0.00000  Uiso   1.00
C435   C     0.99370   0.84297   0.23466   0.00000  Uiso   1.00
C436   C     0.67419   0.82486   0.26394   0.00000  Uiso   1.00
C437   C     0.84733   0.98923   0.23642   0.00000  Uiso   1.00
C438   C     0.81857   0.67850   0.26401   0.00000  Uiso   1.00
C439   C     0.82286   0.72259   0.26020   0.00000  Uiso   1.00
C440   C     0.84331   0.94467   0.24014   0.00000  Uiso   1.00
C441   C     0.74829   0.85904   0.49139   0.00000  Uiso   1.00
C442   C     0.85247   0.81485   0.12919   0.00000  Uiso   1.00
C443   C     0.81508   0.85173   0.37120   0.00000  Uiso   1.00
C444   C     0.91498   0.80280   0.00923   0.00000  Uiso   1.00
C445   C     0.86175   0.80875   0.08039   0.00000  Uiso   1.00
C446   C     0.76308   0.86720   0.44600   0.00000  Uiso   1.00
C447   C     0.77450   0.84314   0.01221   0.00000  Uiso   1.00
C448   C     0.81789   0.83883   0.49010   0.00000  Uiso   1.00
C449   C     0.83394   0.84871   0.44447   0.00000  Uiso   1.00
C450   C     0.84572   0.82518   0.01230   0.00000  Uiso   1.00
C451   C     0.88809   0.81790   0.48750   0.00000  Uiso   1.00
C452   C     0.90397   0.82921   0.44286   0.00000  Uiso   1.00
C453   C     0.87858   0.84896   0.42370   0.00000  Uiso   1.00
H454   H     0.92448   0.79030   0.07201   0.00000  Uiso   1.00
H455   H     0.98532   0.80919   0.29190   0.00000  Uiso   1.00
H456   H     0.87393   0.67044   0.21101   0.00000  Uiso   1.00
H457   H     0.79160   0.99804   0.28949   0.00000  Uiso   1.00
H458   H     0.94714   0.79627   0.49161   0.00000  Uiso   1.00
H459   H     0.80353   0.82922   0.08076   0.00000  Uiso   1.00
H460   H     0.75958   0.83447   0.04600   0.00000  Uiso   1.00
O461   O     0.83333   0.83333   0.25000   0.00000  Uiso   1.00
O462   O     0.82118   0.79304   0.15458   0.00000  Uiso   1.00
O463   O     0.79607   0.87058   0.34968   0.00000  Uiso   1.00
O464   O     0.87491   0.84425   0.14606   0.00000  Uiso   1.00
O465   O     0.84118   0.82546   0.34968   0.00000  Uiso   1.00
O466   O     0.84597   0.74686   0.28213   0.00000  Uiso   1.00
O467   O     0.81298   0.92751   0.27013   0.00000  Uiso   1.00
O468   O     0.74078   0.79958   0.23413   0.00000  Uiso   1.00
O469   O     0.93360   0.85939   0.21360   0.00000  Uiso   1.00
O470   O     0.73738   0.85544   0.28213   0.00000  Uiso   1.00
O471   O     0.92158   0.81892   0.27013   0.00000  Uiso   1.00
O472   O     0.80426   0.73610   0.23413   0.00000  Uiso   1.00
O473   O     0.87012   0.92286   0.21360   0.00000  Uiso   1.00
Zn474  Zn    0.86005   0.80661   0.28734   0.00000  Uiso   1.00
Zn475  Zn    0.80046   0.79124   0.21875   0.00000  Uiso   1.00
Zn476  Zn    0.87723   0.86442   0.20657   0.00000  Uiso   1.00
Zn477  Zn    0.79560   0.87106   0.28733   0.00000  Uiso   1.00
Br478  Br    0.29461   0.15343   0.90775   0.00000  Uiso   1.00
Br479  Br    0.05760   0.22285   0.91992   0.00000  Uiso   1.00
Br480  Br    0.02421   0.19986   0.52640   0.00000  Uiso   1.00
Br481  Br    0.24154   0.21863   0.87623   0.00000  Uiso   1.00
Br482  Br    0.03299   0.20522   0.68574   0.00000  Uiso   1.00
C483   C     0.05268   0.15966   0.76034   0.00000  Uiso   1.00
C484   C     0.16671   0.15374   0.55908   0.00000  Uiso   1.00
C485   C     0.23544   0.13229   0.55539   0.00000  Uiso   1.00
C486   C     0.28093   0.17386   0.73975   0.00000  Uiso   1.00
C487   C     0.13821   0.19161   0.92110   0.00000  Uiso   1.00
C488   C     0.32703   0.17631   0.73466   0.00000  Uiso   1.00
C489   C     0.00753   0.15819   0.76394   0.00000  Uiso   1.00
C490   C     0.18066   0.32257   0.73642   0.00000  Uiso   1.00
C491   C     0.15191   0.01183   0.76401   0.00000  Uiso   1.00
C492   C     0.15619   0.05592   0.76020   0.00000  Uiso   1.00
C493   C     0.17664   0.27801   0.74014   0.00000  Uiso   1.00
C494   C     0.08163   0.19238   0.99139   0.00000  Uiso   1.00
C495   C     0.18580   0.14818   0.62919   0.00000  Uiso   1.00
C496   C     0.14841   0.18506   0.87120   0.00000  Uiso   1.00
C497   C     0.24832   0.13613   0.50923   0.00000  Uiso   1.00
C498   C     0.19509   0.14208   0.58039   0.00000  Uiso   1.00
C499   C     0.09641   0.20053   0.94600   0.00000  Uiso   1.00
C500   C     0.10783   0.17648   0.51221   0.00000  Uiso   1.00
C501   C     0.15122   0.17216   0.99010   0.00000  Uiso   1.00
C502   C     0.16727   0.18205   0.94447   0.00000  Uiso   1.00
C503   C     0.17905   0.15851   0.51230   0.00000  Uiso   1.00
C504   C     0.22142   0.15123   0.98750   0.00000  Uiso   1.00
C505   C     0.23731   0.16255   0.94286   0.00000  Uiso   1.00
C506   C     0.21191   0.18229   0.92370   0.00000  Uiso   1.00
H507   H     0.25782   0.12363   0.57201   0.00000  Uiso   1.00
H508   H     0.31865   0.14252   0.79190   0.00000  Uiso   1.00
H509   H     0.20726   0.00377   0.71101   0.00000  Uiso   1.00
H510   H     0.12493   0.33137   0.78949   0.00000  Uiso   1.00
H511   H     0.28047   0.12960   0.99161   0.00000  Uiso   1.00
H512   H     0.13686   0.16255   0.58076   0.00000  Uiso   1.00
H513   H     0.09292   0.16781   0.54600   0.00000  Uiso   1.00
O514   O     0.16667   0.16667   0.75000   0.00000  Uiso   1.00
O515   O     0.15451   0.12637   0.65458   0.00000  Uiso   1.00
O516   O     0.12940   0.20391   0.84968   0.00000  Uiso   1.00
O517   O     0.20824   0.17759   0.64606   0.00000  Uiso   1.00
O518   O     0.17451   0.15880   0.84968   0.00000  Uiso   1.00
O519   O     0.17930   0.08019   0.78213   0.00000  Uiso   1.00
O520   O     0.14632   0.26085   0.77013   0.00000  Uiso   1.00
O521   O     0.07412   0.13291   0.73413   0.00000  Uiso   1.00
O522   O     0.26693   0.19272   0.71360   0.00000  Uiso   1.00
O523   O     0.07071   0.18878   0.78213   0.00000  Uiso   1.00
O524   O     0.25491   0.15226   0.77013   0.00000  Uiso   1.00
O525   O     0.13760   0.06944   0.73413   0.00000  Uiso   1.00
O526   O     0.20345   0.25620   0.71360   0.00000  Uiso   1.00
Zn527  Zn    0.19338   0.13994   0.78734   0.00000  Uiso   1.00
Zn528  Zn    0.13379   0.12458   0.71875   0.00000  Uiso   1.00
Zn529  Zn    0.21056   0.19775   0.70657   0.00000  Uiso   1.00
Zn530  Zn    0.12893   0.20439   0.78733   0.00000  Uiso   1.00
Br531  Br    0.62795   0.15343   0.90775   0.00000  Uiso   1.00
Br532  Br    0.39094   0.22285   0.91992   0.00000  Uiso   1.00
Br533  Br    0.35754   0.19986   0.52640   0.00000  Uiso   1.00
Br534  Br    0.57488   0.21863   0.87623   0.00000  Uiso   1.00
Br535  Br    0.36632   0.20522   0.68574   0.00000  Uiso   1.00
C536   C     0.38601   0.15966   0.76034   0.00000  Uiso   1.00
C537   C     0.50005   0.15374   0.55908   0.00000  Uiso   1.00
C538   C     0.56877   0.13229   0.55539   0.00000  Uiso   1.00
C539   C     0.61426   0.17386   0.73975   0.00000  Uiso   1.00
C540   C     0.47155   0.19161   0.92110   0.00000  Uiso   1.00
C541   C     0.66037   0.17631   0.73466   0.00000  Uiso   1.00
C542   C     0.34086   0.15819   0.76394   0.00000  Uiso   1.00
C543   C     0.51399   0.32257   0.73642   0.00000  Uiso   1.00
C544   C     0.48524   0.01183   0.76401   0.00000  Uiso   1.00
C545   C     0.48953   0.05592   0.76020   0.00000  Uiso   1.00
C546   C     0.50998   0.27801   0.74014   0.00000  Uiso   1.00
C547   C     0.41496   0.19238   0.99139   0.00000  Uiso   1.00
C548   C     0.51913   0.14818   0.62919   0.00000  Uiso   1.00
C549   C     0.48175   0.18506   0.87120   0.00000  Uiso   1.00
C550   C     0.58165   0.13613   0.50923   0.00000  Uiso   1.00
C551   C     0.52842   0.14208   0.58039   0.00000  Uiso   1.00
C552   C     0.42974   0.20053   0.94600   0.00000  Uiso   1.00
C553   C     0.44117   0.17648   0.51221   0.00000  Uiso   1.00
C554   C     0.48455   0.17216   0.99010   0.00000  Uiso   1.00
C555   C     0.50060   0.18205   0.94447   0.00000  Uiso   1.00
C556   C     0.51239   0.15851   0.51230   0.00000  Uiso   1.00
C557   C     0.55475   0.15123   0.98750   0.00000  Uiso   1.00
C558   C     0.57064   0.16255   0.94286   0.00000  Uiso   1.00
C559   C     0.54524   0.18229   0.92370   0.00000  Uiso   1.00
H560   H     0.59115   0.12363   0.57201   0.00000  Uiso   1.00
H561   H     0.65198   0.14252   0.79190   0.00000  Uiso   1.00
H562   H     0.54059   0.00377   0.71101   0.00000  Uiso   1.00
H563   H     0.45826   0.33137   0.78949   0.00000  Uiso   1.00
H564   H     0.61380   0.12960   0.99161   0.00000  Uiso   1.00
H565   H     0.47020   0.16255   0.58076   0.00000  Uiso   1.00
H566   H     0.42625   0.16781   0.54600   0.00000  Uiso   1.00
O567   O     0.50000   0.16667   0.75000   0.00000  Uiso   1.00
O568   O     0.48784   0.12637   0.65458   0.00000  Uiso   1.00
O569   O     0.46274   0.20391   0.84968   0.00000  Uiso   1.00
O570   O     0.54157   0.17759   0.64606   0.00000  Uiso   1.00
O571   O     0.50785   0.15880   0.84968   0.00000  Uiso   1.00
O572   O     0.51264   0.08019   0.78213   0.00000  Uiso   1.00
O573   O     0.47965   0.26085   0.77013   0.00000  Uiso   1.00
O574   O     0.40745   0.13291   0.73413   0.00000  Uiso   1.00
O575   O     0.60026   0.19272   0.71360   0.00000  Uiso   1.00
O576   O     0.40405   0.18878   0.78213   0.00000  Uiso   1.00
O577   O     0.58824   0.15226   0.77013   0.00000  Uiso   1.00
O578   O     0.47093   0.06944   0.73413   0.00000  Uiso   1.00
O579   O     0.53678   0.25620   0.71360   0.00000  Uiso   1.00
Zn580  Zn    0.52672   0.13994   0.78734   0.00000  Uiso   1.00
Zn581  Zn    0.46713   0.12458   0.71875   0.00000  Uiso   1.00
Zn582  Zn    0.54389   0.19775   0.70657   0.00000  Uiso   1.00
Zn583  Zn    0.46226   0.20439   0.78733   0.00000  Uiso   1.00
Br584  Br    0.96128   0.15343   0.90775   0.00000  Uiso   1.00
Br585  Br    0.72427   0.22285   0.91992   0.00000  Uiso   1.00
Br586  Br    0.69088   0.19986   0.52640   0.00000  Uiso   1.00
Br587  Br    0.90821   0.21863   0.87623   0.00000  Uiso   1.00
Br588  Br    0.69965   0.20522   0.68574   0.00000  Uiso   1.00
C589   C     0.71935   0.15966   0.76034   0.00000  Uiso   1.00
C590   C     0.83338   0.15374   0.55908   0.00000  Uiso   1.00
C591   C     0.90211   0.13229   0.55539   0.00000  Uiso   1.00
C592   C     0.94759   0.17386   0.73975   0.00000  Uiso   1.00
C593   C     0.80488   0.19161   0.92110   0.00000  Uiso   1.00
C594   C     0.99370   0.17631   0.73466   0.00000  Uiso   1.00
C595   C     0.67419   0.15819   0.76394   0.00000  Uiso   1.00
C596   C     0.84733   0.32257   0.73642   0.00000  Uiso   1.00
C597   C     0.81857   0.01183   0.76401   0.00000  Uiso   1.00
C598   C     0.82286   0.05592   0.76020   0.00000  Uiso   1.00
C599   C     0.84331   0.27801   0.74014   0.00000  Uiso   1.00
C600   C     0.74829   0.19238   0.99139   0.00000  Uiso   1.00
C601   C     0.85247   0.14818   0.62919   0.00000  Uiso   1.00
C602   C     0.81508   0.18506   0.87120   0.00000  Uiso   1.00
C603   C     0.91498   0.13613   0.50923   0.00000  Uiso   1.00
C604   C     0.86175   0.14208   0.58039   0.00000  Uiso   1.00
C605   C     0.76308   0.20053   0.94600   0.00000  Uiso   1.00
C606   C     0.77450   0.17648   0.51221   0.00000  Uiso   1.00
C607   C     0.81789   0.17216   0.99010   0.00000  Uiso   1.00
C608   C     0.83394   0.18205   0.94447   0.00000  Uiso   1.00
C609   C     0.84572   0.15851   0.51230   0.00000  Uiso   1.00
C610   C     0.88809   0.15123   0.98750   0.00000  Uiso   1.00
C611   C     0.90397   0.16255   0.94286   0.00000  Uiso   1.00
C612   C     0.87858   0.18229   0.92370   0.00000  Uiso   1.00
H613   H     0.92448   0.12363   0.57201   0.00000  Uiso   1.00
H614   H     0.98532   0.14252   0.79190   0.00000  Uiso   1.00
H615   H     0.87393   0.00377   0.71101   0.00000  Uiso   1.00
H616   H     0.79160   0.33137   0.78949   0.00000  Uiso   1.00
H617   H     0.94714   0.12960   0.99161   0.00000  Uiso   1.00
H618   H     0.80353   0.16255   0.58076   0.00000  Uiso   1.00
H619   H     0.75958   0.16781   0.54600   0.00000  Uiso   1.00
O620   O     0.83333   0.16667   0.75000   0.00000  Uiso   1.00
O621   O     0.82118   0.12637   0.65458   0.00000  Uiso   1.00
O622   O     0.79607   0.20391   0.84968   0.00000  Uiso   1.00
O623   O     0.87491   0.17759   0.64606   0.00000  Uiso   1.00
O624   O     0.84118   0.15880   0.84968   0.00000  Uiso   1.00
O625   O     0.84597   0.08019   0.78213   0.00000  Uiso   1.00
O626   O     0.81298   0.26085   0.77013   0.00000  Uiso   1.00
O627   O     0.74078   0.13291   0.73413   0.00000  Uiso   1.00
O628   O     0.93360   0.19272   0.71360   0.00000  Uiso   1.00
O629   O     0.73738   0.18878   0.78213   0.00000  Uiso   1.00
O630   O     0.92158   0.15226   0.77013   0.00000  Uiso   1.00
O631   O     0.80426   0.06944   0.73413   0.00000  Uiso   1.00
O632   O     0.87012   0.25620   0.71360   0.00000  Uiso   1.00
Zn633  Zn    0.86005   0.13994   0.78734   0.00000  Uiso   1.00
Zn634  Zn    0.80046   0.12458   0.71875   0.00000  Uiso   1.00
Zn635  Zn    0.87723   0.19775   0.70657   0.00000  Uiso   1.00
Zn636  Zn    0.79560   0.20439   0.78733   0.00000  Uiso   1.00
Br637  Br    0.29461   0.48677   0.90775   0.00000  Uiso   1.00
Br638  Br    0.05760   0.55618   0.91992   0.00000  Uiso   1.00
Br639  Br    0.02421   0.53319   0.52640   0.00000  Uiso   1.00
Br640  Br    0.24154   0.55197   0.87623   0.00000  Uiso   1.00
Br641  Br    0.03299   0.53856   0.68574   0.00000  Uiso   1.00
C642   C     0.05268   0.49299   0.76034   0.00000  Uiso   1.00
C643   C     0.16671   0.48708   0.55908   0.00000  Uiso   1.00
C644   C     0.23544   0.46562   0.55539   0.00000  Uiso   1.00
C645   C     0.28093   0.50719   0.73975   0.00000  Uiso   1.00
C646   C     0.13821   0.52494   0.92110   0.00000  Uiso   1.00
C647   C     0.32703   0.50964   0.73466   0.00000  Uiso   1.00
C648   C     0.00753   0.49152   0.76394   0.00000  Uiso   1.00
C649   C     0.18066   0.65590   0.73642   0.00000  Uiso   1.00
C650   C     0.15191   0.34516   0.76401   0.00000  Uiso   1.00
C651   C     0.15619   0.38926   0.76020   0.00000  Uiso   1.00
C652   C     0.17664   0.61134   0.74014   0.00000  Uiso   1.00
C653   C     0.08163   0.52571   0.99139   0.00000  Uiso   1.00
C654   C     0.18580   0.48152   0.62919   0.00000  Uiso   1.00
C655   C     0.14841   0.51839   0.87120   0.00000  Uiso   1.00
C656   C     0.24832   0.46946   0.50923   0.00000  Uiso   1.00
C657   C     0.19509   0.47542   0.58039   0.00000  Uiso   1.00
C658   C     0.09641   0.53387   0.94600   0.00000  Uiso   1.00
C659   C     0.10783   0.50981   0.51221   0.00000  Uiso   1.00
C660   C     0.15122   0.50550   0.99010   0.00000  Uiso   1.00
C661   C     0.16727   0.51538   0.94447   0.00000  Uiso   1.00
C662   C     0.17905   0.49184   0.51230   0.00000  Uiso   1.00
C663   C     0.22142   0.48456   0.98750   0.00000  Uiso   1.00
C664   C     0.23731   0.49588   0.94286   0.00000  Uiso   1.00
C665   C     0.21191   0.51563   0.92370   0.00000  Uiso   1.00
H666   H     0.25782   0.45697   0.57201   0.00000  Uiso   1.00
H667   H     0.31865   0.47585   0.79190   0.00000  Uiso   1.00
H668   H     0.20726   0.33710   0.71101   0.00000  Uiso   1.00
H669   H     0.12493   0.66471   0.78949   0.00000  Uiso   1.00
H670   H     0.28047   0.46294   0.99161   0.00000  Uiso   1.00
H671   H     0.13686   0.49588   0.58076   0.00000  Uiso   1.00
H672   H     0.09292   0.50114   0.54600   0.00000  Uiso   1.00
O673   O     0.16667   0.50000   0.75000   0.00000  Uiso   1.00
O674   O     0.15451   0.45970   0.65458   0.00000  Uiso   1.00
O675   O     0.12940   0.53724   0.84968   0.00000  Uiso   1.00
O676   O     0.20824   0.51092   0.64606   0.00000  Uiso   1.00
O677   O     0.17451   0.49213   0.84968   0.00000  Uiso   1.00
O678   O     0.17930   0.41352   0.78213   0.00000  Uiso   1.00
O679   O     0.14632   0.59418   0.77013   0.00000  Uiso   1.00
O680   O     0.07412   0.46625   0.73413   0.00000  Uiso   1.00
O681   O     0.26693   0.52605   0.71360   0.00000  Uiso   1.00
O682   O     0.07071   0.52211   0.78213   0.00000  Uiso   1.00
O683   O     0.25491   0.48559   0.77013   0.00000  Uiso   1.00
O684   O     0.13760   0.40277   0.73413   0.00000  Uiso   1.00
O685   O     0.20345   0.58953   0.71360   0.00000  Uiso   1.00
Zn686  Zn    0.19338   0.47327   0.78734   0.00000  Uiso   1.00
Zn687  Zn    0.13379   0.45791   0.71875   0.00000  Uiso   1.00
Zn688  Zn    0.21056   0.53109   0.70657   0.00000  Uiso   1.00
Zn689  Zn    0.12893   0.53773   0.78733   0.00000  Uiso   1.00
Br690  Br    0.62795   0.48677   0.90775   0.00000  Uiso   1.00
Br691  Br    0.39094   0.55618   0.91992   0.00000  Uiso   1.00
Br692  Br    0.35754   0.53319   0.52640   0.00000  Uiso   1.00
Br693  Br    0.57488   0.55197   0.87623   0.00000  Uiso   1.00
Br694  Br    0.36632   0.53856   0.68574   0.00000  Uiso   1.00
C695   C     0.38601   0.49299   0.76034   0.00000  Uiso   1.00
C696   C     0.50005   0.48708   0.55908   0.00000  Uiso   1.00
C697   C     0.56877   0.46562   0.55539   0.00000  Uiso   1.00
C698   C     0.61426   0.50719   0.73975   0.00000  Uiso   1.00
C699   C     0.47155   0.52494   0.92110   0.00000  Uiso   1.00
C700   C     0.66037   0.50964   0.73466   0.00000  Uiso   1.00
C701   C     0.34086   0.49152   0.76394   0.00000  Uiso   1.00
C702   C     0.51399   0.65590   0.73642   0.00000  Uiso   1.00
C703   C     0.48524   0.34516   0.76401   0.00000  Uiso   1.00
C704   C     0.48953   0.38926   0.76020   0.00000  Uiso   1.00
C705   C     0.50998   0.61134   0.74014   0.00000  Uiso   1.00
C706   C     0.41496   0.52571   0.99139   0.00000  Uiso   1.00
C707   C     0.51913   0.48152   0.62919   0.00000  Uiso   1.00
C708   C     0.48175   0.51839   0.87120   0.00000  Uiso   1.00
C709   C     0.58165   0.46946   0.50923   0.00000  Uiso   1.00
C710   C     0.52842   0.47542   0.58039   0.00000  Uiso   1.00
C711   C     0.42974   0.53387   0.94600   0.00000  Uiso   1.00
C712   C     0.44117   0.50981   0.51221   0.00000  Uiso   1.00
C713   C     0.48455   0.50550   0.99010   0.00000  Uiso   1.00
C714   C     0.50060   0.51538   0.94447   0.00000  Uiso   1.00
C715   C     0.51239   0.49184   0.51230   0.00000  Uiso   1.00
C716   C     0.55475   0.48456   0.98750   0.00000  Uiso   1.00
C717   C     0.57064   0.49588   0.94286   0.00000  Uiso   1.00
C718   C     0.54524   0.51563   0.92370   0.00000  Uiso   1.00
H719   H     0.59115   0.45697   0.57201   0.00000  Uiso   1.00
H720   H     0.65198   0.47585   0.79190   0.00000  Uiso   1.00
H721   H     0.54059   0.33710   0.71101   0.00000  Uiso   1.00
H722   H     0.45826   0.66471   0.78949   0.00000  Uiso   1.00
H723   H     0.61380   0.46294   0.99161   0.00000  Uiso   1.00
H724   H     0.47020   0.49588   0.58076   0.00000  Uiso   1.00
H725   H     0.42625   0.50114   0.54600   0.00000  Uiso   1.00
O726   O     0.50000   0.50000   0.75000   0.00000  Uiso   1.00
O727   O     0.48784   0.45970   0.65458   0.00000  Uiso   1.00
O728   O     0.46274   0.53724   0.84968   0.00000  Uiso   1.00
O729   O     0.54157   0.51092   0.64606   0.00000  Uiso   1.00
O730   O     0.50785   0.49213   0.84968   0.00000  Uiso   1.00
O731   O     0.51264   0.41352   0.78213   0.00000  Uiso   1.00
O732   O     0.47965   0.59418   0.77013   0.00000  Uiso   1.00
O733   O     0.40745   0.46625   0.73413   0.00000  Uiso   1.00
O734   O     0.60026   0.52605   0.71360   0.00000  Uiso   1.00
O735   O     0.40405   0.52211   0.78213   0.00000  Uiso   1.00
O736   O     0.58824   0.48559   0.77013   0.00000  Uiso   1.00
O737   O     0.47093   0.40277   0.73413   0.00000  Uiso   1.00
O738   O     0.53678   0.58953   0.71360   0.00000  Uiso   1.00
Zn739  Zn    0.52672   0.47327   0.78734   0.00000  Uiso   1.00
Zn740  Zn    0.46713   0.45791   0.71875   0.00000  Uiso   1.00
Zn741  Zn    0.54389   0.53109   0.70657   0.00000  Uiso   1.00
Zn742  Zn    0.46226   0.53773   0.78733   0.00000  Uiso   1.00
Br743  Br    0.96128   0.48677   0.90775   0.00000  Uiso   1.00
Br744  Br    0.72427   0.55618   0.91992   0.00000  Uiso   1.00
Br745  Br    0.69088   0.53319   0.52640   0.00000  Uiso   1.00
Br746  Br    0.90821   0.55197   0.87623   0.00000  Uiso   1.00
Br747  Br    0.69965   0.53856   0.68574   0.00000  Uiso   1.00
C748   C     0.71935   0.49299   0.76034   0.00000  Uiso   1.00
C749   C     0.83338   0.48708   0.55908   0.00000  Uiso   1.00
C750   C     0.90211   0.46562   0.55539   0.00000  Uiso   1.00
C751   C     0.94759   0.50719   0.73975   0.00000  Uiso   1.00
C752   C     0.80488   0.52494   0.92110   0.00000  Uiso   1.00
C753   C     0.99370   0.50964   0.73466   0.00000  Uiso   1.00
C754   C     0.67419   0.49152   0.76394   0.00000  Uiso   1.00
C755   C     0.84733   0.65590   0.73642   0.00000  Uiso   1.00
C756   C     0.81857   0.34516   0.76401   0.00000  Uiso   1.00
C757   C     0.82286   0.38926   0.76020   0.00000  Uiso   1.00
C758   C     0.84331   0.61134   0.74014   0.00000  Uiso   1.00
C759   C     0.74829   0.52571   0.99139   0.00000  Uiso   1.00
C760   C     0.85247   0.48152   0.62919   0.00000  Uiso   1.00
C761   C     0.81508   0.51839   0.87120   0.00000  Uiso   1.00
C762   C     0.91498   0.46946   0.50923   0.00000  Uiso   1.00
C763   C     0.86175   0.47542   0.58039   0.00000  Uiso   1.00
C764   C     0.76308   0.53387   0.94600   0.00000  Uiso   1.00
C765   C     0.77450   0.50981   0.51221   0.00000  Uiso   1.00
C766   C     0.81789   0.50550   0.99010   0.00000  Uiso   1.00
C767   C     0.83394   0.51538   0.94447   0.00000  Uiso   1.00
C768   C     0.84572   0.49184   0.51230   0.00000  Uiso   1.00
C769   C     0.88809   0.48456   0.98750   0.00000  Uiso   1.00
C770   C     0.90397   0.49588   0.94286   0.00000  Uiso   1.00
C771   C     0.87858   0.51563   0.92370   0.00000  Uiso   1.00
H772   H     0.92448   0.45697   0.57201   0.00000  Uiso   1.00
H773   H     0.98532   0.47585   0.79190   0.00000  Uiso   1.00
H774   H     0.87393   0.33710   0.71101   0.00000  Uiso   1.00
H775   H     0.79160   0.66471   0.78949   0.00000  Uiso   1.00
H776   H     0.94714   0.46294   0.99161   0.00000  Uiso   1.00
H777   H     0.80353   0.49588   0.58076   0.00000  Uiso   1.00
H778   H     0.75958   0.50114   0.54600   0.00000  Uiso   1.00
O779   O     0.83333   0.50000   0.75000   0.00000  Uiso   1.00
O780   O     0.82118   0.45970   0.65458   0.00000  Uiso   1.00
O781   O     0.79607   0.53724   0.84968   0.00000  Uiso   1.00
O782   O     0.87491   0.51092   0.64606   0.00000  Uiso   1.00
O783   O     0.84118   0.49213   0.84968   0.00000  Uiso   1.00
O784   O     0.84597   0.41352   0.78213   0.00000  Uiso   1.00
O785   O     0.81298   0.59418   0.77013   0.00000  Uiso   1.00
O786   O     0.74078   0.46625   0.73413   0.00000  Uiso   1.00
O787   O     0.93360   0.52605   0.71360   0.00000  Uiso   1.00
O788   O     0.73738   0.52211   0.78213   0.00000  Uiso   1.00
O789   O     0.92158   0.48559   0.77013   0.00000  Uiso   1.00
O790   O     0.80426   0.40277   0.73413   0.00000  Uiso   1.00
O791   O     0.87012   0.58953   0.71360   0.00000  Uiso   1.00
Zn792  Zn    0.86005   0.47327   0.78734   0.00000  Uiso   1.00
Zn793  Zn    0.80046   0.45791   0.71875   0.00000  Uiso   1.00
Zn794  Zn    0.87723   0.53109   0.70657   0.00000  Uiso   1.00
Zn795  Zn    0.79560   0.53773   0.78733   0.00000  Uiso   1.00
Br796  Br    0.29461   0.82010   0.90775   0.00000  Uiso   1.00
Br797  Br    0.05760   0.88951   0.91992   0.00000  Uiso   1.00
Br798  Br    0.02421   0.86653   0.52640   0.00000  Uiso   1.00
Br799  Br    0.24154   0.88530   0.87623   0.00000  Uiso   1.00
Br800  Br    0.03299   0.87189   0.68574   0.00000  Uiso   1.00
C801   C     0.05268   0.82633   0.76034   0.00000  Uiso   1.00
C802   C     0.16671   0.82041   0.55908   0.00000  Uiso   1.00
C803   C     0.23544   0.79895   0.55539   0.00000  Uiso   1.00
C804   C     0.28093   0.84053   0.73975   0.00000  Uiso   1.00
C805   C     0.13821   0.85827   0.92110   0.00000  Uiso   1.00
C806   C     0.32703   0.84297   0.73466   0.00000  Uiso   1.00
C807   C     0.00753   0.82486   0.76394   0.00000  Uiso   1.00
C808   C     0.18066   0.98923   0.73642   0.00000  Uiso   1.00
C809   C     0.15191   0.67850   0.76401   0.00000  Uiso   1.00
C810   C     0.15619   0.72259   0.76020   0.00000  Uiso   1.00
C811   C     0.17664   0.94467   0.74014   0.00000  Uiso   1.00
C812   C     0.08163   0.85904   0.99139   0.00000  Uiso   1.00
C813   C     0.18580   0.81485   0.62919   0.00000  Uiso   1.00
C814   C     0.14841   0.85173   0.87120   0.00000  Uiso   1.00
C815   C     0.24832   0.80280   0.50923   0.00000  Uiso   1.00
C816   C     0.19509   0.80875   0.58039   0.00000  Uiso   1.00
C817   C     0.09641   0.86720   0.94600   0.00000  Uiso   1.00
C818   C     0.10783   0.84314   0.51221   0.00000  Uiso   1.00
C819   C     0.15122   0.83883   0.99010   0.00000  Uiso   1.00
C820   C     0.16727   0.84871   0.94447   0.00000  Uiso   1.00
C821   C     0.17905   0.82518   0.51230   0.00000  Uiso   1.00
C822   C     0.22142   0.81790   0.98750   0.00000  Uiso   1.00
C823   C     0.23731   0.82921   0.94286   0.00000  Uiso   1.00
C824   C     0.21191   0.84896   0.92370   0.00000  Uiso   1.00
H825   H     0.25782   0.79030   0.57201   0.00000  Uiso   1.00
H826   H     0.31865   0.80919   0.79190   0.00000  Uiso   1.00
H827   H     0.20726   0.67044   0.71101   0.00000  Uiso   1.00
H828   H     0.12493   0.99804   0.78949   0.00000  Uiso   1.00
H829   H     0.28047   0.79627   0.99161   0.00000  Uiso   1.00
H830   H     0.13686   0.82922   0.58076   0.00000  Uiso   1.00
H831   H     0.09292   0.83447   0.54600   0.00000  Uiso   1.00
O832   O     0.16667   0.83333   0.75000   0.00000  Uiso   1.00
O833   O     0.15451   0.79304   0.65458   0.00000  Uiso   1.00
O834   O     0.12940   0.87058   0.84968   0.00000  Uiso   1.00
O835   O     0.20824   0.84425   0.64606   0.00000  Uiso   1.00
O836   O     0.17451   0.82546   0.84968   0.00000  Uiso   1.00
O837   O     0.17930   0.74686   0.78213   0.00000  Uiso   1.00
O838   O     0.14632   0.92751   0.77013   0.00000  Uiso   1.00
O839   O     0.07412   0.79958   0.73413   0.00000  Uiso   1.00
O840   O     0.26693   0.85939   0.71360   0.00000  Uiso   1.00
O841   O     0.07071   0.85544   0.78213   0.00000  Uiso   1.00
O842   O     0.25491   0.81892   0.77013   0.00000  Uiso   1.00
O843   O     0.13760   0.73610   0.73413   0.00000  Uiso   1.00
O844   O     0.20345   0.92286   0.71360   0.00000  Uiso   1.00
Zn845  Zn    0.19338   0.80661   0.78734   0.00000  Uiso   1.00
Zn846  Zn    0.13379   0.79124   0.71875   0.00000  Uiso   1.00
Zn847  Zn    0.21056   0.86442   0.70657   0.00000  Uiso   1.00
Zn848  Zn    0.12893   0.87106   0.78733   0.00000  Uiso   1.00
Br849  Br    0.62795   0.82010   0.90775   0.00000  Uiso   1.00
Br850  Br    0.39094   0.88951   0.91992   0.00000  Uiso   1.00
Br851  Br    0.35754   0.86653   0.52640   0.00000  Uiso   1.00
Br852  Br    0.57488   0.88530   0.87623   0.00000  Uiso   1.00
Br853  Br    0.36632   0.87189   0.68574   0.00000  Uiso   1.00
C854   C     0.38601   0.82633   0.76034   0.00000  Uiso   1.00
C855   C     0.50005   0.82041   0.55908   0.00000  Uiso   1.00
C856   C     0.56877   0.79895   0.55539   0.00000  Uiso   1.00
C857   C     0.61426   0.84053   0.73975   0.00000  Uiso   1.00
C858   C     0.47155   0.85827   0.92110   0.00000  Uiso   1.00
C859   C     0.66037   0.84297   0.73466   0.00000  Uiso   1.00
C860   C     0.34086   0.82486   0.76394   0.00000  Uiso   1.00
C861   C     0.51399   0.98923   0.73642   0.00000  Uiso   1.00
C862   C     0.48524   0.67850   0.76401   0.00000  Uiso   1.00
C863   C     0.48953   0.72259   0.76020   0.00000  Uiso   1.00
C864   C     0.50998   0.94467   0.74014   0.00000  Uiso   1.00
C865   C     0.41496   0.85904   0.99139   0.00000  Uiso   1.00
C866   C     0.51913   0.81485   0.62919   0.00000  Uiso   1.00
C867   C     0.48175   0.85173   0.87120   0.00000  Uiso   1.00
C868   C     0.58165   0.80280   0.50923   0.00000  Uiso   1.00
C869   C     0.52842   0.80875   0.58039   0.00000  Uiso   1.00
C870   C     0.42974   0.86720   0.94600   0.00000  Uiso   1.00
C871   C     0.44117   0.84314   0.51221   0.00000  Uiso   1.00
C872   C     0.48455   0.83883   0.99010   0.00000  Uiso   1.00
C873   C     0.50060   0.84871   0.94447   0.00000  Uiso   1.00
C874   C     0.51239   0.82518   0.51230   0.00000  Uiso   1.00
C875   C     0.55475   0.81790   0.98750   0.00000  Uiso   1.00
C876   C     0.57064   0.82921   0.94286   0.00000  Uiso   1.00
C877   C     0.54524   0.84896   0.92370   0.00000  Uiso   1.00
H878   H     0.59115   0.79030   0.57201   0.00000  Uiso   1.00
H879   H     0.65198   0.80919   0.79190   0.00000  Uiso   1.00
H880   H     0.54059   0.67044   0.71101   0.00000  Uiso   1.00
H881   H     0.45826   0.99804   0.78949   0.00000  Uiso   1.00
H882   H     0.61380   0.79627   0.99161   0.00000  Uiso   1.00
H883   H     0.47020   0.82922   0.58076   0.00000  Uiso   1.00
H884   H     0.42625   0.83447   0.54600   0.00000  Uiso   1.00
O885   O     0.50000   0.83333   0.75000   0.00000  Uiso   1.00
O886   O     0.48784   0.79304   0.65458   0.00000  Uiso   1.00
O887   O     0.46274   0.87058   0.84968   0.00000  Uiso   1.00
O888   O     0.54157   0.84425   0.64606   0.00000  Uiso   1.00
O889   O     0.50785   0.82546   0.84968   0.00000  Uiso   1.00
O890   O     0.51264   0.74686   0.78213   0.00000  Uiso   1.00
O891   O     0.47965   0.92751   0.77013   0.00000  Uiso   1.00
O892   O     0.40745   0.79958   0.73413   0.00000  Uiso   1.00
O893   O     0.60026   0.85939   0.71360   0.00000  Uiso   1.00
O894   O     0.40405   0.85544   0.78213   0.00000  Uiso   1.00
O895   O     0.58824   0.81892   0.77013   0.00000  Uiso   1.00
O896   O     0.47093   0.73610   0.73413   0.00000  Uiso   1.00
O897   O     0.53678   0.92286   0.71360   0.00000  Uiso   1.00
Zn898  Zn    0.52672   0.80661   0.78734   0.00000  Uiso   1.00
Zn899  Zn    0.46713   0.79124   0.71875   0.00000  Uiso   1.00
Zn900  Zn    0.54389   0.86442   0.70657   0.00000  Uiso   1.00
Zn901  Zn    0.46226   0.87106   0.78733   0.00000  Uiso   1.00
Br902  Br    0.96128   0.82010   0.90775   0.00000  Uiso   1.00
Br903  Br    0.72427   0.88951   0.91992   0.00000  Uiso   1.00
Br904  Br    0.69088   0.86653   0.52640   0.00000  Uiso   1.00
Br905  Br    0.90821   0.88530   0.87623   0.00000  Uiso   1.00
Br906  Br    0.69965   0.87189   0.68574   0.00000  Uiso   1.00
C907   C     0.71935   0.82633   0.76034   0.00000  Uiso   1.00
C908   C     0.83338   0.82041   0.55908   0.00000  Uiso   1.00
C909   C     0.90211   0.79895   0.55539   0.00000  Uiso   1.00
C910   C     0.94759   0.84053   0.73975   0.00000  Uiso   1.00
C911   C     0.80488   0.85827   0.92110   0.00000  Uiso   1.00
C912   C     0.99370   0.84297   0.73466   0.00000  Uiso   1.00
C913   C     0.67419   0.82486   0.76394   0.00000  Uiso   1.00
C914   C     0.84733   0.98923   0.73642   0.00000  Uiso   1.00
C915   C     0.81857   0.67850   0.76401   0.00000  Uiso   1.00
C916   C     0.82286   0.72259   0.76020   0.00000  Uiso   1.00
C917   C     0.84331   0.94467   0.74014   0.00000  Uiso   1.00
C918   C     0.74829   0.85904   0.99139   0.00000  Uiso   1.00
C919   C     0.85247   0.81485   0.62919   0.00000  Uiso   1.00
C920   C     0.81508   0.85173   0.87120   0.00000  Uiso   1.00
C921   C     0.91498   0.80280   0.50923   0.00000  Uiso   1.00
C922   C     0.86175   0.80875   0.58039   0.00000  Uiso   1.00
C923   C     0.76308   0.86720   0.94600   0.00000  Uiso   1.00
C924   C     0.77450   0.84314   0.51221   0.00000  Uiso   1.00
C925   C     0.81789   0.83883   0.99010   0.00000  Uiso   1.00
C926   C     0.83394   0.84871   0.94447   0.00000  Uiso   1.00
C927   C     0.84572   0.82518   0.51230   0.00000  Uiso   1.00
C928   C     0.88809   0.81790   0.98750   0.00000  Uiso   1.00
C929   C     0.90397   0.82921   0.94286   0.00000  Uiso   1.00
C930   C     0.87858   0.84896   0.92370   0.00000  Uiso   1.00
H931   H     0.92448   0.79030   0.57201   0.00000  Uiso   1.00
H932   H     0.98532   0.80919   0.79190   0.00000  Uiso   1.00
H933   H     0.87393   0.67044   0.71101   0.00000  Uiso   1.00
H934   H     0.79160   0.99804   0.78949   0.00000  Uiso   1.00
H935   H     0.94714   0.79627   0.99161   0.00000  Uiso   1.00
H936   H     0.80353   0.82922   0.58076   0.00000  Uiso   1.00
H937   H     0.75958   0.83447   0.54600   0.00000  Uiso   1.00
O938   O     0.83333   0.83333   0.75000   0.00000  Uiso   1.00
O939   O     0.82118   0.79304   0.65458   0.00000  Uiso   1.00
O940   O     0.79607   0.87058   0.84968   0.00000  Uiso   1.00
O941   O     0.87491   0.84425   0.64606   0.00000  Uiso   1.00
O942   O     0.84118   0.82546   0.84968   0.00000  Uiso   1.00
O943   O     0.84597   0.74686   0.78213   0.00000  Uiso   1.00
O944   O     0.81298   0.92751   0.77013   0.00000  Uiso   1.00
O945   O     0.74078   0.79958   0.73413   0.00000  Uiso   1.00
O946   O     0.93360   0.85939   0.71360   0.00000  Uiso   1.00
O947   O     0.73738   0.85544   0.78213   0.00000  Uiso   1.00
O948   O     0.92158   0.81892   0.77013   0.00000  Uiso   1.00
O949   O     0.80426   0.73610   0.73413   0.00000  Uiso   1.00
O950   O     0.87012   0.92286   0.71360   0.00000  Uiso   1.00
Zn951  Zn    0.86005   0.80661   0.78734   0.00000  Uiso   1.00
Zn952  Zn    0.80046   0.79124   0.71875   0.00000  Uiso   1.00
Zn953  Zn    0.87723   0.86442   0.70657   0.00000  Uiso   1.00
Zn954  Zn    0.79560   0.87106   0.78733   0.00000  Uiso   1.00
loop_
_geom_bond_atom_site_label_1
_geom_bond_atom_site_label_2
_geom_bond_distance
_geom_bond_site_symmetry_2
_ccdc_geom_bond_type
Br1    C28     1.933   .     S
Br2    C22     1.934   .     S
Br3    C494    1.924   1_554 S
Br4    C29     1.941   .     S
Br5    C117    1.929   1_455 S
C6     C12     1.439   .     S
C6     O44     1.271   .     A
C6     O46     1.269   .     A
C7     C26     1.413   .     A
C7     C21     1.389   .     A
C7     H35     1.077   .     S
C8     H30     1.084   .     S
C8     C21     1.393   .     A
C8     C20     1.390   .     A
C9     O45     1.279   .     A
C9     C11     1.459   .     S
C9     O47     1.278   .     A
C10    C19     1.486   .     S
C10    C22     1.423   .     A
C10    C25     1.425   .     A
C11    Br58    1.929   .     S
C11    C65     1.339   .     S
C12    C117    1.339   1_455 S
C12    H137    1.086   1_455 S
C13    C16     1.451   .     S
C13    C173    1.331   .     S
C13    H191    1.088   .     S
C14    C15     1.436   .     S
C14    C331    1.331   1_545 S
C14    H351    1.086   1_545 S
C15    O48     1.280   .     A
C15    O42     1.280   .     A
C16    O43     1.266   .     A
C16    O49     1.265   .     A
C17    C22     1.397   .     A
C17    Br480   1.924   .     S
C17    C500    1.385   .     S
C18    C21     1.454   .     S
C18    O38     1.279   .     A
C18    O40     1.271   .     A
C19    O39     1.278   .     A
C19    O41     1.294   .     A
C20    C504    1.409   1_554 S
C20    H511    1.080   1_554 S
C23    H36     1.076   .     S
C23    C494    1.385   1_554 S
C23    C501    1.412   1_554 S
C24    C25     1.421   .     A
C24    C500    1.412   .     S
C24    C503    1.422   .     S
C25    C29     1.420   .     A
C26    C501    1.422   1_554 S
C26    C504    1.424   1_554 S
C27    C28     1.407   .     A
C27    C497    1.409   .     S
C27    C503    1.424   .     S
C28    C29     1.400   .     A
H31    C65     1.086   .     S
H32    C331    1.088   1_545 S
H33    C173    1.086   .     S
H34    C497    1.080   .     S
O37    Zn53    1.924   .     S
O37    Zn50    1.962   .     S
O37    Zn51    1.950   .     S
O37    Zn52    1.924   .     S
O38    Zn51    1.920   .     S
O39    Zn53    1.937   .     S
O40    Zn52    1.933   .     S
O41    Zn50    1.918   .     S
O42    Zn50    1.930   .     S
O43    Zn53    1.930   .     S
O44    Zn51    1.924   .     S
O45    Zn52    1.941   .     S
O46    Zn53    1.937   .     S
O47    Zn50    1.922   .     S
O48    Zn51    1.936   .     S
O49    Zn52    1.930   .     S
Br54   C81     1.933   .     S
Br55   C75     1.934   .     S
Br56   C547    1.924   1_554 S
Br57   C82     1.941   .     S
C59    C65     1.439   .     S
C59    O97     1.271   .     A
C59    O99     1.269   .     A
C60    C79     1.413   .     A
C60    C74     1.389   .     A
C60    H88     1.077   .     S
C61    H83     1.084   .     S
C61    C74     1.393   .     A
C61    C73     1.390   .     A
C62    O98     1.279   .     A
C62    C64     1.459   .     S
C62    O100    1.278   .     A
C63    C72     1.486   .     S
C63    C75     1.423   .     A
C63    C78     1.425   .     A
C64    Br111   1.929   .     S
C64    C118    1.339   .     S
C66    C69     1.451   .     S
C66    C226    1.331   .     S
C66    H244    1.088   .     S
C67    C68     1.436   .     S
C67    C384    1.331   1_545 S
C67    H404    1.086   1_545 S
C68    O101    1.280   .     A
C68    O95     1.280   .     A
C69    O96     1.266   .     A
C69    O102    1.265   .     A
C70    C75     1.397   .     A
C70    Br533   1.924   .     S
C70    C553    1.385   .     S
C71    C74     1.454   .     S
C71    O91     1.279   .     A
C71    O93     1.271   .     A
C72    O92     1.278   .     A
C72    O94     1.294   .     A
C73    C557    1.409   1_554 S
C73    H564    1.080   1_554 S
C76    H89     1.076   .     S
C76    C547    1.385   1_554 S
C76    C554    1.412   1_554 S
C77    C78     1.421   .     A
C77    C553    1.412   .     S
C77    C556    1.422   .     S
C78    C82     1.420   .     A
C79    C554    1.422   1_554 S
C79    C557    1.424   1_554 S
C80    C81     1.407   .     A
C80    C550    1.409   .     S
C80    C556    1.424   .     S
C81    C82     1.400   .     A
H84    C118    1.086   .     S
H85    C384    1.088   1_545 S
H86    C226    1.086   .     S
H87    C550    1.080   .     S
O90    Zn106   1.924   .     S
O90    Zn103   1.962   .     S
O90    Zn104   1.950   .     S
O90    Zn105   1.924   .     S
O91    Zn104   1.920   .     S
O92    Zn106   1.937   .     S
O93    Zn105   1.933   .     S
O94    Zn103   1.918   .     S
O95    Zn103   1.930   .     S
O96    Zn106   1.930   .     S
O97    Zn104   1.924   .     S
O98    Zn105   1.941   .     S
O99    Zn106   1.937   .     S
O100   Zn103   1.922   .     S
O101   Zn104   1.936   .     S
O102   Zn105   1.930   .     S
Br107  C134    1.933   .     S
Br108  C128    1.934   .     S
Br109  C600    1.924   1_554 S
Br110  C135    1.941   .     S
C112   C118    1.439   .     S
C112   O150    1.271   .     A
C112   O152    1.269   .     A
C113   C132    1.413   .     A
C113   C127    1.389   .     A
C113   H141    1.077   .     S
C114   H136    1.084   .     S
C114   C127    1.393   .     A
C114   C126    1.390   .     A
C115   O151    1.279   .     A
C115   C117    1.459   .     S
C115   O153    1.278   .     A
C116   C125    1.486   .     S
C116   C128    1.423   .     A
C116   C131    1.425   .     A
C117   Br5     1.929   1_655 S
C117   C12     1.339   1_655 S
C119   C122    1.451   .     S
C119   C279    1.331   .     S
C119   H297    1.088   .     S
C120   C121    1.436   .     S
C120   C437    1.331   1_545 S
C120   H457    1.086   1_545 S
C121   O154    1.280   .     A
C121   O148    1.280   .     A
C122   O149    1.266   .     A
C122   O155    1.265   .     A
C123   C128    1.397   .     A
C123   Br586   1.924   .     S
C123   C606    1.385   .     S
C124   C127    1.454   .     S
C124   O144    1.279   .     A
C124   O146    1.271   .     A
C125   O145    1.278   .     A
C125   O147    1.294   .     A
C126   C610    1.409   1_554 S
C126   H617    1.080   1_554 S
C129   H142    1.076   .     S
C129   C600    1.385   1_554 S
C129   C607    1.412   1_554 S
C130   C131    1.421   .     A
C130   C606    1.412   .     S
C130   C609    1.422   .     S
C131   C135    1.420   .     A
C132   C607    1.422   1_554 S
C132   C610    1.424   1_554 S
C133   C134    1.407   .     A
C133   C603    1.409   .     S
C133   C609    1.424   .     S
C134   C135    1.400   .     A
H137   C12     1.086   1_655 S
H138   C437    1.088   1_545 S
H139   C279    1.086   .     S
H140   C603    1.080   .     S
O143   Zn159   1.924   .     S
O143   Zn156   1.962   .     S
O143   Zn157   1.950   .     S
O143   Zn158   1.924   .     S
O144   Zn157   1.920   .     S
O145   Zn159   1.937   .     S
O146   Zn158   1.933   .     S
O147   Zn156   1.918   .     S
O148   Zn156   1.930   .     S
O149   Zn159   1.930   .     S
O150   Zn157   1.924   .     S
O151   Zn158   1.941   .     S
O152   Zn159   1.937   .     S
O153   Zn156   1.922   .     S
O154   Zn157   1.936   .     S
O155   Zn158   1.930   .     S
Br160  C187    1.933   .     S
Br161  C181    1.934   .     S
Br162  C653    1.924   1_554 S
Br163  C188    1.941   .     S
Br164  C276    1.929   1_455 S
C165   C171    1.439   .     S
C165   O203    1.271   .     A
C165   O205    1.269   .     A
C166   C185    1.413   .     A
C166   C180    1.389   .     A
C166   H194    1.077   .     S
C167   H189    1.084   .     S
C167   C180    1.393   .     A
C167   C179    1.390   .     A
C168   O204    1.279   .     A
C168   C170    1.459   .     S
C168   O206    1.278   .     A
C169   C178    1.486   .     S
C169   C181    1.423   .     A
C169   C184    1.425   .     A
C170   Br217   1.929   .     S
C170   C224    1.339   .     S
C171   C276    1.339   1_455 S
C171   H296    1.086   1_455 S
C172   C175    1.451   .     S
C172   C332    1.331   .     S
C172   H350    1.088   .     S
C173   C174    1.436   .     S
C174   O207    1.280   .     A
C174   O201    1.280   .     A
C175   O202    1.266   .     A
C175   O208    1.265   .     A
C176   C181    1.397   .     A
C176   Br639   1.924   .     S
C176   C659    1.385   .     S
C177   C180    1.454   .     S
C177   O197    1.279   .     A
C177   O199    1.271   .     A
C178   O198    1.278   .     A
C178   O200    1.294   .     A
C179   C663    1.409   1_554 S
C179   H670    1.080   1_554 S
C182   H195    1.076   .     S
C182   C653    1.385   1_554 S
C182   C660    1.412   1_554 S
C183   C184    1.421   .     A
C183   C659    1.412   .     S
C183   C662    1.422   .     S
C184   C188    1.420   .     A
C185   C660    1.422   1_554 S
C185   C663    1.424   1_554 S
C186   C187    1.407   .     A
C186   C656    1.409   .     S
C186   C662    1.424   .     S
C187   C188    1.400   .     A
H190   C224    1.086   .     S
H192   C332    1.086   .     S
H193   C656    1.080   .     S
O196   Zn212   1.924   .     S
O196   Zn209   1.962   .     S
O196   Zn210   1.950   .     S
O196   Zn211   1.924   .     S
O197   Zn210   1.920   .     S
O198   Zn212   1.937   .     S
O199   Zn211   1.933   .     S
O200   Zn209   1.918   .     S
O201   Zn209   1.930   .     S
O202   Zn212   1.930   .     S
O203   Zn210   1.924   .     S
O204   Zn211   1.941   .     S
O205   Zn212   1.937   .     S
O206   Zn209   1.922   .     S
O207   Zn210   1.936   .     S
O208   Zn211   1.930   .     S
Br213  C240    1.933   .     S
Br214  C234    1.934   .     S
Br215  C706    1.924   1_554 S
Br216  C241    1.941   .     S
C218   C224    1.439   .     S
C218   O256    1.271   .     A
C218   O258    1.269   .     A
C219   C238    1.413   .     A
C219   C233    1.389   .     A
C219   H247    1.077   .     S
C220   H242    1.084   .     S
C220   C233    1.393   .     A
C220   C232    1.390   .     A
C221   O257    1.279   .     A
C221   C223    1.459   .     S
C221   O259    1.278   .     A
C222   C231    1.486   .     S
C222   C234    1.423   .     A
C222   C237    1.425   .     A
C223   Br270   1.929   .     S
C223   C277    1.339   .     S
C225   C228    1.451   .     S
C225   C385    1.331   .     S
C225   H403    1.088   .     S
C226   C227    1.436   .     S
C227   O260    1.280   .     A
C227   O254    1.280   .     A
C228   O255    1.266   .     A
C228   O261    1.265   .     A
C229   C234    1.397   .     A
C229   Br692   1.924   .     S
C229   C712    1.385   .     S
C230   C233    1.454   .     S
C230   O250    1.279   .     A
C230   O252    1.271   .     A
C231   O251    1.278   .     A
C231   O253    1.294   .     A
C232   C716    1.409   1_554 S
C232   H723    1.080   1_554 S
C235   H248    1.076   .     S
C235   C706    1.385   1_554 S
C235   C713    1.412   1_554 S
C236   C237    1.421   .     A
C236   C712    1.412   .     S
C236   C715    1.422   .     S
C237   C241    1.420   .     A
C238   C713    1.422   1_554 S
C238   C716    1.424   1_554 S
C239   C240    1.407   .     A
C239   C709    1.409   .     S
C239   C715    1.424   .     S
C240   C241    1.400   .     A
H243   C277    1.086   .     S
H245   C385    1.086   .     S
H246   C709    1.080   .     S
O249   Zn265   1.924   .     S
O249   Zn262   1.962   .     S
O249   Zn263   1.950   .     S
O249   Zn264   1.924   .     S
O250   Zn263   1.920   .     S
O251   Zn265   1.937   .     S
O252   Zn264   1.933   .     S
O253   Zn262   1.918   .     S
O254   Zn262   1.930   .     S
O255   Zn265   1.930   .     S
O256   Zn263   1.924   .     S
O257   Zn264   1.941   .     S
O258   Zn265   1.937   .     S
O259   Zn262   1.922   .     S
O260   Zn263   1.936   .     S
O261   Zn264   1.930   .     S
Br266  C293    1.933   .     S
Br267  C287    1.934   .     S
Br268  C759    1.924   1_554 S
Br269  C294    1.941   .     S
C271   C277    1.439   .     S
C271   O309    1.271   .     A
C271   O311    1.269   .     A
C272   C291    1.413   .     A
C272   C286    1.389   .     A
C272   H300    1.077   .     S
C273   H295    1.084   .     S
C273   C286    1.393   .     A
C273   C285    1.390   .     A
C274   O310    1.279   .     A
C274   C276    1.459   .     S
C274   O312    1.278   .     A
C275   C284    1.486   .     S
C275   C287    1.423   .     A
C275   C290    1.425   .     A
C276   Br164   1.929   1_655 S
C276   C171    1.339   1_655 S
C278   C281    1.451   .     S
C278   C438    1.331   .     S
C278   H456    1.088   .     S
C279   C280    1.436   .     S
C280   O313    1.280   .     A
C280   O307    1.280   .     A
C281   O308    1.266   .     A
C281   O314    1.265   .     A
C282   C287    1.397   .     A
C282   Br745   1.924   .     S
C282   C765    1.385   .     S
C283   C286    1.454   .     S
C283   O303    1.279   .     A
C283   O305    1.271   .     A
C284   O304    1.278   .     A
C284   O306    1.294   .     A
C285   C769    1.409   1_554 S
C285   H776    1.080   1_554 S
C288   H301    1.076   .     S
C288   C759    1.385   1_554 S
C288   C766    1.412   1_554 S
C289   C290    1.421   .     A
C289   C765    1.412   .     S
C289   C768    1.422   .     S
C290   C294    1.420   .     A
C291   C766    1.422   1_554 S
C291   C769    1.424   1_554 S
C292   C293    1.407   .     A
C292   C762    1.409   .     S
C292   C768    1.424   .     S
C293   C294    1.400   .     A
H296   C171    1.086   1_655 S
H298   C438    1.086   .     S
H299   C762    1.080   .     S
O302   Zn318   1.924   .     S
O302   Zn315   1.962   .     S
O302   Zn316   1.950   .     S
O302   Zn317   1.924   .     S
O303   Zn316   1.920   .     S
O304   Zn318   1.937   .     S
O305   Zn317   1.933   .     S
O306   Zn315   1.918   .     S
O307   Zn315   1.930   .     S
O308   Zn318   1.930   .     S
O309   Zn316   1.924   .     S
O310   Zn317   1.941   .     S
O311   Zn318   1.937   .     S
O312   Zn315   1.922   .     S
O313   Zn316   1.936   .     S
O314   Zn317   1.930   .     S
Br319  C346    1.933   .     S
Br320  C340    1.934   .     S
Br321  C812    1.924   1_554 S
Br322  C347    1.941   .     S
Br323  C435    1.929   1_455 S
C324   C330    1.439   .     S
C324   O362    1.271   .     A
C324   O364    1.269   .     A
C325   C344    1.413   .     A
C325   C339    1.389   .     A
C325   H353    1.077   .     S
C326   H348    1.084   .     S
C326   C339    1.393   .     A
C326   C338    1.390   .     A
C327   O363    1.279   .     A
C327   C329    1.459   .     S
C327   O365    1.278   .     A
C328   C337    1.486   .     S
C328   C340    1.423   .     A
C328   C343    1.425   .     A
C329   Br376   1.929   .     S
C329   C383    1.339   .     S
C330   C435    1.339   1_455 S
C330   H455    1.086   1_455 S
C331   C334    1.451   .     S
C331   C14     1.331   1_565 S
C331   H32     1.088   1_565 S
C332   C333    1.436   .     S
C333   O366    1.280   .     A
C333   O360    1.280   .     A
C334   O361    1.266   .     A
C334   O367    1.265   .     A
C335   C340    1.397   .     A
C335   Br798   1.924   .     S
C335   C818    1.385   .     S
C336   C339    1.454   .     S
C336   O356    1.279   .     A
C336   O358    1.271   .     A
C337   O357    1.278   .     A
C337   O359    1.294   .     A
C338   C822    1.409   1_554 S
C338   H829    1.080   1_554 S
C341   H354    1.076   .     S
C341   C812    1.385   1_554 S
C341   C819    1.412   1_554 S
C342   C343    1.421   .     A
C342   C818    1.412   .     S
C342   C821    1.422   .     S
C343   C347    1.420   .     A
C344   C819    1.422   1_554 S
C344   C822    1.424   1_554 S
C345   C346    1.407   .     A
C345   C815    1.409   .     S
C345   C821    1.424   .     S
C346   C347    1.400   .     A
H349   C383    1.086   .     S
H351   C14     1.086   1_565 S
H352   C815    1.080   .     S
O355   Zn371   1.924   .     S
O355   Zn368   1.962   .     S
O355   Zn369   1.950   .     S
O355   Zn370   1.924   .     S
O356   Zn369   1.920   .     S
O357   Zn371   1.937   .     S
O358   Zn370   1.933   .     S
O359   Zn368   1.918   .     S
O360   Zn368   1.930   .     S
O361   Zn371   1.930   .     S
O362   Zn369   1.924   .     S
O363   Zn370   1.941   .     S
O364   Zn371   1.937   .     S
O365   Zn368   1.922   .     S
O366   Zn369   1.936   .     S
O367   Zn370   1.930   .     S
Br372  C399    1.933   .     S
Br373  C393    1.934   .     S
Br374  C865    1.924   1_554 S
Br375  C400    1.941   .     S
C377   C383    1.439   .     S
C377   O415    1.271   .     A
C377   O417    1.269   .     A
C378   C397    1.413   .     A
C378   C392    1.389   .     A
C378   H406    1.077   .     S
C379   H401    1.084   .     S
C379   C392    1.393   .     A
C379   C391    1.390   .     A
C380   O416    1.279   .     A
C380   C382    1.459   .     S
C380   O418    1.278   .     A
C381   C390    1.486   .     S
C381   C393    1.423   .     A
C381   C396    1.425   .     A
C382   Br429   1.929   .     S
C382   C436    1.339   .     S
C384   C387    1.451   .     S
C384   C67     1.331   1_565 S
C384   H85     1.088   1_565 S
C385   C386    1.436   .     S
C386   O419    1.280   .     A
C386   O413    1.280   .     A
C387   O414    1.266   .     A
C387   O420    1.265   .     A
C388   C393    1.397   .     A
C388   Br851   1.924   .     S
C388   C871    1.385   .     S
C389   C392    1.454   .     S
C389   O409    1.279   .     A
C389   O411    1.271   .     A
C390   O410    1.278   .     A
C390   O412    1.294   .     A
C391   C875    1.409   1_554 S
C391   H882    1.080   1_554 S
C394   H407    1.076   .     S
C394   C865    1.385   1_554 S
C394   C872    1.412   1_554 S
C395   C396    1.421   .     A
C395   C871    1.412   .     S
C395   C874    1.422   .     S
C396   C400    1.420   .     A
C397   C872    1.422   1_554 S
C397   C875    1.424   1_554 S
C398   C399    1.407   .     A
C398   C868    1.409   .     S
C398   C874    1.424   .     S
C399   C400    1.400   .     A
H402   C436    1.086   .     S
H404   C67     1.086   1_565 S
H405   C868    1.080   .     S
O408   Zn424   1.924   .     S
O408   Zn421   1.962   .     S
O408   Zn422   1.950   .     S
O408   Zn423   1.924   .     S
O409   Zn422   1.920   .     S
O410   Zn424   1.937   .     S
O411   Zn423   1.933   .     S
O412   Zn421   1.918   .     S
O413   Zn421   1.930   .     S
O414   Zn424   1.930   .     S
O415   Zn422   1.924   .     S
O416   Zn423   1.941   .     S
O417   Zn424   1.937   .     S
O418   Zn421   1.922   .     S
O419   Zn422   1.936   .     S
O420   Zn423   1.930   .     S
Br425  C452    1.933   .     S
Br426  C446    1.934   .     S
Br427  C918    1.924   1_554 S
Br428  C453    1.941   .     S
C430   C436    1.439   .     S
C430   O468    1.271   .     A
C430   O470    1.269   .     A
C431   C450    1.413   .     A
C431   C445    1.389   .     A
C431   H459    1.077   .     S
C432   H454    1.084   .     S
C432   C445    1.393   .     A
C432   C444    1.390   .     A
C433   O469    1.279   .     A
C433   C435    1.459   .     S
C433   O471    1.278   .     A
C434   C443    1.486   .     S
C434   C446    1.423   .     A
C434   C449    1.425   .     A
C435   Br323   1.929   1_655 S
C435   C330    1.339   1_655 S
C437   C440    1.451   .     S
C437   C120    1.331   1_565 S
C437   H138    1.088   1_565 S
C438   C439    1.436   .     S
C439   O472    1.280   .     A
C439   O466    1.280   .     A
C440   O467    1.266   .     A
C440   O473    1.265   .     A
C441   C446    1.397   .     A
C441   Br904   1.924   .     S
C441   C924    1.385   .     S
C442   C445    1.454   .     S
C442   O462    1.279   .     A
C442   O464    1.271   .     A
C443   O463    1.278   .     A
C443   O465    1.294   .     A
C444   C928    1.409   1_554 S
C444   H935    1.080   1_554 S
C447   H460    1.076   .     S
C447   C918    1.385   1_554 S
C447   C925    1.412   1_554 S
C448   C449    1.421   .     A
C448   C924    1.412   .     S
C448   C927    1.422   .     S
C449   C453    1.420   .     A
C450   C925    1.422   1_554 S
C450   C928    1.424   1_554 S
C451   C452    1.407   .     A
C451   C921    1.409   .     S
C451   C927    1.424   .     S
C452   C453    1.400   .     A
H455   C330    1.086   1_655 S
H457   C120    1.086   1_565 S
H458   C921    1.080   .     S
O461   Zn477   1.924   .     S
O461   Zn474   1.962   .     S
O461   Zn475   1.950   .     S
O461   Zn476   1.924   .     S
O462   Zn475   1.920   .     S
O463   Zn477   1.937   .     S
O464   Zn476   1.933   .     S
O465   Zn474   1.918   .     S
O466   Zn474   1.930   .     S
O467   Zn477   1.930   .     S
O468   Zn475   1.924   .     S
O469   Zn476   1.941   .     S
O470   Zn477   1.937   .     S
O471   Zn474   1.922   .     S
O472   Zn475   1.936   .     S
O473   Zn476   1.930   .     S
Br478  C505    1.933   .     S
Br479  C499    1.934   .     S
Br481  C506    1.941   .     S
Br482  C594    1.929   1_455 S
C483   C489    1.439   .     S
C483   O521    1.271   .     A
C483   O523    1.269   .     A
C484   C503    1.413   .     A
C484   C498    1.389   .     A
C484   H512    1.077   .     S
C485   H507    1.084   .     S
C485   C498    1.393   .     A
C485   C497    1.390   .     A
C486   O522    1.279   .     A
C486   C488    1.459   .     S
C486   O524    1.278   .     A
C487   C496    1.486   .     S
C487   C499    1.423   .     A
C487   C502    1.425   .     A
C488   Br535   1.929   .     S
C488   C542    1.339   .     S
C489   C594    1.339   1_455 S
C489   H614    1.086   1_455 S
C490   C493    1.451   .     S
C490   C650    1.331   .     S
C490   H668    1.088   .     S
C491   C492    1.436   .     S
C491   C808    1.331   1_545 S
C491   H828    1.086   1_545 S
C492   O525    1.280   .     A
C492   O519    1.280   .     A
C493   O520    1.266   .     A
C493   O526    1.265   .     A
C494   C499    1.397   .     A
C494   Br3     1.924   1_556 S
C494   C23     1.385   1_556 S
C495   C498    1.454   .     S
C495   O515    1.279   .     A
C495   O517    1.271   .     A
C496   O516    1.278   .     A
C496   O518    1.294   .     A
C500   H513    1.076   .     S
C501   C502    1.421   .     A
C501   C23     1.412   1_556 S
C501   C26     1.422   1_556 S
C502   C506    1.420   .     A
C504   C505    1.407   .     A
C504   C20     1.409   1_556 S
C504   C26     1.424   1_556 S
C505   C506    1.400   .     A
H508   C542    1.086   .     S
H509   C808    1.088   1_545 S
H510   C650    1.086   .     S
H511   C20     1.080   1_556 S
O514   Zn530   1.924   .     S
O514   Zn527   1.962   .     S
O514   Zn528   1.950   .     S
O514   Zn529   1.924   .     S
O515   Zn528   1.920   .     S
O516   Zn530   1.937   .     S
O517   Zn529   1.933   .     S
O518   Zn527   1.918   .     S
O519   Zn527   1.930   .     S
O520   Zn530   1.930   .     S
O521   Zn528   1.924   .     S
O522   Zn529   1.941   .     S
O523   Zn530   1.937   .     S
O524   Zn527   1.922   .     S
O525   Zn528   1.936   .     S
O526   Zn529   1.930   .     S
Br531  C558    1.933   .     S
Br532  C552    1.934   .     S
Br534  C559    1.941   .     S
C536   C542    1.439   .     S
C536   O574    1.271   .     A
C536   O576    1.269   .     A
C537   C556    1.413   .     A
C537   C551    1.389   .     A
C537   H565    1.077   .     S
C538   H560    1.084   .     S
C538   C551    1.393   .     A
C538   C550    1.390   .     A
C539   O575    1.279   .     A
C539   C541    1.459   .     S
C539   O577    1.278   .     A
C540   C549    1.486   .     S
C540   C552    1.423   .     A
C540   C555    1.425   .     A
C541   Br588   1.929   .     S
C541   C595    1.339   .     S
C543   C546    1.451   .     S
C543   C703    1.331   .     S
C543   H721    1.088   .     S
C544   C545    1.436   .     S
C544   C861    1.331   1_545 S
C544   H881    1.086   1_545 S
C545   O578    1.280   .     A
C545   O572    1.280   .     A
C546   O573    1.266   .     A
C546   O579    1.265   .     A
C547   C552    1.397   .     A
C547   Br56    1.924   1_556 S
C547   C76     1.385   1_556 S
C548   C551    1.454   .     S
C548   O568    1.279   .     A
C548   O570    1.271   .     A
C549   O569    1.278   .     A
C549   O571    1.294   .     A
C553   H566    1.076   .     S
C554   C555    1.421   .     A
C554   C76     1.412   1_556 S
C554   C79     1.422   1_556 S
C555   C559    1.420   .     A
C557   C558    1.407   .     A
C557   C73     1.409   1_556 S
C557   C79     1.424   1_556 S
C558   C559    1.400   .     A
H561   C595    1.086   .     S
H562   C861    1.088   1_545 S
H563   C703    1.086   .     S
H564   C73     1.080   1_556 S
O567   Zn583   1.924   .     S
O567   Zn580   1.962   .     S
O567   Zn581   1.950   .     S
O567   Zn582   1.924   .     S
O568   Zn581   1.920   .     S
O569   Zn583   1.937   .     S
O570   Zn582   1.933   .     S
O571   Zn580   1.918   .     S
O572   Zn580   1.930   .     S
O573   Zn583   1.930   .     S
O574   Zn581   1.924   .     S
O575   Zn582   1.941   .     S
O576   Zn583   1.937   .     S
O577   Zn580   1.922   .     S
O578   Zn581   1.936   .     S
O579   Zn582   1.930   .     S
Br584  C611    1.933   .     S
Br585  C605    1.934   .     S
Br587  C612    1.941   .     S
C589   C595    1.439   .     S
C589   O627    1.271   .     A
C589   O629    1.269   .     A
C590   C609    1.413   .     A
C590   C604    1.389   .     A
C590   H618    1.077   .     S
C591   H613    1.084   .     S
C591   C604    1.393   .     A
C591   C603    1.390   .     A
C592   O628    1.279   .     A
C592   C594    1.459   .     S
C592   O630    1.278   .     A
C593   C602    1.486   .     S
C593   C605    1.423   .     A
C593   C608    1.425   .     A
C594   Br482   1.929   1_655 S
C594   C489    1.339   1_655 S
C596   C599    1.451   .     S
C596   C756    1.331   .     S
C596   H774    1.088   .     S
C597   C598    1.436   .     S
C597   C914    1.331   1_545 S
C597   H934    1.086   1_545 S
C598   O631    1.280   .     A
C598   O625    1.280   .     A
C599   O626    1.266   .     A
C599   O632    1.265   .     A
C600   C605    1.397   .     A
C600   Br109   1.924   1_556 S
C600   C129    1.385   1_556 S
C601   C604    1.454   .     S
C601   O621    1.279   .     A
C601   O623    1.271   .     A
C602   O622    1.278   .     A
C602   O624    1.294   .     A
C606   H619    1.076   .     S
C607   C608    1.421   .     A
C607   C129    1.412   1_556 S
C607   C132    1.422   1_556 S
C608   C612    1.420   .     A
C610   C611    1.407   .     A
C610   C126    1.409   1_556 S
C610   C132    1.424   1_556 S
C611   C612    1.400   .     A
H614   C489    1.086   1_655 S
H615   C914    1.088   1_545 S
H616   C756    1.086   .     S
H617   C126    1.080   1_556 S
O620   Zn636   1.924   .     S
O620   Zn633   1.962   .     S
O620   Zn634   1.950   .     S
O620   Zn635   1.924   .     S
O621   Zn634   1.920   .     S
O622   Zn636   1.937   .     S
O623   Zn635   1.933   .     S
O624   Zn633   1.918   .     S
O625   Zn633   1.930   .     S
O626   Zn636   1.930   .     S
O627   Zn634   1.924   .     S
O628   Zn635   1.941   .     S
O629   Zn636   1.937   .     S
O630   Zn633   1.922   .     S
O631   Zn634   1.936   .     S
O632   Zn635   1.930   .     S
Br637  C664    1.933   .     S
Br638  C658    1.934   .     S
Br640  C665    1.941   .     S
Br641  C753    1.929   1_455 S
C642   C648    1.439   .     S
C642   O680    1.271   .     A
C642   O682    1.269   .     A
C643   C662    1.413   .     A
C643   C657    1.389   .     A
C643   H671    1.077   .     S
C644   H666    1.084   .     S
C644   C657    1.393   .     A
C644   C656    1.390   .     A
C645   O681    1.279   .     A
C645   C647    1.459   .     S
C645   O683    1.278   .     A
C646   C655    1.486   .     S
C646   C658    1.423   .     A
C646   C661    1.425   .     A
C647   Br694   1.929   .     S
C647   C701    1.339   .     S
C648   C753    1.339   1_455 S
C648   H773    1.086   1_455 S
C649   C652    1.451   .     S
C649   C809    1.331   .     S
C649   H827    1.088   .     S
C650   C651    1.436   .     S
C651   O684    1.280   .     A
C651   O678    1.280   .     A
C652   O679    1.266   .     A
C652   O685    1.265   .     A
C653   C658    1.397   .     A
C653   Br162   1.924   1_556 S
C653   C182    1.385   1_556 S
C654   C657    1.454   .     S
C654   O674    1.279   .     A
C654   O676    1.271   .     A
C655   O675    1.278   .     A
C655   O677    1.294   .     A
C659   H672    1.076   .     S
C660   C661    1.421   .     A
C660   C182    1.412   1_556 S
C660   C185    1.422   1_556 S
C661   C665    1.420   .     A
C663   C664    1.407   .     A
C663   C179    1.409   1_556 S
C663   C185    1.424   1_556 S
C664   C665    1.400   .     A
H667   C701    1.086   .     S
H669   C809    1.086   .     S
H670   C179    1.080   1_556 S
O673   Zn689   1.924   .     S
O673   Zn686   1.962   .     S
O673   Zn687   1.950   .     S
O673   Zn688   1.924   .     S
O674   Zn687   1.920   .     S
O675   Zn689   1.937   .     S
O676   Zn688   1.933   .     S
O677   Zn686   1.918   .     S
O678   Zn686   1.930   .     S
O679   Zn689   1.930   .     S
O680   Zn687   1.924   .     S
O681   Zn688   1.941   .     S
O682   Zn689   1.937   .     S
O683   Zn686   1.922   .     S
O684   Zn687   1.936   .     S
O685   Zn688   1.930   .     S
Br690  C717    1.933   .     S
Br691  C711    1.934   .     S
Br693  C718    1.941   .     S
C695   C701    1.439   .     S
C695   O733    1.271   .     A
C695   O735    1.269   .     A
C696   C715    1.413   .     A
C696   C710    1.389   .     A
C696   H724    1.077   .     S
C697   H719    1.084   .     S
C697   C710    1.393   .     A
C697   C709    1.390   .     A
C698   O734    1.279   .     A
C698   C700    1.459   .     S
C698   O736    1.278   .     A
C699   C708    1.486   .     S
C699   C711    1.423   .     A
C699   C714    1.425   .     A
C700   Br747   1.929   .     S
C700   C754    1.339   .     S
C702   C705    1.451   .     S
C702   C862    1.331   .     S
C702   H880    1.088   .     S
C703   C704    1.436   .     S
C704   O737    1.280   .     A
C704   O731    1.280   .     A
C705   O732    1.266   .     A
C705   O738    1.265   .     A
C706   C711    1.397   .     A
C706   Br215   1.924   1_556 S
C706   C235    1.385   1_556 S
C707   C710    1.454   .     S
C707   O727    1.279   .     A
C707   O729    1.271   .     A
C708   O728    1.278   .     A
C708   O730    1.294   .     A
C712   H725    1.076   .     S
C713   C714    1.421   .     A
C713   C235    1.412   1_556 S
C713   C238    1.422   1_556 S
C714   C718    1.420   .     A
C716   C717    1.407   .     A
C716   C232    1.409   1_556 S
C716   C238    1.424   1_556 S
C717   C718    1.400   .     A
H720   C754    1.086   .     S
H722   C862    1.086   .     S
H723   C232    1.080   1_556 S
O726   Zn742   1.924   .     S
O726   Zn739   1.962   .     S
O726   Zn740   1.950   .     S
O726   Zn741   1.924   .     S
O727   Zn740   1.920   .     S
O728   Zn742   1.937   .     S
O729   Zn741   1.933   .     S
O730   Zn739   1.918   .     S
O731   Zn739   1.930   .     S
O732   Zn742   1.930   .     S
O733   Zn740   1.924   .     S
O734   Zn741   1.941   .     S
O735   Zn742   1.937   .     S
O736   Zn739   1.922   .     S
O737   Zn740   1.936   .     S
O738   Zn741   1.930   .     S
Br743  C770    1.933   .     S
Br744  C764    1.934   .     S
Br746  C771    1.941   .     S
C748   C754    1.439   .     S
C748   O786    1.271   .     A
C748   O788    1.269   .     A
C749   C768    1.413   .     A
C749   C763    1.389   .     A
C749   H777    1.077   .     S
C750   H772    1.084   .     S
C750   C763    1.393   .     A
C750   C762    1.390   .     A
C751   O787    1.279   .     A
C751   C753    1.459   .     S
C751   O789    1.278   .     A
C752   C761    1.486   .     S
C752   C764    1.423   .     A
C752   C767    1.425   .     A
C753   Br641   1.929   1_655 S
C753   C648    1.339   1_655 S
C755   C758    1.451   .     S
C755   C915    1.331   .     S
C755   H933    1.088   .     S
C756   C757    1.436   .     S
C757   O790    1.280   .     A
C757   O784    1.280   .     A
C758   O785    1.266   .     A
C758   O791    1.265   .     A
C759   C764    1.397   .     A
C759   Br268   1.924   1_556 S
C759   C288    1.385   1_556 S
C760   C763    1.454   .     S
C760   O780    1.279   .     A
C760   O782    1.271   .     A
C761   O781    1.278   .     A
C761   O783    1.294   .     A
C765   H778    1.076   .     S
C766   C767    1.421   .     A
C766   C288    1.412   1_556 S
C766   C291    1.422   1_556 S
C767   C771    1.420   .     A
C769   C770    1.407   .     A
C769   C285    1.409   1_556 S
C769   C291    1.424   1_556 S
C770   C771    1.400   .     A
H773   C648    1.086   1_655 S
H775   C915    1.086   .     S
H776   C285    1.080   1_556 S
O779   Zn795   1.924   .     S
O779   Zn792   1.962   .     S
O779   Zn793   1.950   .     S
O779   Zn794   1.924   .     S
O780   Zn793   1.920   .     S
O781   Zn795   1.937   .     S
O782   Zn794   1.933   .     S
O783   Zn792   1.918   .     S
O784   Zn792   1.930   .     S
O785   Zn795   1.930   .     S
O786   Zn793   1.924   .     S
O787   Zn794   1.941   .     S
O788   Zn795   1.937   .     S
O789   Zn792   1.922   .     S
O790   Zn793   1.936   .     S
O791   Zn794   1.930   .     S
Br796  C823    1.933   .     S
Br797  C817    1.934   .     S
Br799  C824    1.941   .     S
Br800  C912    1.929   1_455 S
C801   C807    1.439   .     S
C801   O839    1.271   .     A
C801   O841    1.269   .     A
C802   C821    1.413   .     A
C802   C816    1.389   .     A
C802   H830    1.077   .     S
C803   H825    1.084   .     S
C803   C816    1.393   .     A
C803   C815    1.390   .     A
C804   O840    1.279   .     A
C804   C806    1.459   .     S
C804   O842    1.278   .     A
C805   C814    1.486   .     S
C805   C817    1.423   .     A
C805   C820    1.425   .     A
C806   Br853   1.929   .     S
C806   C860    1.339   .     S
C807   C912    1.339   1_455 S
C807   H932    1.086   1_455 S
C808   C811    1.451   .     S
C808   C491    1.331   1_565 S
C808   H509    1.088   1_565 S
C809   C810    1.436   .     S
C810   O843    1.280   .     A
C810   O837    1.280   .     A
C811   O838    1.266   .     A
C811   O844    1.265   .     A
C812   C817    1.397   .     A
C812   Br321   1.924   1_556 S
C812   C341    1.385   1_556 S
C813   C816    1.454   .     S
C813   O833    1.279   .     A
C813   O835    1.271   .     A
C814   O834    1.278   .     A
C814   O836    1.294   .     A
C818   H831    1.076   .     S
C819   C820    1.421   .     A
C819   C341    1.412   1_556 S
C819   C344    1.422   1_556 S
C820   C824    1.420   .     A
C822   C823    1.407   .     A
C822   C338    1.409   1_556 S
C822   C344    1.424   1_556 S
C823   C824    1.400   .     A
H826   C860    1.086   .     S
H828   C491    1.086   1_565 S
H829   C338    1.080   1_556 S
O832   Zn848   1.924   .     S
O832   Zn845   1.962   .     S
O832   Zn846   1.950   .     S
O832   Zn847   1.924   .     S
O833   Zn846   1.920   .     S
O834   Zn848   1.937   .     S
O835   Zn847   1.933   .     S
O836   Zn845   1.918   .     S
O837   Zn845   1.930   .     S
O838   Zn848   1.930   .     S
O839   Zn846   1.924   .     S
O840   Zn847   1.941   .     S
O841   Zn848   1.937   .     S
O842   Zn845   1.922   .     S
O843   Zn846   1.936   .     S
O844   Zn847   1.930   .     S
Br849  C876    1.933   .     S
Br850  C870    1.934   .     S
Br852  C877    1.941   .     S
C854   C860    1.439   .     S
C854   O892    1.271   .     A
C854   O894    1.269   .     A
C855   C874    1.413   .     A
C855   C869    1.389   .     A
C855   H883    1.077   .     S
C856   H878    1.084   .     S
C856   C869    1.393   .     A
C856   C868    1.390   .     A
C857   O893    1.279   .     A
C857   C859    1.459   .     S
C857   O895    1.278   .     A
C858   C867    1.486   .     S
C858   C870    1.423   .     A
C858   C873    1.425   .     A
C859   Br906   1.929   .     S
C859   C913    1.339   .     S
C861   C864    1.451   .     S
C861   C544    1.331   1_565 S
C861   H562    1.088   1_565 S
C862   C863    1.436   .     S
C863   O896    1.280   .     A
C863   O890    1.280   .     A
C864   O891    1.266   .     A
C864   O897    1.265   .     A
C865   C870    1.397   .     A
C865   Br374   1.924   1_556 S
C865   C394    1.385   1_556 S
C866   C869    1.454   .     S
C866   O886    1.279   .     A
C866   O888    1.271   .     A
C867   O887    1.278   .     A
C867   O889    1.294   .     A
C871   H884    1.076   .     S
C872   C873    1.421   .     A
C872   C394    1.412   1_556 S
C872   C397    1.422   1_556 S
C873   C877    1.420   .     A
C875   C876    1.407   .     A
C875   C391    1.409   1_556 S
C875   C397    1.424   1_556 S
C876   C877    1.400   .     A
H879   C913    1.086   .     S
H881   C544    1.086   1_565 S
H882   C391    1.080   1_556 S
O885   Zn901   1.924   .     S
O885   Zn898   1.962   .     S
O885   Zn899   1.950   .     S
O885   Zn900   1.924   .     S
O886   Zn899   1.920   .     S
O887   Zn901   1.937   .     S
O888   Zn900   1.933   .     S
O889   Zn898   1.918   .     S
O890   Zn898   1.930   .     S
O891   Zn901   1.930   .     S
O892   Zn899   1.924   .     S
O893   Zn900   1.941   .     S
O894   Zn901   1.937   .     S
O895   Zn898   1.922   .     S
O896   Zn899   1.936   .     S
O897   Zn900   1.930   .     S
Br902  C929    1.933   .     S
Br903  C923    1.934   .     S
Br905  C930    1.941   .     S
C907   C913    1.439   .     S
C907   O945    1.271   .     A
C907   O947    1.269   .     A
C908   C927    1.413   .     A
C908   C922    1.389   .     A
C908   H936    1.077   .     S
C909   H931    1.084   .     S
C909   C922    1.393   .     A
C909   C921    1.390   .     A
C910   O946    1.279   .     A
C910   C912    1.459   .     S
C910   O948    1.278   .     A
C911   C920    1.486   .     S
C911   C923    1.423   .     A
C911   C926    1.425   .     A
C912   Br800   1.929   1_655 S
C912   C807    1.339   1_655 S
C914   C917    1.451   .     S
C914   C597    1.331   1_565 S
C914   H615    1.088   1_565 S
C915   C916    1.436   .     S
C916   O949    1.280   .     A
C916   O943    1.280   .     A
C917   O944    1.266   .     A
C917   O950    1.265   .     A
C918   C923    1.397   .     A
C918   Br427   1.924   1_556 S
C918   C447    1.385   1_556 S
C919   C922    1.454   .     S
C919   O939    1.279   .     A
C919   O941    1.271   .     A
C920   O940    1.278   .     A
C920   O942    1.294   .     A
C924   H937    1.076   .     S
C925   C926    1.421   .     A
C925   C447    1.412   1_556 S
C925   C450    1.422   1_556 S
C926   C930    1.420   .     A
C928   C929    1.407   .     A
C928   C444    1.409   1_556 S
C928   C450    1.424   1_556 S
C929   C930    1.400   .     A
H932   C807    1.086   1_655 S
H934   C597    1.086   1_565 S
H935   C444    1.080   1_556 S
O938   Zn954   1.924   .     S
O938   Zn951   1.962   .     S
O938   Zn952   1.950   .     S
O938   Zn953   1.924   .     S
O939   Zn952   1.920   .     S
O940   Zn954   1.937   .     S
O941   Zn953   1.933   .     S
O942   Zn951   1.918   .     S
O943   Zn951   1.930   .     S
O944   Zn954   1.930   .     S
O945   Zn952   1.924   .     S
O946   Zn953   1.941   .     S
O947   Zn954   1.937   .     S
O948   Zn951   1.922   .     S
O949   Zn952   1.936   .     S
O950   Zn953   1.930   .     S
