data_str_m1_o10_o16_pcu_sym.26
_audit_creation_date              2020-01-03
_audit_creation_method            'Materials Studio'
_symmetry_space_group_name_H-M    'P1'
_symmetry_Int_Tables_number       1
_symmetry_cell_setting            triclinic
loop_
_symmetry_equiv_pos_as_xyz
  x,y,z
_cell_length_a                    32.5114
_cell_length_b                    32.5124
_cell_length_c                    31.0685
_cell_angle_alpha                 96.3075
_cell_angle_beta                  74.6227
_cell_angle_gamma                 98.2750
loop_
_atom_site_label
_atom_site_type_symbol
_atom_site_fract_x
_atom_site_fract_y
_atom_site_fract_z
_atom_site_U_iso_or_equiv
_atom_site_adp_type
_atom_site_occupancy
Zn1    Zn    0.19338   0.13994   0.28734   0.00000  Uiso   1.00
Zn2    Zn    0.13379   0.12458   0.21875   0.00000  Uiso   1.00
Zn3    Zn    0.21056   0.19775   0.20657   0.00000  Uiso   1.00
Zn4    Zn    0.12893   0.20439   0.28733   0.00000  Uiso   1.00
O5     O     0.16667   0.16667   0.25000   0.00000  Uiso   1.00
O6     O     0.07071   0.18878   0.28213   0.00000  Uiso   1.00
O7     O     0.25491   0.15226   0.27013   0.00000  Uiso   1.00
O8     O     0.13760   0.06944   0.23413   0.00000  Uiso   1.00
O9     O     0.20345   0.25620   0.21360   0.00000  Uiso   1.00
O10    O     0.15451   0.12637   0.15458   0.00000  Uiso   1.00
O11    O     0.12940   0.20391   0.34968   0.00000  Uiso   1.00
O12    O     0.20824   0.17759   0.14606   0.00000  Uiso   1.00
O13    O     0.17451   0.15880   0.34968   0.00000  Uiso   1.00
O14    O     0.17930   0.08019   0.28213   0.00000  Uiso   1.00
O15    O     0.14632   0.26085   0.27013   0.00000  Uiso   1.00
O16    O     0.07412   0.13291   0.23413   0.00000  Uiso   1.00
O17    O     0.26693   0.19272   0.21360   0.00000  Uiso   1.00
C18    C     0.05274   0.15972   0.26010   0.00000  Uiso   1.00
C19    C     0.28080   0.17378   0.23997   0.00000  Uiso   1.00
C20    C     0.15619   0.05590   0.26025   0.00000  Uiso   1.00
C21    C     0.17658   0.27793   0.24017   0.00000  Uiso   1.00
C22    C     0.18549   0.14818   0.12945   0.00000  Uiso   1.00
C23    C     0.14890   0.18517   0.37119   0.00000  Uiso   1.00
C24    C     0.24327   0.12591   0.00936   0.00000  Uiso   1.00
H25    H     0.26469   0.14581   0.42530   0.00000  Uiso   1.00
H26    H     0.27319   0.11548   0.48939   0.00000  Uiso   1.00
C27    C     0.19454   0.14056   0.08114   0.00000  Uiso   1.00
C28    C     0.09774   0.20250   0.44580   0.00000  Uiso   1.00
C29    C     0.08117   0.19373   0.49076   0.00000  Uiso   1.00
C30    C     0.10447   0.17277   0.01178   0.00000  Uiso   1.00
C31    C     0.14835   0.16784   0.49066   0.00000  Uiso   1.00
C32    C     0.16480   0.17617   0.44480   0.00000  Uiso   1.00
C33    C     0.17658   0.15456   0.01326   0.00000  Uiso   1.00
C34    C     0.21709   0.14308   0.48849   0.00000  Uiso   1.00
C35    C     0.23249   0.15158   0.44382   0.00000  Uiso   1.00
C36    C     0.20799   0.17058   0.42339   0.00000  Uiso   1.00
C37    C     0.16780   0.15607   0.06007   0.00000  Uiso   1.00
C38    C     0.23173   0.12315   0.05582   0.00000  Uiso   1.00
C39    C     0.13791   0.18979   0.42121   0.00000  Uiso   1.00
H40    H     0.14212   0.17232   0.08105   0.00000  Uiso   1.00
H41    H     0.22383   0.18115   0.39066   0.00000  Uiso   1.00
C42    C     0.32670   0.17627   0.23571   0.00000  Uiso   1.00
H43    H     0.01581   0.19337   0.20925   0.00000  Uiso   1.00
C44    C     0.00743   0.15751   0.26422   0.00000  Uiso   1.00
H45    H     0.31899   0.14063   0.29122   0.00000  Uiso   1.00
C46    C     0.18039   0.32248   0.23639   0.00000  Uiso   1.00
H47    H     0.20654   0.00360   0.21082   0.00000  Uiso   1.00
C48    C     0.15202   0.01183   0.26412   0.00000  Uiso   1.00
H49    H     0.12560   0.33151   0.28991   0.00000  Uiso   1.00
N50    N     0.25841   0.10392   0.07642   0.00000  Uiso   1.00
O51    O     0.24437   0.09286   0.11728   0.00000  Uiso   1.00
O52    O     0.29522   0.09303   0.05278   0.00000  Uiso   1.00
C53    C     0.07076   0.22109   0.42479   0.00000  Uiso   1.00
N54    N     0.04909   0.23594   0.40820   0.00000  Uiso   1.00
N55    N     0.08179   0.15286   0.05186   0.00000  Uiso   1.00
O56    O     0.08205   0.11309   0.05359   0.00000  Uiso   1.00
O57    O     0.05972   0.17395   0.08613   0.00000  Uiso   1.00
N58    N     0.03862   0.20280   0.01397   0.00000  Uiso   1.00
O59    O     0.02997   0.24118   0.02113   0.00000  Uiso   1.00
O60    O     0.00763   0.17262   0.02396   0.00000  Uiso   1.00
Zn61   Zn    0.52672   0.13994   0.28734   0.00000  Uiso   1.00
Zn62   Zn    0.46713   0.12458   0.21875   0.00000  Uiso   1.00
Zn63   Zn    0.54389   0.19775   0.20657   0.00000  Uiso   1.00
Zn64   Zn    0.46226   0.20439   0.28733   0.00000  Uiso   1.00
O65    O     0.50000   0.16667   0.25000   0.00000  Uiso   1.00
O66    O     0.40405   0.18878   0.28213   0.00000  Uiso   1.00
O67    O     0.58824   0.15226   0.27013   0.00000  Uiso   1.00
O68    O     0.47093   0.06944   0.23413   0.00000  Uiso   1.00
O69    O     0.53678   0.25620   0.21360   0.00000  Uiso   1.00
O70    O     0.48784   0.12637   0.15458   0.00000  Uiso   1.00
O71    O     0.46274   0.20391   0.34968   0.00000  Uiso   1.00
O72    O     0.54157   0.17759   0.14606   0.00000  Uiso   1.00
O73    O     0.50785   0.15880   0.34968   0.00000  Uiso   1.00
O74    O     0.51264   0.08019   0.28213   0.00000  Uiso   1.00
O75    O     0.47965   0.26085   0.27013   0.00000  Uiso   1.00
O76    O     0.40745   0.13291   0.23413   0.00000  Uiso   1.00
O77    O     0.60026   0.19272   0.21360   0.00000  Uiso   1.00
C78    C     0.38608   0.15972   0.26010   0.00000  Uiso   1.00
C79    C     0.61414   0.17378   0.23997   0.00000  Uiso   1.00
C80    C     0.48952   0.05590   0.26025   0.00000  Uiso   1.00
C81    C     0.50991   0.27793   0.24017   0.00000  Uiso   1.00
C82    C     0.51883   0.14818   0.12945   0.00000  Uiso   1.00
C83    C     0.48224   0.18517   0.37119   0.00000  Uiso   1.00
C84    C     0.57660   0.12591   0.00936   0.00000  Uiso   1.00
H85    H     0.59803   0.14581   0.42530   0.00000  Uiso   1.00
H86    H     0.60652   0.11548   0.48939   0.00000  Uiso   1.00
C87    C     0.52787   0.14056   0.08114   0.00000  Uiso   1.00
C88    C     0.43107   0.20250   0.44580   0.00000  Uiso   1.00
C89    C     0.41450   0.19373   0.49076   0.00000  Uiso   1.00
C90    C     0.43780   0.17277   0.01178   0.00000  Uiso   1.00
C91    C     0.48168   0.16784   0.49066   0.00000  Uiso   1.00
C92    C     0.49813   0.17617   0.44480   0.00000  Uiso   1.00
C93    C     0.50992   0.15456   0.01326   0.00000  Uiso   1.00
C94    C     0.55043   0.14308   0.48849   0.00000  Uiso   1.00
C95    C     0.56583   0.15158   0.44382   0.00000  Uiso   1.00
C96    C     0.54132   0.17058   0.42339   0.00000  Uiso   1.00
C97    C     0.50113   0.15607   0.06007   0.00000  Uiso   1.00
C98    C     0.56506   0.12315   0.05582   0.00000  Uiso   1.00
C99    C     0.47124   0.18979   0.42121   0.00000  Uiso   1.00
H100   H     0.47545   0.17232   0.08105   0.00000  Uiso   1.00
H101   H     0.55716   0.18115   0.39066   0.00000  Uiso   1.00
C102   C     0.66003   0.17627   0.23571   0.00000  Uiso   1.00
H103   H     0.34914   0.19337   0.20925   0.00000  Uiso   1.00
C104   C     0.34077   0.15751   0.26422   0.00000  Uiso   1.00
H105   H     0.65232   0.14063   0.29122   0.00000  Uiso   1.00
C106   C     0.51372   0.32248   0.23639   0.00000  Uiso   1.00
H107   H     0.53987   0.00360   0.21082   0.00000  Uiso   1.00
C108   C     0.48536   0.01183   0.26412   0.00000  Uiso   1.00
H109   H     0.45893   0.33151   0.28991   0.00000  Uiso   1.00
N110   N     0.59175   0.10392   0.07642   0.00000  Uiso   1.00
O111   O     0.57770   0.09286   0.11728   0.00000  Uiso   1.00
O112   O     0.62856   0.09303   0.05278   0.00000  Uiso   1.00
C113   C     0.40409   0.22109   0.42479   0.00000  Uiso   1.00
N114   N     0.38242   0.23594   0.40820   0.00000  Uiso   1.00
N115   N     0.41513   0.15286   0.05186   0.00000  Uiso   1.00
O116   O     0.41538   0.11309   0.05359   0.00000  Uiso   1.00
O117   O     0.39305   0.17395   0.08613   0.00000  Uiso   1.00
N118   N     0.37196   0.20280   0.01397   0.00000  Uiso   1.00
O119   O     0.36331   0.24118   0.02113   0.00000  Uiso   1.00
O120   O     0.34096   0.17262   0.02396   0.00000  Uiso   1.00
Zn121  Zn    0.86005   0.13994   0.28734   0.00000  Uiso   1.00
Zn122  Zn    0.80046   0.12458   0.21875   0.00000  Uiso   1.00
Zn123  Zn    0.87723   0.19775   0.20657   0.00000  Uiso   1.00
Zn124  Zn    0.79560   0.20439   0.28733   0.00000  Uiso   1.00
O125   O     0.83333   0.16667   0.25000   0.00000  Uiso   1.00
O126   O     0.73738   0.18878   0.28213   0.00000  Uiso   1.00
O127   O     0.92158   0.15226   0.27013   0.00000  Uiso   1.00
O128   O     0.80426   0.06944   0.23413   0.00000  Uiso   1.00
O129   O     0.87012   0.25620   0.21360   0.00000  Uiso   1.00
O130   O     0.82118   0.12637   0.15458   0.00000  Uiso   1.00
O131   O     0.79607   0.20391   0.34968   0.00000  Uiso   1.00
O132   O     0.87491   0.17759   0.14606   0.00000  Uiso   1.00
O133   O     0.84118   0.15880   0.34968   0.00000  Uiso   1.00
O134   O     0.84597   0.08019   0.28213   0.00000  Uiso   1.00
O135   O     0.81298   0.26085   0.27013   0.00000  Uiso   1.00
O136   O     0.74078   0.13291   0.23413   0.00000  Uiso   1.00
O137   O     0.93360   0.19272   0.21360   0.00000  Uiso   1.00
C138   C     0.71941   0.15972   0.26010   0.00000  Uiso   1.00
C139   C     0.94747   0.17378   0.23997   0.00000  Uiso   1.00
C140   C     0.82286   0.05590   0.26025   0.00000  Uiso   1.00
C141   C     0.84324   0.27793   0.24017   0.00000  Uiso   1.00
C142   C     0.85216   0.14818   0.12945   0.00000  Uiso   1.00
C143   C     0.81557   0.18517   0.37119   0.00000  Uiso   1.00
C144   C     0.90994   0.12591   0.00936   0.00000  Uiso   1.00
H145   H     0.93136   0.14581   0.42530   0.00000  Uiso   1.00
H146   H     0.93985   0.11548   0.48939   0.00000  Uiso   1.00
C147   C     0.86120   0.14056   0.08114   0.00000  Uiso   1.00
C148   C     0.76440   0.20250   0.44580   0.00000  Uiso   1.00
C149   C     0.74784   0.19373   0.49076   0.00000  Uiso   1.00
C150   C     0.77114   0.17277   0.01178   0.00000  Uiso   1.00
C151   C     0.81502   0.16784   0.49066   0.00000  Uiso   1.00
C152   C     0.83147   0.17617   0.44480   0.00000  Uiso   1.00
C153   C     0.84325   0.15456   0.01326   0.00000  Uiso   1.00
C154   C     0.88376   0.14308   0.48849   0.00000  Uiso   1.00
C155   C     0.89916   0.15158   0.44382   0.00000  Uiso   1.00
C156   C     0.87465   0.17058   0.42339   0.00000  Uiso   1.00
C157   C     0.83447   0.15607   0.06007   0.00000  Uiso   1.00
C158   C     0.89840   0.12315   0.05582   0.00000  Uiso   1.00
C159   C     0.80457   0.18979   0.42121   0.00000  Uiso   1.00
H160   H     0.80878   0.17232   0.08105   0.00000  Uiso   1.00
H161   H     0.89049   0.18115   0.39066   0.00000  Uiso   1.00
C162   C     0.99337   0.17627   0.23571   0.00000  Uiso   1.00
H163   H     0.68248   0.19337   0.20925   0.00000  Uiso   1.00
C164   C     0.67410   0.15751   0.26422   0.00000  Uiso   1.00
H165   H     0.98566   0.14063   0.29122   0.00000  Uiso   1.00
C166   C     0.84706   0.32248   0.23639   0.00000  Uiso   1.00
H167   H     0.87321   0.00360   0.21082   0.00000  Uiso   1.00
C168   C     0.81869   0.01183   0.26412   0.00000  Uiso   1.00
H169   H     0.79227   0.33151   0.28991   0.00000  Uiso   1.00
N170   N     0.92508   0.10392   0.07642   0.00000  Uiso   1.00
O171   O     0.91104   0.09286   0.11728   0.00000  Uiso   1.00
O172   O     0.96189   0.09303   0.05278   0.00000  Uiso   1.00
C173   C     0.73743   0.22109   0.42479   0.00000  Uiso   1.00
N174   N     0.71576   0.23594   0.40820   0.00000  Uiso   1.00
N175   N     0.74846   0.15286   0.05186   0.00000  Uiso   1.00
O176   O     0.74871   0.11309   0.05359   0.00000  Uiso   1.00
O177   O     0.72639   0.17395   0.08613   0.00000  Uiso   1.00
N178   N     0.70529   0.20280   0.01397   0.00000  Uiso   1.00
O179   O     0.69664   0.24118   0.02113   0.00000  Uiso   1.00
O180   O     0.67430   0.17262   0.02396   0.00000  Uiso   1.00
Zn181  Zn    0.19338   0.47327   0.28734   0.00000  Uiso   1.00
Zn182  Zn    0.13379   0.45791   0.21875   0.00000  Uiso   1.00
Zn183  Zn    0.21056   0.53109   0.20657   0.00000  Uiso   1.00
Zn184  Zn    0.12893   0.53773   0.28733   0.00000  Uiso   1.00
O185   O     0.16667   0.50000   0.25000   0.00000  Uiso   1.00
O186   O     0.07071   0.52211   0.28213   0.00000  Uiso   1.00
O187   O     0.25491   0.48559   0.27013   0.00000  Uiso   1.00
O188   O     0.13760   0.40277   0.23413   0.00000  Uiso   1.00
O189   O     0.20345   0.58953   0.21360   0.00000  Uiso   1.00
O190   O     0.15451   0.45970   0.15458   0.00000  Uiso   1.00
O191   O     0.12940   0.53724   0.34968   0.00000  Uiso   1.00
O192   O     0.20824   0.51092   0.14606   0.00000  Uiso   1.00
O193   O     0.17451   0.49213   0.34968   0.00000  Uiso   1.00
O194   O     0.17930   0.41352   0.28213   0.00000  Uiso   1.00
O195   O     0.14632   0.59418   0.27013   0.00000  Uiso   1.00
O196   O     0.07412   0.46625   0.23413   0.00000  Uiso   1.00
O197   O     0.26693   0.52605   0.21360   0.00000  Uiso   1.00
C198   C     0.05274   0.49305   0.26010   0.00000  Uiso   1.00
C199   C     0.28080   0.50712   0.23997   0.00000  Uiso   1.00
C200   C     0.15619   0.38924   0.26025   0.00000  Uiso   1.00
C201   C     0.17658   0.61126   0.24017   0.00000  Uiso   1.00
C202   C     0.18549   0.48151   0.12945   0.00000  Uiso   1.00
C203   C     0.14890   0.51850   0.37119   0.00000  Uiso   1.00
C204   C     0.24327   0.45924   0.00936   0.00000  Uiso   1.00
H205   H     0.26469   0.47914   0.42530   0.00000  Uiso   1.00
H206   H     0.27319   0.44881   0.48939   0.00000  Uiso   1.00
C207   C     0.19454   0.47390   0.08114   0.00000  Uiso   1.00
C208   C     0.09774   0.53584   0.44580   0.00000  Uiso   1.00
C209   C     0.08117   0.52707   0.49076   0.00000  Uiso   1.00
C210   C     0.10447   0.50610   0.01178   0.00000  Uiso   1.00
C211   C     0.14835   0.50117   0.49066   0.00000  Uiso   1.00
C212   C     0.16480   0.50950   0.44480   0.00000  Uiso   1.00
C213   C     0.17658   0.48789   0.01326   0.00000  Uiso   1.00
C214   C     0.21709   0.47641   0.48849   0.00000  Uiso   1.00
C215   C     0.23249   0.48492   0.44382   0.00000  Uiso   1.00
C216   C     0.20799   0.50391   0.42339   0.00000  Uiso   1.00
C217   C     0.16780   0.48940   0.06007   0.00000  Uiso   1.00
C218   C     0.23173   0.45648   0.05582   0.00000  Uiso   1.00
C219   C     0.13791   0.52313   0.42121   0.00000  Uiso   1.00
H220   H     0.14212   0.50566   0.08105   0.00000  Uiso   1.00
H221   H     0.22383   0.51449   0.39066   0.00000  Uiso   1.00
C222   C     0.32670   0.50960   0.23571   0.00000  Uiso   1.00
H223   H     0.01581   0.52671   0.20925   0.00000  Uiso   1.00
C224   C     0.00743   0.49084   0.26422   0.00000  Uiso   1.00
H225   H     0.31899   0.47397   0.29122   0.00000  Uiso   1.00
C226   C     0.18039   0.65581   0.23639   0.00000  Uiso   1.00
H227   H     0.20654   0.33693   0.21082   0.00000  Uiso   1.00
C228   C     0.15202   0.34516   0.26412   0.00000  Uiso   1.00
H229   H     0.12560   0.66485   0.28991   0.00000  Uiso   1.00
N230   N     0.25841   0.43725   0.07642   0.00000  Uiso   1.00
O231   O     0.24437   0.42619   0.11728   0.00000  Uiso   1.00
O232   O     0.29522   0.42636   0.05278   0.00000  Uiso   1.00
C233   C     0.07076   0.55443   0.42479   0.00000  Uiso   1.00
N234   N     0.04909   0.56927   0.40820   0.00000  Uiso   1.00
N235   N     0.08179   0.48619   0.05186   0.00000  Uiso   1.00
O236   O     0.08205   0.44642   0.05359   0.00000  Uiso   1.00
O237   O     0.05972   0.50729   0.08613   0.00000  Uiso   1.00
N238   N     0.03862   0.53613   0.01397   0.00000  Uiso   1.00
O239   O     0.02997   0.57451   0.02113   0.00000  Uiso   1.00
O240   O     0.00763   0.50596   0.02396   0.00000  Uiso   1.00
Zn241  Zn    0.52672   0.47327   0.28734   0.00000  Uiso   1.00
Zn242  Zn    0.46713   0.45791   0.21875   0.00000  Uiso   1.00
Zn243  Zn    0.54389   0.53109   0.20657   0.00000  Uiso   1.00
Zn244  Zn    0.46226   0.53773   0.28733   0.00000  Uiso   1.00
O245   O     0.50000   0.50000   0.25000   0.00000  Uiso   1.00
O246   O     0.40405   0.52211   0.28213   0.00000  Uiso   1.00
O247   O     0.58824   0.48559   0.27013   0.00000  Uiso   1.00
O248   O     0.47093   0.40277   0.23413   0.00000  Uiso   1.00
O249   O     0.53678   0.58953   0.21360   0.00000  Uiso   1.00
O250   O     0.48784   0.45970   0.15458   0.00000  Uiso   1.00
O251   O     0.46274   0.53724   0.34968   0.00000  Uiso   1.00
O252   O     0.54157   0.51092   0.14606   0.00000  Uiso   1.00
O253   O     0.50785   0.49213   0.34968   0.00000  Uiso   1.00
O254   O     0.51264   0.41352   0.28213   0.00000  Uiso   1.00
O255   O     0.47965   0.59418   0.27013   0.00000  Uiso   1.00
O256   O     0.40745   0.46625   0.23413   0.00000  Uiso   1.00
O257   O     0.60026   0.52605   0.21360   0.00000  Uiso   1.00
C258   C     0.38608   0.49305   0.26010   0.00000  Uiso   1.00
C259   C     0.61414   0.50712   0.23997   0.00000  Uiso   1.00
C260   C     0.48952   0.38924   0.26025   0.00000  Uiso   1.00
C261   C     0.50991   0.61126   0.24017   0.00000  Uiso   1.00
C262   C     0.51883   0.48151   0.12945   0.00000  Uiso   1.00
C263   C     0.48224   0.51850   0.37119   0.00000  Uiso   1.00
C264   C     0.57660   0.45924   0.00936   0.00000  Uiso   1.00
H265   H     0.59803   0.47914   0.42530   0.00000  Uiso   1.00
H266   H     0.60652   0.44881   0.48939   0.00000  Uiso   1.00
C267   C     0.52787   0.47390   0.08114   0.00000  Uiso   1.00
C268   C     0.43107   0.53584   0.44580   0.00000  Uiso   1.00
C269   C     0.41450   0.52707   0.49076   0.00000  Uiso   1.00
C270   C     0.43780   0.50610   0.01178   0.00000  Uiso   1.00
C271   C     0.48168   0.50117   0.49066   0.00000  Uiso   1.00
C272   C     0.49813   0.50950   0.44480   0.00000  Uiso   1.00
C273   C     0.50992   0.48789   0.01326   0.00000  Uiso   1.00
C274   C     0.55043   0.47641   0.48849   0.00000  Uiso   1.00
C275   C     0.56583   0.48492   0.44382   0.00000  Uiso   1.00
C276   C     0.54132   0.50391   0.42339   0.00000  Uiso   1.00
C277   C     0.50113   0.48940   0.06007   0.00000  Uiso   1.00
C278   C     0.56506   0.45648   0.05582   0.00000  Uiso   1.00
C279   C     0.47124   0.52313   0.42121   0.00000  Uiso   1.00
H280   H     0.47545   0.50566   0.08105   0.00000  Uiso   1.00
H281   H     0.55716   0.51449   0.39066   0.00000  Uiso   1.00
C282   C     0.66003   0.50960   0.23571   0.00000  Uiso   1.00
H283   H     0.34914   0.52671   0.20925   0.00000  Uiso   1.00
C284   C     0.34077   0.49084   0.26422   0.00000  Uiso   1.00
H285   H     0.65232   0.47397   0.29122   0.00000  Uiso   1.00
C286   C     0.51372   0.65581   0.23639   0.00000  Uiso   1.00
H287   H     0.53987   0.33693   0.21082   0.00000  Uiso   1.00
C288   C     0.48536   0.34516   0.26412   0.00000  Uiso   1.00
H289   H     0.45893   0.66485   0.28991   0.00000  Uiso   1.00
N290   N     0.59175   0.43725   0.07642   0.00000  Uiso   1.00
O291   O     0.57770   0.42619   0.11728   0.00000  Uiso   1.00
O292   O     0.62856   0.42636   0.05278   0.00000  Uiso   1.00
C293   C     0.40409   0.55443   0.42479   0.00000  Uiso   1.00
N294   N     0.38242   0.56927   0.40820   0.00000  Uiso   1.00
N295   N     0.41513   0.48619   0.05186   0.00000  Uiso   1.00
O296   O     0.41538   0.44642   0.05359   0.00000  Uiso   1.00
O297   O     0.39305   0.50729   0.08613   0.00000  Uiso   1.00
N298   N     0.37196   0.53613   0.01397   0.00000  Uiso   1.00
O299   O     0.36331   0.57451   0.02113   0.00000  Uiso   1.00
O300   O     0.34096   0.50596   0.02396   0.00000  Uiso   1.00
Zn301  Zn    0.86005   0.47327   0.28734   0.00000  Uiso   1.00
Zn302  Zn    0.80046   0.45791   0.21875   0.00000  Uiso   1.00
Zn303  Zn    0.87723   0.53109   0.20657   0.00000  Uiso   1.00
Zn304  Zn    0.79560   0.53773   0.28733   0.00000  Uiso   1.00
O305   O     0.83333   0.50000   0.25000   0.00000  Uiso   1.00
O306   O     0.73738   0.52211   0.28213   0.00000  Uiso   1.00
O307   O     0.92158   0.48559   0.27013   0.00000  Uiso   1.00
O308   O     0.80426   0.40277   0.23413   0.00000  Uiso   1.00
O309   O     0.87012   0.58953   0.21360   0.00000  Uiso   1.00
O310   O     0.82118   0.45970   0.15458   0.00000  Uiso   1.00
O311   O     0.79607   0.53724   0.34968   0.00000  Uiso   1.00
O312   O     0.87491   0.51092   0.14606   0.00000  Uiso   1.00
O313   O     0.84118   0.49213   0.34968   0.00000  Uiso   1.00
O314   O     0.84597   0.41352   0.28213   0.00000  Uiso   1.00
O315   O     0.81298   0.59418   0.27013   0.00000  Uiso   1.00
O316   O     0.74078   0.46625   0.23413   0.00000  Uiso   1.00
O317   O     0.93360   0.52605   0.21360   0.00000  Uiso   1.00
C318   C     0.71941   0.49305   0.26010   0.00000  Uiso   1.00
C319   C     0.94747   0.50712   0.23997   0.00000  Uiso   1.00
C320   C     0.82286   0.38924   0.26025   0.00000  Uiso   1.00
C321   C     0.84324   0.61126   0.24017   0.00000  Uiso   1.00
C322   C     0.85216   0.48151   0.12945   0.00000  Uiso   1.00
C323   C     0.81557   0.51850   0.37119   0.00000  Uiso   1.00
C324   C     0.90994   0.45924   0.00936   0.00000  Uiso   1.00
H325   H     0.93136   0.47914   0.42530   0.00000  Uiso   1.00
H326   H     0.93985   0.44881   0.48939   0.00000  Uiso   1.00
C327   C     0.86120   0.47390   0.08114   0.00000  Uiso   1.00
C328   C     0.76440   0.53584   0.44580   0.00000  Uiso   1.00
C329   C     0.74784   0.52707   0.49076   0.00000  Uiso   1.00
C330   C     0.77114   0.50610   0.01178   0.00000  Uiso   1.00
C331   C     0.81502   0.50117   0.49066   0.00000  Uiso   1.00
C332   C     0.83147   0.50950   0.44480   0.00000  Uiso   1.00
C333   C     0.84325   0.48789   0.01326   0.00000  Uiso   1.00
C334   C     0.88376   0.47641   0.48849   0.00000  Uiso   1.00
C335   C     0.89916   0.48492   0.44382   0.00000  Uiso   1.00
C336   C     0.87465   0.50391   0.42339   0.00000  Uiso   1.00
C337   C     0.83447   0.48940   0.06007   0.00000  Uiso   1.00
C338   C     0.89840   0.45648   0.05582   0.00000  Uiso   1.00
C339   C     0.80457   0.52313   0.42121   0.00000  Uiso   1.00
H340   H     0.80878   0.50566   0.08105   0.00000  Uiso   1.00
H341   H     0.89049   0.51449   0.39066   0.00000  Uiso   1.00
C342   C     0.99337   0.50960   0.23571   0.00000  Uiso   1.00
H343   H     0.68248   0.52671   0.20925   0.00000  Uiso   1.00
C344   C     0.67410   0.49084   0.26422   0.00000  Uiso   1.00
H345   H     0.98566   0.47397   0.29122   0.00000  Uiso   1.00
C346   C     0.84706   0.65581   0.23639   0.00000  Uiso   1.00
H347   H     0.87321   0.33693   0.21082   0.00000  Uiso   1.00
C348   C     0.81869   0.34516   0.26412   0.00000  Uiso   1.00
H349   H     0.79227   0.66485   0.28991   0.00000  Uiso   1.00
N350   N     0.92508   0.43725   0.07642   0.00000  Uiso   1.00
O351   O     0.91104   0.42619   0.11728   0.00000  Uiso   1.00
O352   O     0.96189   0.42636   0.05278   0.00000  Uiso   1.00
C353   C     0.73743   0.55443   0.42479   0.00000  Uiso   1.00
N354   N     0.71576   0.56927   0.40820   0.00000  Uiso   1.00
N355   N     0.74846   0.48619   0.05186   0.00000  Uiso   1.00
O356   O     0.74871   0.44642   0.05359   0.00000  Uiso   1.00
O357   O     0.72639   0.50729   0.08613   0.00000  Uiso   1.00
N358   N     0.70529   0.53613   0.01397   0.00000  Uiso   1.00
O359   O     0.69664   0.57451   0.02113   0.00000  Uiso   1.00
O360   O     0.67430   0.50596   0.02396   0.00000  Uiso   1.00
Zn361  Zn    0.19338   0.80661   0.28734   0.00000  Uiso   1.00
Zn362  Zn    0.13379   0.79124   0.21875   0.00000  Uiso   1.00
Zn363  Zn    0.21056   0.86442   0.20657   0.00000  Uiso   1.00
Zn364  Zn    0.12893   0.87106   0.28733   0.00000  Uiso   1.00
O365   O     0.16667   0.83333   0.25000   0.00000  Uiso   1.00
O366   O     0.07071   0.85544   0.28213   0.00000  Uiso   1.00
O367   O     0.25491   0.81892   0.27013   0.00000  Uiso   1.00
O368   O     0.13760   0.73610   0.23413   0.00000  Uiso   1.00
O369   O     0.20345   0.92286   0.21360   0.00000  Uiso   1.00
O370   O     0.15451   0.79304   0.15458   0.00000  Uiso   1.00
O371   O     0.12940   0.87058   0.34968   0.00000  Uiso   1.00
O372   O     0.20824   0.84425   0.14606   0.00000  Uiso   1.00
O373   O     0.17451   0.82546   0.34968   0.00000  Uiso   1.00
O374   O     0.17930   0.74686   0.28213   0.00000  Uiso   1.00
O375   O     0.14632   0.92751   0.27013   0.00000  Uiso   1.00
O376   O     0.07412   0.79958   0.23413   0.00000  Uiso   1.00
O377   O     0.26693   0.85939   0.21360   0.00000  Uiso   1.00
C378   C     0.05274   0.82638   0.26010   0.00000  Uiso   1.00
C379   C     0.28080   0.84045   0.23997   0.00000  Uiso   1.00
C380   C     0.15619   0.72257   0.26025   0.00000  Uiso   1.00
C381   C     0.17658   0.94460   0.24017   0.00000  Uiso   1.00
C382   C     0.18549   0.81484   0.12945   0.00000  Uiso   1.00
C383   C     0.14890   0.85184   0.37119   0.00000  Uiso   1.00
C384   C     0.24327   0.79257   0.00936   0.00000  Uiso   1.00
H385   H     0.26469   0.81247   0.42530   0.00000  Uiso   1.00
H386   H     0.27319   0.78214   0.48939   0.00000  Uiso   1.00
C387   C     0.19454   0.80723   0.08114   0.00000  Uiso   1.00
C388   C     0.09774   0.86917   0.44580   0.00000  Uiso   1.00
C389   C     0.08117   0.86040   0.49076   0.00000  Uiso   1.00
C390   C     0.10447   0.83943   0.01178   0.00000  Uiso   1.00
C391   C     0.14835   0.83451   0.49066   0.00000  Uiso   1.00
C392   C     0.16480   0.84284   0.44480   0.00000  Uiso   1.00
C393   C     0.17658   0.82123   0.01326   0.00000  Uiso   1.00
C394   C     0.21709   0.80974   0.48849   0.00000  Uiso   1.00
C395   C     0.23249   0.81825   0.44382   0.00000  Uiso   1.00
C396   C     0.20799   0.83725   0.42339   0.00000  Uiso   1.00
C397   C     0.16780   0.82274   0.06007   0.00000  Uiso   1.00
C398   C     0.23173   0.78982   0.05582   0.00000  Uiso   1.00
C399   C     0.13791   0.85646   0.42121   0.00000  Uiso   1.00
H400   H     0.14212   0.83899   0.08105   0.00000  Uiso   1.00
H401   H     0.22383   0.84782   0.39066   0.00000  Uiso   1.00
C402   C     0.32670   0.84293   0.23571   0.00000  Uiso   1.00
H403   H     0.01581   0.86004   0.20925   0.00000  Uiso   1.00
C404   C     0.00743   0.82417   0.26422   0.00000  Uiso   1.00
H405   H     0.31899   0.80730   0.29122   0.00000  Uiso   1.00
C406   C     0.18039   0.98914   0.23639   0.00000  Uiso   1.00
H407   H     0.20654   0.67027   0.21082   0.00000  Uiso   1.00
C408   C     0.15202   0.67850   0.26412   0.00000  Uiso   1.00
H409   H     0.12560   0.99818   0.28991   0.00000  Uiso   1.00
N410   N     0.25841   0.77058   0.07642   0.00000  Uiso   1.00
O411   O     0.24437   0.75953   0.11728   0.00000  Uiso   1.00
O412   O     0.29522   0.75970   0.05278   0.00000  Uiso   1.00
C413   C     0.07076   0.88776   0.42479   0.00000  Uiso   1.00
N414   N     0.04909   0.90260   0.40820   0.00000  Uiso   1.00
N415   N     0.08179   0.81953   0.05186   0.00000  Uiso   1.00
O416   O     0.08205   0.77976   0.05359   0.00000  Uiso   1.00
O417   O     0.05972   0.84062   0.08613   0.00000  Uiso   1.00
N418   N     0.03862   0.86946   0.01397   0.00000  Uiso   1.00
O419   O     0.02997   0.90784   0.02113   0.00000  Uiso   1.00
O420   O     0.00763   0.83929   0.02396   0.00000  Uiso   1.00
Zn421  Zn    0.52672   0.80661   0.28734   0.00000  Uiso   1.00
Zn422  Zn    0.46713   0.79124   0.21875   0.00000  Uiso   1.00
Zn423  Zn    0.54389   0.86442   0.20657   0.00000  Uiso   1.00
Zn424  Zn    0.46226   0.87106   0.28733   0.00000  Uiso   1.00
O425   O     0.50000   0.83333   0.25000   0.00000  Uiso   1.00
O426   O     0.40405   0.85544   0.28213   0.00000  Uiso   1.00
O427   O     0.58824   0.81892   0.27013   0.00000  Uiso   1.00
O428   O     0.47093   0.73610   0.23413   0.00000  Uiso   1.00
O429   O     0.53678   0.92286   0.21360   0.00000  Uiso   1.00
O430   O     0.48784   0.79304   0.15458   0.00000  Uiso   1.00
O431   O     0.46274   0.87058   0.34968   0.00000  Uiso   1.00
O432   O     0.54157   0.84425   0.14606   0.00000  Uiso   1.00
O433   O     0.50785   0.82546   0.34968   0.00000  Uiso   1.00
O434   O     0.51264   0.74686   0.28213   0.00000  Uiso   1.00
O435   O     0.47965   0.92751   0.27013   0.00000  Uiso   1.00
O436   O     0.40745   0.79958   0.23413   0.00000  Uiso   1.00
O437   O     0.60026   0.85939   0.21360   0.00000  Uiso   1.00
C438   C     0.38608   0.82638   0.26010   0.00000  Uiso   1.00
C439   C     0.61414   0.84045   0.23997   0.00000  Uiso   1.00
C440   C     0.48952   0.72257   0.26025   0.00000  Uiso   1.00
C441   C     0.50991   0.94460   0.24017   0.00000  Uiso   1.00
C442   C     0.51883   0.81484   0.12945   0.00000  Uiso   1.00
C443   C     0.48224   0.85184   0.37119   0.00000  Uiso   1.00
C444   C     0.57660   0.79257   0.00936   0.00000  Uiso   1.00
H445   H     0.59803   0.81247   0.42530   0.00000  Uiso   1.00
H446   H     0.60652   0.78214   0.48939   0.00000  Uiso   1.00
C447   C     0.52787   0.80723   0.08114   0.00000  Uiso   1.00
C448   C     0.43107   0.86917   0.44580   0.00000  Uiso   1.00
C449   C     0.41450   0.86040   0.49076   0.00000  Uiso   1.00
C450   C     0.43780   0.83943   0.01178   0.00000  Uiso   1.00
C451   C     0.48168   0.83451   0.49066   0.00000  Uiso   1.00
C452   C     0.49813   0.84284   0.44480   0.00000  Uiso   1.00
C453   C     0.50992   0.82123   0.01326   0.00000  Uiso   1.00
C454   C     0.55043   0.80974   0.48849   0.00000  Uiso   1.00
C455   C     0.56583   0.81825   0.44382   0.00000  Uiso   1.00
C456   C     0.54132   0.83725   0.42339   0.00000  Uiso   1.00
C457   C     0.50113   0.82274   0.06007   0.00000  Uiso   1.00
C458   C     0.56506   0.78982   0.05582   0.00000  Uiso   1.00
C459   C     0.47124   0.85646   0.42121   0.00000  Uiso   1.00
H460   H     0.47545   0.83899   0.08105   0.00000  Uiso   1.00
H461   H     0.55716   0.84782   0.39066   0.00000  Uiso   1.00
C462   C     0.66003   0.84293   0.23571   0.00000  Uiso   1.00
H463   H     0.34914   0.86004   0.20925   0.00000  Uiso   1.00
C464   C     0.34077   0.82417   0.26422   0.00000  Uiso   1.00
H465   H     0.65232   0.80730   0.29122   0.00000  Uiso   1.00
C466   C     0.51372   0.98914   0.23639   0.00000  Uiso   1.00
H467   H     0.53987   0.67027   0.21082   0.00000  Uiso   1.00
C468   C     0.48536   0.67850   0.26412   0.00000  Uiso   1.00
H469   H     0.45893   0.99818   0.28991   0.00000  Uiso   1.00
N470   N     0.59175   0.77058   0.07642   0.00000  Uiso   1.00
O471   O     0.57770   0.75953   0.11728   0.00000  Uiso   1.00
O472   O     0.62856   0.75970   0.05278   0.00000  Uiso   1.00
C473   C     0.40409   0.88776   0.42479   0.00000  Uiso   1.00
N474   N     0.38242   0.90260   0.40820   0.00000  Uiso   1.00
N475   N     0.41513   0.81953   0.05186   0.00000  Uiso   1.00
O476   O     0.41538   0.77976   0.05359   0.00000  Uiso   1.00
O477   O     0.39305   0.84062   0.08613   0.00000  Uiso   1.00
N478   N     0.37196   0.86946   0.01397   0.00000  Uiso   1.00
O479   O     0.36331   0.90784   0.02113   0.00000  Uiso   1.00
O480   O     0.34096   0.83929   0.02396   0.00000  Uiso   1.00
Zn481  Zn    0.86005   0.80661   0.28734   0.00000  Uiso   1.00
Zn482  Zn    0.80046   0.79124   0.21875   0.00000  Uiso   1.00
Zn483  Zn    0.87723   0.86442   0.20657   0.00000  Uiso   1.00
Zn484  Zn    0.79560   0.87106   0.28733   0.00000  Uiso   1.00
O485   O     0.83333   0.83333   0.25000   0.00000  Uiso   1.00
O486   O     0.73738   0.85544   0.28213   0.00000  Uiso   1.00
O487   O     0.92158   0.81892   0.27013   0.00000  Uiso   1.00
O488   O     0.80426   0.73610   0.23413   0.00000  Uiso   1.00
O489   O     0.87012   0.92286   0.21360   0.00000  Uiso   1.00
O490   O     0.82118   0.79304   0.15458   0.00000  Uiso   1.00
O491   O     0.79607   0.87058   0.34968   0.00000  Uiso   1.00
O492   O     0.87491   0.84425   0.14606   0.00000  Uiso   1.00
O493   O     0.84118   0.82546   0.34968   0.00000  Uiso   1.00
O494   O     0.84597   0.74686   0.28213   0.00000  Uiso   1.00
O495   O     0.81298   0.92751   0.27013   0.00000  Uiso   1.00
O496   O     0.74078   0.79958   0.23413   0.00000  Uiso   1.00
O497   O     0.93360   0.85939   0.21360   0.00000  Uiso   1.00
C498   C     0.71941   0.82638   0.26010   0.00000  Uiso   1.00
C499   C     0.94747   0.84045   0.23997   0.00000  Uiso   1.00
C500   C     0.82286   0.72257   0.26025   0.00000  Uiso   1.00
C501   C     0.84324   0.94460   0.24017   0.00000  Uiso   1.00
C502   C     0.85216   0.81484   0.12945   0.00000  Uiso   1.00
C503   C     0.81557   0.85184   0.37119   0.00000  Uiso   1.00
C504   C     0.90994   0.79257   0.00936   0.00000  Uiso   1.00
H505   H     0.93136   0.81247   0.42530   0.00000  Uiso   1.00
H506   H     0.93985   0.78214   0.48939   0.00000  Uiso   1.00
C507   C     0.86120   0.80723   0.08114   0.00000  Uiso   1.00
C508   C     0.76440   0.86917   0.44580   0.00000  Uiso   1.00
C509   C     0.74784   0.86040   0.49076   0.00000  Uiso   1.00
C510   C     0.77114   0.83943   0.01178   0.00000  Uiso   1.00
C511   C     0.81502   0.83451   0.49066   0.00000  Uiso   1.00
C512   C     0.83147   0.84284   0.44480   0.00000  Uiso   1.00
C513   C     0.84325   0.82123   0.01326   0.00000  Uiso   1.00
C514   C     0.88376   0.80974   0.48849   0.00000  Uiso   1.00
C515   C     0.89916   0.81825   0.44382   0.00000  Uiso   1.00
C516   C     0.87465   0.83725   0.42339   0.00000  Uiso   1.00
C517   C     0.83447   0.82274   0.06007   0.00000  Uiso   1.00
C518   C     0.89840   0.78982   0.05582   0.00000  Uiso   1.00
C519   C     0.80457   0.85646   0.42121   0.00000  Uiso   1.00
H520   H     0.80878   0.83899   0.08105   0.00000  Uiso   1.00
H521   H     0.89049   0.84782   0.39066   0.00000  Uiso   1.00
C522   C     0.99337   0.84293   0.23571   0.00000  Uiso   1.00
H523   H     0.68248   0.86004   0.20925   0.00000  Uiso   1.00
C524   C     0.67410   0.82417   0.26422   0.00000  Uiso   1.00
H525   H     0.98566   0.80730   0.29122   0.00000  Uiso   1.00
C526   C     0.84706   0.98914   0.23639   0.00000  Uiso   1.00
H527   H     0.87321   0.67027   0.21082   0.00000  Uiso   1.00
C528   C     0.81869   0.67850   0.26412   0.00000  Uiso   1.00
H529   H     0.79227   0.99818   0.28991   0.00000  Uiso   1.00
N530   N     0.92508   0.77058   0.07642   0.00000  Uiso   1.00
O531   O     0.91104   0.75953   0.11728   0.00000  Uiso   1.00
O532   O     0.96189   0.75970   0.05278   0.00000  Uiso   1.00
C533   C     0.73743   0.88776   0.42479   0.00000  Uiso   1.00
N534   N     0.71576   0.90260   0.40820   0.00000  Uiso   1.00
N535   N     0.74846   0.81953   0.05186   0.00000  Uiso   1.00
O536   O     0.74871   0.77976   0.05359   0.00000  Uiso   1.00
O537   O     0.72639   0.84062   0.08613   0.00000  Uiso   1.00
N538   N     0.70529   0.86946   0.01397   0.00000  Uiso   1.00
O539   O     0.69664   0.90784   0.02113   0.00000  Uiso   1.00
O540   O     0.67430   0.83929   0.02396   0.00000  Uiso   1.00
Zn541  Zn    0.19338   0.13994   0.78734   0.00000  Uiso   1.00
Zn542  Zn    0.13379   0.12458   0.71875   0.00000  Uiso   1.00
Zn543  Zn    0.21056   0.19775   0.70657   0.00000  Uiso   1.00
Zn544  Zn    0.12893   0.20439   0.78733   0.00000  Uiso   1.00
O545   O     0.16667   0.16667   0.75000   0.00000  Uiso   1.00
O546   O     0.07071   0.18878   0.78213   0.00000  Uiso   1.00
O547   O     0.25491   0.15226   0.77013   0.00000  Uiso   1.00
O548   O     0.13760   0.06944   0.73413   0.00000  Uiso   1.00
O549   O     0.20345   0.25620   0.71360   0.00000  Uiso   1.00
O550   O     0.15451   0.12637   0.65458   0.00000  Uiso   1.00
O551   O     0.12940   0.20391   0.84968   0.00000  Uiso   1.00
O552   O     0.20824   0.17759   0.64606   0.00000  Uiso   1.00
O553   O     0.17451   0.15880   0.84968   0.00000  Uiso   1.00
O554   O     0.17930   0.08019   0.78213   0.00000  Uiso   1.00
O555   O     0.14632   0.26085   0.77013   0.00000  Uiso   1.00
O556   O     0.07412   0.13291   0.73413   0.00000  Uiso   1.00
O557   O     0.26693   0.19272   0.71360   0.00000  Uiso   1.00
C558   C     0.05274   0.15972   0.76010   0.00000  Uiso   1.00
C559   C     0.28080   0.17378   0.73997   0.00000  Uiso   1.00
C560   C     0.15619   0.05590   0.76025   0.00000  Uiso   1.00
C561   C     0.17658   0.27793   0.74017   0.00000  Uiso   1.00
C562   C     0.18549   0.14818   0.62945   0.00000  Uiso   1.00
C563   C     0.14890   0.18517   0.87119   0.00000  Uiso   1.00
C564   C     0.24327   0.12591   0.50936   0.00000  Uiso   1.00
H565   H     0.26469   0.14581   0.92530   0.00000  Uiso   1.00
H566   H     0.27319   0.11548   0.98939   0.00000  Uiso   1.00
C567   C     0.19454   0.14056   0.58114   0.00000  Uiso   1.00
C568   C     0.09774   0.20250   0.94580   0.00000  Uiso   1.00
C569   C     0.08117   0.19373   0.99076   0.00000  Uiso   1.00
C570   C     0.10447   0.17277   0.51178   0.00000  Uiso   1.00
C571   C     0.14835   0.16784   0.99066   0.00000  Uiso   1.00
C572   C     0.16480   0.17617   0.94480   0.00000  Uiso   1.00
C573   C     0.17658   0.15456   0.51326   0.00000  Uiso   1.00
C574   C     0.21709   0.14308   0.98849   0.00000  Uiso   1.00
C575   C     0.23249   0.15158   0.94382   0.00000  Uiso   1.00
C576   C     0.20799   0.17058   0.92339   0.00000  Uiso   1.00
C577   C     0.16780   0.15607   0.56007   0.00000  Uiso   1.00
C578   C     0.23173   0.12315   0.55582   0.00000  Uiso   1.00
C579   C     0.13791   0.18979   0.92121   0.00000  Uiso   1.00
H580   H     0.14212   0.17232   0.58105   0.00000  Uiso   1.00
H581   H     0.22383   0.18115   0.89066   0.00000  Uiso   1.00
C582   C     0.32670   0.17627   0.73571   0.00000  Uiso   1.00
H583   H     0.01581   0.19337   0.70925   0.00000  Uiso   1.00
C584   C     0.00743   0.15751   0.76422   0.00000  Uiso   1.00
H585   H     0.31899   0.14063   0.79122   0.00000  Uiso   1.00
C586   C     0.18039   0.32248   0.73639   0.00000  Uiso   1.00
H587   H     0.20654   0.00360   0.71082   0.00000  Uiso   1.00
C588   C     0.15202   0.01183   0.76412   0.00000  Uiso   1.00
H589   H     0.12560   0.33151   0.78991   0.00000  Uiso   1.00
N590   N     0.25841   0.10392   0.57642   0.00000  Uiso   1.00
O591   O     0.24437   0.09286   0.61728   0.00000  Uiso   1.00
O592   O     0.29522   0.09303   0.55278   0.00000  Uiso   1.00
C593   C     0.07076   0.22109   0.92479   0.00000  Uiso   1.00
N594   N     0.04909   0.23594   0.90820   0.00000  Uiso   1.00
N595   N     0.08179   0.15286   0.55186   0.00000  Uiso   1.00
O596   O     0.08205   0.11309   0.55359   0.00000  Uiso   1.00
O597   O     0.05972   0.17395   0.58613   0.00000  Uiso   1.00
N598   N     0.03862   0.20280   0.51397   0.00000  Uiso   1.00
O599   O     0.02997   0.24118   0.52113   0.00000  Uiso   1.00
O600   O     0.00763   0.17262   0.52396   0.00000  Uiso   1.00
Zn601  Zn    0.52672   0.13994   0.78734   0.00000  Uiso   1.00
Zn602  Zn    0.46713   0.12458   0.71875   0.00000  Uiso   1.00
Zn603  Zn    0.54389   0.19775   0.70657   0.00000  Uiso   1.00
Zn604  Zn    0.46226   0.20439   0.78733   0.00000  Uiso   1.00
O605   O     0.50000   0.16667   0.75000   0.00000  Uiso   1.00
O606   O     0.40405   0.18878   0.78213   0.00000  Uiso   1.00
O607   O     0.58824   0.15226   0.77013   0.00000  Uiso   1.00
O608   O     0.47093   0.06944   0.73413   0.00000  Uiso   1.00
O609   O     0.53678   0.25620   0.71360   0.00000  Uiso   1.00
O610   O     0.48784   0.12637   0.65458   0.00000  Uiso   1.00
O611   O     0.46274   0.20391   0.84968   0.00000  Uiso   1.00
O612   O     0.54157   0.17759   0.64606   0.00000  Uiso   1.00
O613   O     0.50785   0.15880   0.84968   0.00000  Uiso   1.00
O614   O     0.51264   0.08019   0.78213   0.00000  Uiso   1.00
O615   O     0.47965   0.26085   0.77013   0.00000  Uiso   1.00
O616   O     0.40745   0.13291   0.73413   0.00000  Uiso   1.00
O617   O     0.60026   0.19272   0.71360   0.00000  Uiso   1.00
C618   C     0.38608   0.15972   0.76010   0.00000  Uiso   1.00
C619   C     0.61414   0.17378   0.73997   0.00000  Uiso   1.00
C620   C     0.48952   0.05590   0.76025   0.00000  Uiso   1.00
C621   C     0.50991   0.27793   0.74017   0.00000  Uiso   1.00
C622   C     0.51883   0.14818   0.62945   0.00000  Uiso   1.00
C623   C     0.48224   0.18517   0.87119   0.00000  Uiso   1.00
C624   C     0.57660   0.12591   0.50936   0.00000  Uiso   1.00
H625   H     0.59803   0.14581   0.92530   0.00000  Uiso   1.00
H626   H     0.60652   0.11548   0.98939   0.00000  Uiso   1.00
C627   C     0.52787   0.14056   0.58114   0.00000  Uiso   1.00
C628   C     0.43107   0.20250   0.94580   0.00000  Uiso   1.00
C629   C     0.41450   0.19373   0.99076   0.00000  Uiso   1.00
C630   C     0.43780   0.17277   0.51178   0.00000  Uiso   1.00
C631   C     0.48168   0.16784   0.99066   0.00000  Uiso   1.00
C632   C     0.49813   0.17617   0.94480   0.00000  Uiso   1.00
C633   C     0.50992   0.15456   0.51326   0.00000  Uiso   1.00
C634   C     0.55043   0.14308   0.98849   0.00000  Uiso   1.00
C635   C     0.56583   0.15158   0.94382   0.00000  Uiso   1.00
C636   C     0.54132   0.17058   0.92339   0.00000  Uiso   1.00
C637   C     0.50113   0.15607   0.56007   0.00000  Uiso   1.00
C638   C     0.56506   0.12315   0.55582   0.00000  Uiso   1.00
C639   C     0.47124   0.18979   0.92121   0.00000  Uiso   1.00
H640   H     0.47545   0.17232   0.58105   0.00000  Uiso   1.00
H641   H     0.55716   0.18115   0.89066   0.00000  Uiso   1.00
C642   C     0.66003   0.17627   0.73571   0.00000  Uiso   1.00
H643   H     0.34914   0.19337   0.70925   0.00000  Uiso   1.00
C644   C     0.34077   0.15751   0.76422   0.00000  Uiso   1.00
H645   H     0.65232   0.14063   0.79122   0.00000  Uiso   1.00
C646   C     0.51372   0.32248   0.73639   0.00000  Uiso   1.00
H647   H     0.53987   0.00360   0.71082   0.00000  Uiso   1.00
C648   C     0.48536   0.01183   0.76412   0.00000  Uiso   1.00
H649   H     0.45893   0.33151   0.78991   0.00000  Uiso   1.00
N650   N     0.59175   0.10392   0.57642   0.00000  Uiso   1.00
O651   O     0.57770   0.09286   0.61728   0.00000  Uiso   1.00
O652   O     0.62856   0.09303   0.55278   0.00000  Uiso   1.00
C653   C     0.40409   0.22109   0.92479   0.00000  Uiso   1.00
N654   N     0.38242   0.23594   0.90820   0.00000  Uiso   1.00
N655   N     0.41513   0.15286   0.55186   0.00000  Uiso   1.00
O656   O     0.41538   0.11309   0.55359   0.00000  Uiso   1.00
O657   O     0.39305   0.17395   0.58613   0.00000  Uiso   1.00
N658   N     0.37196   0.20280   0.51397   0.00000  Uiso   1.00
O659   O     0.36331   0.24118   0.52113   0.00000  Uiso   1.00
O660   O     0.34096   0.17262   0.52396   0.00000  Uiso   1.00
Zn661  Zn    0.86005   0.13994   0.78734   0.00000  Uiso   1.00
Zn662  Zn    0.80046   0.12458   0.71875   0.00000  Uiso   1.00
Zn663  Zn    0.87723   0.19775   0.70657   0.00000  Uiso   1.00
Zn664  Zn    0.79560   0.20439   0.78733   0.00000  Uiso   1.00
O665   O     0.83333   0.16667   0.75000   0.00000  Uiso   1.00
O666   O     0.73738   0.18878   0.78213   0.00000  Uiso   1.00
O667   O     0.92158   0.15226   0.77013   0.00000  Uiso   1.00
O668   O     0.80426   0.06944   0.73413   0.00000  Uiso   1.00
O669   O     0.87012   0.25620   0.71360   0.00000  Uiso   1.00
O670   O     0.82118   0.12637   0.65458   0.00000  Uiso   1.00
O671   O     0.79607   0.20391   0.84968   0.00000  Uiso   1.00
O672   O     0.87491   0.17759   0.64606   0.00000  Uiso   1.00
O673   O     0.84118   0.15880   0.84968   0.00000  Uiso   1.00
O674   O     0.84597   0.08019   0.78213   0.00000  Uiso   1.00
O675   O     0.81298   0.26085   0.77013   0.00000  Uiso   1.00
O676   O     0.74078   0.13291   0.73413   0.00000  Uiso   1.00
O677   O     0.93360   0.19272   0.71360   0.00000  Uiso   1.00
C678   C     0.71941   0.15972   0.76010   0.00000  Uiso   1.00
C679   C     0.94747   0.17378   0.73997   0.00000  Uiso   1.00
C680   C     0.82286   0.05590   0.76025   0.00000  Uiso   1.00
C681   C     0.84324   0.27793   0.74017   0.00000  Uiso   1.00
C682   C     0.85216   0.14818   0.62945   0.00000  Uiso   1.00
C683   C     0.81557   0.18517   0.87119   0.00000  Uiso   1.00
C684   C     0.90994   0.12591   0.50936   0.00000  Uiso   1.00
H685   H     0.93136   0.14581   0.92530   0.00000  Uiso   1.00
H686   H     0.93985   0.11548   0.98939   0.00000  Uiso   1.00
C687   C     0.86120   0.14056   0.58114   0.00000  Uiso   1.00
C688   C     0.76440   0.20250   0.94580   0.00000  Uiso   1.00
C689   C     0.74784   0.19373   0.99076   0.00000  Uiso   1.00
C690   C     0.77114   0.17277   0.51178   0.00000  Uiso   1.00
C691   C     0.81502   0.16784   0.99066   0.00000  Uiso   1.00
C692   C     0.83147   0.17617   0.94480   0.00000  Uiso   1.00
C693   C     0.84325   0.15456   0.51326   0.00000  Uiso   1.00
C694   C     0.88376   0.14308   0.98849   0.00000  Uiso   1.00
C695   C     0.89916   0.15158   0.94382   0.00000  Uiso   1.00
C696   C     0.87465   0.17058   0.92339   0.00000  Uiso   1.00
C697   C     0.83447   0.15607   0.56007   0.00000  Uiso   1.00
C698   C     0.89840   0.12315   0.55582   0.00000  Uiso   1.00
C699   C     0.80457   0.18979   0.92121   0.00000  Uiso   1.00
H700   H     0.80878   0.17232   0.58105   0.00000  Uiso   1.00
H701   H     0.89049   0.18115   0.89066   0.00000  Uiso   1.00
C702   C     0.99337   0.17627   0.73571   0.00000  Uiso   1.00
H703   H     0.68248   0.19337   0.70925   0.00000  Uiso   1.00
C704   C     0.67410   0.15751   0.76422   0.00000  Uiso   1.00
H705   H     0.98566   0.14063   0.79122   0.00000  Uiso   1.00
C706   C     0.84706   0.32248   0.73639   0.00000  Uiso   1.00
H707   H     0.87321   0.00360   0.71082   0.00000  Uiso   1.00
C708   C     0.81869   0.01183   0.76412   0.00000  Uiso   1.00
H709   H     0.79227   0.33151   0.78991   0.00000  Uiso   1.00
N710   N     0.92508   0.10392   0.57642   0.00000  Uiso   1.00
O711   O     0.91104   0.09286   0.61728   0.00000  Uiso   1.00
O712   O     0.96189   0.09303   0.55278   0.00000  Uiso   1.00
C713   C     0.73743   0.22109   0.92479   0.00000  Uiso   1.00
N714   N     0.71576   0.23594   0.90820   0.00000  Uiso   1.00
N715   N     0.74846   0.15286   0.55186   0.00000  Uiso   1.00
O716   O     0.74871   0.11309   0.55359   0.00000  Uiso   1.00
O717   O     0.72639   0.17395   0.58613   0.00000  Uiso   1.00
N718   N     0.70529   0.20280   0.51397   0.00000  Uiso   1.00
O719   O     0.69664   0.24118   0.52113   0.00000  Uiso   1.00
O720   O     0.67430   0.17262   0.52396   0.00000  Uiso   1.00
Zn721  Zn    0.19338   0.47327   0.78734   0.00000  Uiso   1.00
Zn722  Zn    0.13379   0.45791   0.71875   0.00000  Uiso   1.00
Zn723  Zn    0.21056   0.53109   0.70657   0.00000  Uiso   1.00
Zn724  Zn    0.12893   0.53773   0.78733   0.00000  Uiso   1.00
O725   O     0.16667   0.50000   0.75000   0.00000  Uiso   1.00
O726   O     0.07071   0.52211   0.78213   0.00000  Uiso   1.00
O727   O     0.25491   0.48559   0.77013   0.00000  Uiso   1.00
O728   O     0.13760   0.40277   0.73413   0.00000  Uiso   1.00
O729   O     0.20345   0.58953   0.71360   0.00000  Uiso   1.00
O730   O     0.15451   0.45970   0.65458   0.00000  Uiso   1.00
O731   O     0.12940   0.53724   0.84968   0.00000  Uiso   1.00
O732   O     0.20824   0.51092   0.64606   0.00000  Uiso   1.00
O733   O     0.17451   0.49213   0.84968   0.00000  Uiso   1.00
O734   O     0.17930   0.41352   0.78213   0.00000  Uiso   1.00
O735   O     0.14632   0.59418   0.77013   0.00000  Uiso   1.00
O736   O     0.07412   0.46625   0.73413   0.00000  Uiso   1.00
O737   O     0.26693   0.52605   0.71360   0.00000  Uiso   1.00
C738   C     0.05274   0.49305   0.76010   0.00000  Uiso   1.00
C739   C     0.28080   0.50712   0.73997   0.00000  Uiso   1.00
C740   C     0.15619   0.38924   0.76025   0.00000  Uiso   1.00
C741   C     0.17658   0.61126   0.74017   0.00000  Uiso   1.00
C742   C     0.18549   0.48151   0.62945   0.00000  Uiso   1.00
C743   C     0.14890   0.51850   0.87119   0.00000  Uiso   1.00
C744   C     0.24327   0.45924   0.50936   0.00000  Uiso   1.00
H745   H     0.26469   0.47914   0.92530   0.00000  Uiso   1.00
H746   H     0.27319   0.44881   0.98939   0.00000  Uiso   1.00
C747   C     0.19454   0.47390   0.58114   0.00000  Uiso   1.00
C748   C     0.09774   0.53584   0.94580   0.00000  Uiso   1.00
C749   C     0.08117   0.52707   0.99076   0.00000  Uiso   1.00
C750   C     0.10447   0.50610   0.51178   0.00000  Uiso   1.00
C751   C     0.14835   0.50117   0.99066   0.00000  Uiso   1.00
C752   C     0.16480   0.50950   0.94480   0.00000  Uiso   1.00
C753   C     0.17658   0.48789   0.51326   0.00000  Uiso   1.00
C754   C     0.21709   0.47641   0.98849   0.00000  Uiso   1.00
C755   C     0.23249   0.48492   0.94382   0.00000  Uiso   1.00
C756   C     0.20799   0.50391   0.92339   0.00000  Uiso   1.00
C757   C     0.16780   0.48940   0.56007   0.00000  Uiso   1.00
C758   C     0.23173   0.45648   0.55582   0.00000  Uiso   1.00
C759   C     0.13791   0.52313   0.92121   0.00000  Uiso   1.00
H760   H     0.14212   0.50566   0.58105   0.00000  Uiso   1.00
H761   H     0.22383   0.51449   0.89066   0.00000  Uiso   1.00
C762   C     0.32670   0.50960   0.73571   0.00000  Uiso   1.00
H763   H     0.01581   0.52671   0.70925   0.00000  Uiso   1.00
C764   C     0.00743   0.49084   0.76422   0.00000  Uiso   1.00
H765   H     0.31899   0.47397   0.79122   0.00000  Uiso   1.00
C766   C     0.18039   0.65581   0.73639   0.00000  Uiso   1.00
H767   H     0.20654   0.33693   0.71082   0.00000  Uiso   1.00
C768   C     0.15202   0.34516   0.76412   0.00000  Uiso   1.00
H769   H     0.12560   0.66485   0.78991   0.00000  Uiso   1.00
N770   N     0.25841   0.43725   0.57642   0.00000  Uiso   1.00
O771   O     0.24437   0.42619   0.61728   0.00000  Uiso   1.00
O772   O     0.29522   0.42636   0.55278   0.00000  Uiso   1.00
C773   C     0.07076   0.55443   0.92479   0.00000  Uiso   1.00
N774   N     0.04909   0.56927   0.90820   0.00000  Uiso   1.00
N775   N     0.08179   0.48619   0.55186   0.00000  Uiso   1.00
O776   O     0.08205   0.44642   0.55359   0.00000  Uiso   1.00
O777   O     0.05972   0.50729   0.58613   0.00000  Uiso   1.00
N778   N     0.03862   0.53613   0.51397   0.00000  Uiso   1.00
O779   O     0.02997   0.57451   0.52113   0.00000  Uiso   1.00
O780   O     0.00763   0.50596   0.52396   0.00000  Uiso   1.00
Zn781  Zn    0.52672   0.47327   0.78734   0.00000  Uiso   1.00
Zn782  Zn    0.46713   0.45791   0.71875   0.00000  Uiso   1.00
Zn783  Zn    0.54389   0.53109   0.70657   0.00000  Uiso   1.00
Zn784  Zn    0.46226   0.53773   0.78733   0.00000  Uiso   1.00
O785   O     0.50000   0.50000   0.75000   0.00000  Uiso   1.00
O786   O     0.40405   0.52211   0.78213   0.00000  Uiso   1.00
O787   O     0.58824   0.48559   0.77013   0.00000  Uiso   1.00
O788   O     0.47093   0.40277   0.73413   0.00000  Uiso   1.00
O789   O     0.53678   0.58953   0.71360   0.00000  Uiso   1.00
O790   O     0.48784   0.45970   0.65458   0.00000  Uiso   1.00
O791   O     0.46274   0.53724   0.84968   0.00000  Uiso   1.00
O792   O     0.54157   0.51092   0.64606   0.00000  Uiso   1.00
O793   O     0.50785   0.49213   0.84968   0.00000  Uiso   1.00
O794   O     0.51264   0.41352   0.78213   0.00000  Uiso   1.00
O795   O     0.47965   0.59418   0.77013   0.00000  Uiso   1.00
O796   O     0.40745   0.46625   0.73413   0.00000  Uiso   1.00
O797   O     0.60026   0.52605   0.71360   0.00000  Uiso   1.00
C798   C     0.38608   0.49305   0.76010   0.00000  Uiso   1.00
C799   C     0.61414   0.50712   0.73997   0.00000  Uiso   1.00
C800   C     0.48952   0.38924   0.76025   0.00000  Uiso   1.00
C801   C     0.50991   0.61126   0.74017   0.00000  Uiso   1.00
C802   C     0.51883   0.48151   0.62945   0.00000  Uiso   1.00
C803   C     0.48224   0.51850   0.87119   0.00000  Uiso   1.00
C804   C     0.57660   0.45924   0.50936   0.00000  Uiso   1.00
H805   H     0.59803   0.47914   0.92530   0.00000  Uiso   1.00
H806   H     0.60652   0.44881   0.98939   0.00000  Uiso   1.00
C807   C     0.52787   0.47390   0.58114   0.00000  Uiso   1.00
C808   C     0.43107   0.53584   0.94580   0.00000  Uiso   1.00
C809   C     0.41450   0.52707   0.99076   0.00000  Uiso   1.00
C810   C     0.43780   0.50610   0.51178   0.00000  Uiso   1.00
C811   C     0.48168   0.50117   0.99066   0.00000  Uiso   1.00
C812   C     0.49813   0.50950   0.94480   0.00000  Uiso   1.00
C813   C     0.50992   0.48789   0.51326   0.00000  Uiso   1.00
C814   C     0.55043   0.47641   0.98849   0.00000  Uiso   1.00
C815   C     0.56583   0.48492   0.94382   0.00000  Uiso   1.00
C816   C     0.54132   0.50391   0.92339   0.00000  Uiso   1.00
C817   C     0.50113   0.48940   0.56007   0.00000  Uiso   1.00
C818   C     0.56506   0.45648   0.55582   0.00000  Uiso   1.00
C819   C     0.47124   0.52313   0.92121   0.00000  Uiso   1.00
H820   H     0.47545   0.50566   0.58105   0.00000  Uiso   1.00
H821   H     0.55716   0.51449   0.89066   0.00000  Uiso   1.00
C822   C     0.66003   0.50960   0.73571   0.00000  Uiso   1.00
H823   H     0.34914   0.52671   0.70925   0.00000  Uiso   1.00
C824   C     0.34077   0.49084   0.76422   0.00000  Uiso   1.00
H825   H     0.65232   0.47397   0.79122   0.00000  Uiso   1.00
C826   C     0.51372   0.65581   0.73639   0.00000  Uiso   1.00
H827   H     0.53987   0.33693   0.71082   0.00000  Uiso   1.00
C828   C     0.48536   0.34516   0.76412   0.00000  Uiso   1.00
H829   H     0.45893   0.66485   0.78991   0.00000  Uiso   1.00
N830   N     0.59175   0.43725   0.57642   0.00000  Uiso   1.00
O831   O     0.57770   0.42619   0.61728   0.00000  Uiso   1.00
O832   O     0.62856   0.42636   0.55278   0.00000  Uiso   1.00
C833   C     0.40409   0.55443   0.92479   0.00000  Uiso   1.00
N834   N     0.38242   0.56927   0.90820   0.00000  Uiso   1.00
N835   N     0.41513   0.48619   0.55186   0.00000  Uiso   1.00
O836   O     0.41538   0.44642   0.55359   0.00000  Uiso   1.00
O837   O     0.39305   0.50729   0.58613   0.00000  Uiso   1.00
N838   N     0.37196   0.53613   0.51397   0.00000  Uiso   1.00
O839   O     0.36331   0.57451   0.52113   0.00000  Uiso   1.00
O840   O     0.34096   0.50596   0.52396   0.00000  Uiso   1.00
Zn841  Zn    0.86005   0.47327   0.78734   0.00000  Uiso   1.00
Zn842  Zn    0.80046   0.45791   0.71875   0.00000  Uiso   1.00
Zn843  Zn    0.87723   0.53109   0.70657   0.00000  Uiso   1.00
Zn844  Zn    0.79560   0.53773   0.78733   0.00000  Uiso   1.00
O845   O     0.83333   0.50000   0.75000   0.00000  Uiso   1.00
O846   O     0.73738   0.52211   0.78213   0.00000  Uiso   1.00
O847   O     0.92158   0.48559   0.77013   0.00000  Uiso   1.00
O848   O     0.80426   0.40277   0.73413   0.00000  Uiso   1.00
O849   O     0.87012   0.58953   0.71360   0.00000  Uiso   1.00
O850   O     0.82118   0.45970   0.65458   0.00000  Uiso   1.00
O851   O     0.79607   0.53724   0.84968   0.00000  Uiso   1.00
O852   O     0.87491   0.51092   0.64606   0.00000  Uiso   1.00
O853   O     0.84118   0.49213   0.84968   0.00000  Uiso   1.00
O854   O     0.84597   0.41352   0.78213   0.00000  Uiso   1.00
O855   O     0.81298   0.59418   0.77013   0.00000  Uiso   1.00
O856   O     0.74078   0.46625   0.73413   0.00000  Uiso   1.00
O857   O     0.93360   0.52605   0.71360   0.00000  Uiso   1.00
C858   C     0.71941   0.49305   0.76010   0.00000  Uiso   1.00
C859   C     0.94747   0.50712   0.73997   0.00000  Uiso   1.00
C860   C     0.82286   0.38924   0.76025   0.00000  Uiso   1.00
C861   C     0.84324   0.61126   0.74017   0.00000  Uiso   1.00
C862   C     0.85216   0.48151   0.62945   0.00000  Uiso   1.00
C863   C     0.81557   0.51850   0.87119   0.00000  Uiso   1.00
C864   C     0.90994   0.45924   0.50936   0.00000  Uiso   1.00
H865   H     0.93136   0.47914   0.92530   0.00000  Uiso   1.00
H866   H     0.93985   0.44881   0.98939   0.00000  Uiso   1.00
C867   C     0.86120   0.47390   0.58114   0.00000  Uiso   1.00
C868   C     0.76440   0.53584   0.94580   0.00000  Uiso   1.00
C869   C     0.74784   0.52707   0.99076   0.00000  Uiso   1.00
C870   C     0.77114   0.50610   0.51178   0.00000  Uiso   1.00
C871   C     0.81502   0.50117   0.99066   0.00000  Uiso   1.00
C872   C     0.83147   0.50950   0.94480   0.00000  Uiso   1.00
C873   C     0.84325   0.48789   0.51326   0.00000  Uiso   1.00
C874   C     0.88376   0.47641   0.98849   0.00000  Uiso   1.00
C875   C     0.89916   0.48492   0.94382   0.00000  Uiso   1.00
C876   C     0.87465   0.50391   0.92339   0.00000  Uiso   1.00
C877   C     0.83447   0.48940   0.56007   0.00000  Uiso   1.00
C878   C     0.89840   0.45648   0.55582   0.00000  Uiso   1.00
C879   C     0.80457   0.52313   0.92121   0.00000  Uiso   1.00
H880   H     0.80878   0.50566   0.58105   0.00000  Uiso   1.00
H881   H     0.89049   0.51449   0.89066   0.00000  Uiso   1.00
C882   C     0.99337   0.50960   0.73571   0.00000  Uiso   1.00
H883   H     0.68248   0.52671   0.70925   0.00000  Uiso   1.00
C884   C     0.67410   0.49084   0.76422   0.00000  Uiso   1.00
H885   H     0.98566   0.47397   0.79122   0.00000  Uiso   1.00
C886   C     0.84706   0.65581   0.73639   0.00000  Uiso   1.00
H887   H     0.87321   0.33693   0.71082   0.00000  Uiso   1.00
C888   C     0.81869   0.34516   0.76412   0.00000  Uiso   1.00
H889   H     0.79227   0.66485   0.78991   0.00000  Uiso   1.00
N890   N     0.92508   0.43725   0.57642   0.00000  Uiso   1.00
O891   O     0.91104   0.42619   0.61728   0.00000  Uiso   1.00
O892   O     0.96189   0.42636   0.55278   0.00000  Uiso   1.00
C893   C     0.73743   0.55443   0.92479   0.00000  Uiso   1.00
N894   N     0.71576   0.56927   0.90820   0.00000  Uiso   1.00
N895   N     0.74846   0.48619   0.55186   0.00000  Uiso   1.00
O896   O     0.74871   0.44642   0.55359   0.00000  Uiso   1.00
O897   O     0.72639   0.50729   0.58613   0.00000  Uiso   1.00
N898   N     0.70529   0.53613   0.51397   0.00000  Uiso   1.00
O899   O     0.69664   0.57451   0.52113   0.00000  Uiso   1.00
O900   O     0.67430   0.50596   0.52396   0.00000  Uiso   1.00
Zn901  Zn    0.19338   0.80661   0.78734   0.00000  Uiso   1.00
Zn902  Zn    0.13379   0.79124   0.71875   0.00000  Uiso   1.00
Zn903  Zn    0.21056   0.86442   0.70657   0.00000  Uiso   1.00
Zn904  Zn    0.12893   0.87106   0.78733   0.00000  Uiso   1.00
O905   O     0.16667   0.83333   0.75000   0.00000  Uiso   1.00
O906   O     0.07071   0.85544   0.78213   0.00000  Uiso   1.00
O907   O     0.25491   0.81892   0.77013   0.00000  Uiso   1.00
O908   O     0.13760   0.73610   0.73413   0.00000  Uiso   1.00
O909   O     0.20345   0.92286   0.71360   0.00000  Uiso   1.00
O910   O     0.15451   0.79304   0.65458   0.00000  Uiso   1.00
O911   O     0.12940   0.87058   0.84968   0.00000  Uiso   1.00
O912   O     0.20824   0.84425   0.64606   0.00000  Uiso   1.00
O913   O     0.17451   0.82546   0.84968   0.00000  Uiso   1.00
O914   O     0.17930   0.74686   0.78213   0.00000  Uiso   1.00
O915   O     0.14632   0.92751   0.77013   0.00000  Uiso   1.00
O916   O     0.07412   0.79958   0.73413   0.00000  Uiso   1.00
O917   O     0.26693   0.85939   0.71360   0.00000  Uiso   1.00
C918   C     0.05274   0.82638   0.76010   0.00000  Uiso   1.00
C919   C     0.28080   0.84045   0.73997   0.00000  Uiso   1.00
C920   C     0.15619   0.72257   0.76025   0.00000  Uiso   1.00
C921   C     0.17658   0.94460   0.74017   0.00000  Uiso   1.00
C922   C     0.18549   0.81484   0.62945   0.00000  Uiso   1.00
C923   C     0.14890   0.85184   0.87119   0.00000  Uiso   1.00
C924   C     0.24327   0.79257   0.50936   0.00000  Uiso   1.00
H925   H     0.26469   0.81247   0.92530   0.00000  Uiso   1.00
H926   H     0.27319   0.78214   0.98939   0.00000  Uiso   1.00
C927   C     0.19454   0.80723   0.58114   0.00000  Uiso   1.00
C928   C     0.09774   0.86917   0.94580   0.00000  Uiso   1.00
C929   C     0.08117   0.86040   0.99076   0.00000  Uiso   1.00
C930   C     0.10447   0.83943   0.51178   0.00000  Uiso   1.00
C931   C     0.14835   0.83451   0.99066   0.00000  Uiso   1.00
C932   C     0.16480   0.84284   0.94480   0.00000  Uiso   1.00
C933   C     0.17658   0.82123   0.51326   0.00000  Uiso   1.00
C934   C     0.21709   0.80974   0.98849   0.00000  Uiso   1.00
C935   C     0.23249   0.81825   0.94382   0.00000  Uiso   1.00
C936   C     0.20799   0.83725   0.92339   0.00000  Uiso   1.00
C937   C     0.16780   0.82274   0.56007   0.00000  Uiso   1.00
C938   C     0.23173   0.78982   0.55582   0.00000  Uiso   1.00
C939   C     0.13791   0.85646   0.92121   0.00000  Uiso   1.00
H940   H     0.14212   0.83899   0.58105   0.00000  Uiso   1.00
H941   H     0.22383   0.84782   0.89066   0.00000  Uiso   1.00
C942   C     0.32670   0.84293   0.73571   0.00000  Uiso   1.00
H943   H     0.01581   0.86004   0.70925   0.00000  Uiso   1.00
C944   C     0.00743   0.82417   0.76422   0.00000  Uiso   1.00
H945   H     0.31899   0.80730   0.79122   0.00000  Uiso   1.00
C946   C     0.18039   0.98914   0.73639   0.00000  Uiso   1.00
H947   H     0.20654   0.67027   0.71082   0.00000  Uiso   1.00
C948   C     0.15202   0.67850   0.76412   0.00000  Uiso   1.00
H949   H     0.12560   0.99818   0.78991   0.00000  Uiso   1.00
N950   N     0.25841   0.77058   0.57642   0.00000  Uiso   1.00
O951   O     0.24437   0.75953   0.61728   0.00000  Uiso   1.00
O952   O     0.29522   0.75970   0.55278   0.00000  Uiso   1.00
C953   C     0.07076   0.88776   0.92479   0.00000  Uiso   1.00
N954   N     0.04909   0.90260   0.90820   0.00000  Uiso   1.00
N955   N     0.08179   0.81953   0.55186   0.00000  Uiso   1.00
O956   O     0.08205   0.77976   0.55359   0.00000  Uiso   1.00
O957   O     0.05972   0.84062   0.58613   0.00000  Uiso   1.00
N958   N     0.03862   0.86946   0.51397   0.00000  Uiso   1.00
O959   O     0.02997   0.90784   0.52113   0.00000  Uiso   1.00
O960   O     0.00763   0.83929   0.52396   0.00000  Uiso   1.00
Zn961  Zn    0.52672   0.80661   0.78734   0.00000  Uiso   1.00
Zn962  Zn    0.46713   0.79124   0.71875   0.00000  Uiso   1.00
Zn963  Zn    0.54389   0.86442   0.70657   0.00000  Uiso   1.00
Zn964  Zn    0.46226   0.87106   0.78733   0.00000  Uiso   1.00
O965   O     0.50000   0.83333   0.75000   0.00000  Uiso   1.00
O966   O     0.40405   0.85544   0.78213   0.00000  Uiso   1.00
O967   O     0.58824   0.81892   0.77013   0.00000  Uiso   1.00
O968   O     0.47093   0.73610   0.73413   0.00000  Uiso   1.00
O969   O     0.53678   0.92286   0.71360   0.00000  Uiso   1.00
O970   O     0.48784   0.79304   0.65458   0.00000  Uiso   1.00
O971   O     0.46274   0.87058   0.84968   0.00000  Uiso   1.00
O972   O     0.54157   0.84425   0.64606   0.00000  Uiso   1.00
O973   O     0.50785   0.82546   0.84968   0.00000  Uiso   1.00
O974   O     0.51264   0.74686   0.78213   0.00000  Uiso   1.00
O975   O     0.47965   0.92751   0.77013   0.00000  Uiso   1.00
O976   O     0.40745   0.79958   0.73413   0.00000  Uiso   1.00
O977   O     0.60026   0.85939   0.71360   0.00000  Uiso   1.00
C978   C     0.38608   0.82638   0.76010   0.00000  Uiso   1.00
C979   C     0.61414   0.84045   0.73997   0.00000  Uiso   1.00
C980   C     0.48952   0.72257   0.76025   0.00000  Uiso   1.00
C981   C     0.50991   0.94460   0.74017   0.00000  Uiso   1.00
C982   C     0.51883   0.81484   0.62945   0.00000  Uiso   1.00
C983   C     0.48224   0.85184   0.87119   0.00000  Uiso   1.00
C984   C     0.57660   0.79257   0.50936   0.00000  Uiso   1.00
H985   H     0.59803   0.81247   0.92530   0.00000  Uiso   1.00
H986   H     0.60652   0.78214   0.98939   0.00000  Uiso   1.00
C987   C     0.52787   0.80723   0.58114   0.00000  Uiso   1.00
C988   C     0.43107   0.86917   0.94580   0.00000  Uiso   1.00
C989   C     0.41450   0.86040   0.99076   0.00000  Uiso   1.00
C990   C     0.43780   0.83943   0.51178   0.00000  Uiso   1.00
C991   C     0.48168   0.83451   0.99066   0.00000  Uiso   1.00
C992   C     0.49813   0.84284   0.94480   0.00000  Uiso   1.00
C993   C     0.50992   0.82123   0.51326   0.00000  Uiso   1.00
C994   C     0.55043   0.80974   0.98849   0.00000  Uiso   1.00
C995   C     0.56583   0.81825   0.94382   0.00000  Uiso   1.00
C996   C     0.54132   0.83725   0.92339   0.00000  Uiso   1.00
C997   C     0.50113   0.82274   0.56007   0.00000  Uiso   1.00
C998   C     0.56506   0.78982   0.55582   0.00000  Uiso   1.00
C999   C     0.47124   0.85646   0.92121   0.00000  Uiso   1.00
H1000  H     0.47545   0.83899   0.58105   0.00000  Uiso   1.00
H1001  H     0.55716   0.84782   0.89066   0.00000  Uiso   1.00
C1002  C     0.66003   0.84293   0.73571   0.00000  Uiso   1.00
H1003  H     0.34914   0.86004   0.70925   0.00000  Uiso   1.00
C1004  C     0.34077   0.82417   0.76422   0.00000  Uiso   1.00
H1005  H     0.65232   0.80730   0.79122   0.00000  Uiso   1.00
C1006  C     0.51372   0.98914   0.73639   0.00000  Uiso   1.00
H1007  H     0.53987   0.67027   0.71082   0.00000  Uiso   1.00
C1008  C     0.48536   0.67850   0.76412   0.00000  Uiso   1.00
H1009  H     0.45893   0.99818   0.78991   0.00000  Uiso   1.00
N1010  N     0.59175   0.77058   0.57642   0.00000  Uiso   1.00
O1011  O     0.57770   0.75953   0.61728   0.00000  Uiso   1.00
O1012  O     0.62856   0.75970   0.55278   0.00000  Uiso   1.00
C1013  C     0.40409   0.88776   0.92479   0.00000  Uiso   1.00
N1014  N     0.38242   0.90260   0.90820   0.00000  Uiso   1.00
N1015  N     0.41513   0.81953   0.55186   0.00000  Uiso   1.00
O1016  O     0.41538   0.77976   0.55359   0.00000  Uiso   1.00
O1017  O     0.39305   0.84062   0.58613   0.00000  Uiso   1.00
N1018  N     0.37196   0.86946   0.51397   0.00000  Uiso   1.00
O1019  O     0.36331   0.90784   0.52113   0.00000  Uiso   1.00
O1020  O     0.34096   0.83929   0.52396   0.00000  Uiso   1.00
Zn1021 Zn    0.86005   0.80661   0.78734   0.00000  Uiso   1.00
Zn1022 Zn    0.80046   0.79124   0.71875   0.00000  Uiso   1.00
Zn1023 Zn    0.87723   0.86442   0.70657   0.00000  Uiso   1.00
Zn1024 Zn    0.79560   0.87106   0.78733   0.00000  Uiso   1.00
O1025  O     0.83333   0.83333   0.75000   0.00000  Uiso   1.00
O1026  O     0.73738   0.85544   0.78213   0.00000  Uiso   1.00
O1027  O     0.92158   0.81892   0.77013   0.00000  Uiso   1.00
O1028  O     0.80426   0.73610   0.73413   0.00000  Uiso   1.00
O1029  O     0.87012   0.92286   0.71360   0.00000  Uiso   1.00
O1030  O     0.82118   0.79304   0.65458   0.00000  Uiso   1.00
O1031  O     0.79607   0.87058   0.84968   0.00000  Uiso   1.00
O1032  O     0.87491   0.84425   0.64606   0.00000  Uiso   1.00
O1033  O     0.84118   0.82546   0.84968   0.00000  Uiso   1.00
O1034  O     0.84597   0.74686   0.78213   0.00000  Uiso   1.00
O1035  O     0.81298   0.92751   0.77013   0.00000  Uiso   1.00
O1036  O     0.74078   0.79958   0.73413   0.00000  Uiso   1.00
O1037  O     0.93360   0.85939   0.71360   0.00000  Uiso   1.00
C1038  C     0.71941   0.82638   0.76010   0.00000  Uiso   1.00
C1039  C     0.94747   0.84045   0.73997   0.00000  Uiso   1.00
C1040  C     0.82286   0.72257   0.76025   0.00000  Uiso   1.00
C1041  C     0.84324   0.94460   0.74017   0.00000  Uiso   1.00
C1042  C     0.85216   0.81484   0.62945   0.00000  Uiso   1.00
C1043  C     0.81557   0.85184   0.87119   0.00000  Uiso   1.00
C1044  C     0.90994   0.79257   0.50936   0.00000  Uiso   1.00
H1045  H     0.93136   0.81247   0.92530   0.00000  Uiso   1.00
H1046  H     0.93985   0.78214   0.98939   0.00000  Uiso   1.00
C1047  C     0.86120   0.80723   0.58114   0.00000  Uiso   1.00
C1048  C     0.76440   0.86917   0.94580   0.00000  Uiso   1.00
C1049  C     0.74784   0.86040   0.99076   0.00000  Uiso   1.00
C1050  C     0.77114   0.83943   0.51178   0.00000  Uiso   1.00
C1051  C     0.81502   0.83451   0.99066   0.00000  Uiso   1.00
C1052  C     0.83147   0.84284   0.94480   0.00000  Uiso   1.00
C1053  C     0.84325   0.82123   0.51326   0.00000  Uiso   1.00
C1054  C     0.88376   0.80974   0.98849   0.00000  Uiso   1.00
C1055  C     0.89916   0.81825   0.94382   0.00000  Uiso   1.00
C1056  C     0.87465   0.83725   0.92339   0.00000  Uiso   1.00
C1057  C     0.83447   0.82274   0.56007   0.00000  Uiso   1.00
C1058  C     0.89840   0.78982   0.55582   0.00000  Uiso   1.00
C1059  C     0.80457   0.85646   0.92121   0.00000  Uiso   1.00
H1060  H     0.80878   0.83899   0.58105   0.00000  Uiso   1.00
H1061  H     0.89049   0.84782   0.89066   0.00000  Uiso   1.00
C1062  C     0.99337   0.84293   0.73571   0.00000  Uiso   1.00
H1063  H     0.68248   0.86004   0.70925   0.00000  Uiso   1.00
C1064  C     0.67410   0.82417   0.76422   0.00000  Uiso   1.00
H1065  H     0.98566   0.80730   0.79122   0.00000  Uiso   1.00
C1066  C     0.84706   0.98914   0.73639   0.00000  Uiso   1.00
H1067  H     0.87321   0.67027   0.71082   0.00000  Uiso   1.00
C1068  C     0.81869   0.67850   0.76412   0.00000  Uiso   1.00
H1069  H     0.79227   0.99818   0.78991   0.00000  Uiso   1.00
N1070  N     0.92508   0.77058   0.57642   0.00000  Uiso   1.00
O1071  O     0.91104   0.75953   0.61728   0.00000  Uiso   1.00
O1072  O     0.96189   0.75970   0.55278   0.00000  Uiso   1.00
C1073  C     0.73743   0.88776   0.92479   0.00000  Uiso   1.00
N1074  N     0.71576   0.90260   0.90820   0.00000  Uiso   1.00
N1075  N     0.74846   0.81953   0.55186   0.00000  Uiso   1.00
O1076  O     0.74871   0.77976   0.55359   0.00000  Uiso   1.00
O1077  O     0.72639   0.84062   0.58613   0.00000  Uiso   1.00
N1078  N     0.70529   0.86946   0.51397   0.00000  Uiso   1.00
O1079  O     0.69664   0.90784   0.52113   0.00000  Uiso   1.00
O1080  O     0.67430   0.83929   0.52396   0.00000  Uiso   1.00
loop_
_geom_bond_atom_site_label_1
_geom_bond_atom_site_label_2
_geom_bond_distance
_geom_bond_site_symmetry_2
_ccdc_geom_bond_type
Zn1    O5      1.957   .     S
Zn1    O13     1.929   .     S
Zn1    O14     1.930   .     S
Zn1    O7      1.923   .     S
Zn2    O16     1.923   .     S
Zn2    O5      1.948   .     S
Zn2    O10     1.932   .     S
Zn2    O8      1.934   .     S
Zn3    O9      1.929   .     S
Zn3    O12     1.939   .     S
Zn3    O17     1.934   .     S
Zn3    O5      1.934   .     S
Zn4    O15     1.931   .     S
Zn4    O11     1.943   .     S
Zn4    O6      1.932   .     S
Zn4    O5      1.929   .     S
O6     C18     1.270   .     A
O7     C19     1.278   .     A
O8     C20     1.278   .     A
O9     C21     1.269   .     A
O10    C22     1.275   .     A
O11    C23     1.283   .     A
O12    C22     1.272   .     A
O13    C23     1.288   .     A
O14    C20     1.278   .     A
O15    C21     1.270   .     A
O16    C18     1.271   .     A
O17    C19     1.281   .     A
C18    C44     1.436   .     S
C19    C42     1.454   .     S
C20    C48     1.435   .     S
C21    C46     1.451   .     S
C22    C27     1.451   .     S
C23    C39     1.495   .     S
C24    C38     1.401   .     A
C24    H566    1.084   1_554 S
C24    C574    1.402   1_554 S
H25    C35     1.084   .     S
H26    C564    1.084   .     S
C27    C37     1.392   .     A
C27    C38     1.413   .     A
C28    C53     1.450   .     S
C28    C29     1.402   .     A
C28    C39     1.420   .     A
C29    C570    1.405   .     S
C29    N598    1.436   .     S
C30    N55     1.437   .     S
C30    C569    1.405   1_554 S
C30    C571    1.427   1_554 S
C31    C32     1.424   .     A
C31    C570    1.427   .     S
C31    C573    1.430   .     S
C32    C36     1.414   .     A
C32    C39     1.421   .     A
C33    C37     1.402   .     A
C33    C571    1.430   1_554 S
C33    C574    1.417   1_554 S
C34    C35     1.389   .     A
C34    C564    1.402   .     S
C34    C573    1.417   .     S
C35    C36     1.384   .     A
C36    H41     1.080   .     S
C37    H40     1.079   .     S
C38    N50     1.446   .     S
C42    H103    1.088   .     S
C42    C104    1.334   .     S
H43    C162    1.088   1_455 S
C44    C162    1.334   1_455 S
C44    H165    1.086   1_455 S
H45    C104    1.086   .     S
C46    H227    1.088   .     S
C46    C228    1.331   .     S
H47    C406    1.088   1_545 S
C48    C406    1.331   1_545 S
C48    H409    1.086   1_545 S
H49    C228    1.086   .     S
N50    O52     1.302   .     A
N50    O51     1.302   .     A
C53    N54     1.158   .     T
N55    O56     1.301   .     A
N55    O57     1.302   .     A
N58    O59     1.301   .     A
N58    O60     1.300   .     A
N58    C569    1.436   1_554 S
Zn61   O65     1.957   .     S
Zn61   O73     1.929   .     S
Zn61   O74     1.930   .     S
Zn61   O67     1.923   .     S
Zn62   O76     1.923   .     S
Zn62   O65     1.948   .     S
Zn62   O70     1.932   .     S
Zn62   O68     1.934   .     S
Zn63   O69     1.929   .     S
Zn63   O72     1.939   .     S
Zn63   O77     1.934   .     S
Zn63   O65     1.934   .     S
Zn64   O75     1.931   .     S
Zn64   O71     1.943   .     S
Zn64   O66     1.932   .     S
Zn64   O65     1.929   .     S
O66    C78     1.270   .     A
O67    C79     1.278   .     A
O68    C80     1.278   .     A
O69    C81     1.269   .     A
O70    C82     1.275   .     A
O71    C83     1.283   .     A
O72    C82     1.272   .     A
O73    C83     1.288   .     A
O74    C80     1.278   .     A
O75    C81     1.270   .     A
O76    C78     1.271   .     A
O77    C79     1.281   .     A
C78    C104    1.436   .     S
C79    C102    1.454   .     S
C80    C108    1.435   .     S
C81    C106    1.451   .     S
C82    C87     1.451   .     S
C83    C99     1.495   .     S
C84    C98     1.401   .     A
C84    H626    1.084   1_554 S
C84    C634    1.402   1_554 S
H85    C95     1.084   .     S
H86    C624    1.084   .     S
C87    C97     1.392   .     A
C87    C98     1.413   .     A
C88    C113    1.450   .     S
C88    C89     1.402   .     A
C88    C99     1.420   .     A
C89    C630    1.405   .     S
C89    N658    1.436   .     S
C90    N115    1.437   .     S
C90    C629    1.405   1_554 S
C90    C631    1.427   1_554 S
C91    C92     1.424   .     A
C91    C630    1.427   .     S
C91    C633    1.430   .     S
C92    C96     1.414   .     A
C92    C99     1.421   .     A
C93    C97     1.402   .     A
C93    C631    1.430   1_554 S
C93    C634    1.417   1_554 S
C94    C95     1.389   .     A
C94    C624    1.402   .     S
C94    C633    1.417   .     S
C95    C96     1.384   .     A
C96    H101    1.080   .     S
C97    H100    1.079   .     S
C98    N110    1.446   .     S
C102   H163    1.088   .     S
C102   C164    1.334   .     S
H105   C164    1.086   .     S
C106   H287    1.088   .     S
C106   C288    1.331   .     S
H107   C466    1.088   1_545 S
C108   C466    1.331   1_545 S
C108   H469    1.086   1_545 S
H109   C288    1.086   .     S
N110   O112    1.302   .     A
N110   O111    1.302   .     A
C113   N114    1.158   .     T
N115   O116    1.301   .     A
N115   O117    1.302   .     A
N118   O119    1.301   .     A
N118   O120    1.300   .     A
N118   C629    1.436   1_554 S
Zn121  O125    1.957   .     S
Zn121  O133    1.929   .     S
Zn121  O134    1.930   .     S
Zn121  O127    1.923   .     S
Zn122  O136    1.923   .     S
Zn122  O125    1.948   .     S
Zn122  O130    1.932   .     S
Zn122  O128    1.934   .     S
Zn123  O129    1.929   .     S
Zn123  O132    1.939   .     S
Zn123  O137    1.934   .     S
Zn123  O125    1.934   .     S
Zn124  O135    1.931   .     S
Zn124  O131    1.943   .     S
Zn124  O126    1.932   .     S
Zn124  O125    1.929   .     S
O126   C138    1.270   .     A
O127   C139    1.278   .     A
O128   C140    1.278   .     A
O129   C141    1.269   .     A
O130   C142    1.275   .     A
O131   C143    1.283   .     A
O132   C142    1.272   .     A
O133   C143    1.288   .     A
O134   C140    1.278   .     A
O135   C141    1.270   .     A
O136   C138    1.271   .     A
O137   C139    1.281   .     A
C138   C164    1.436   .     S
C139   C162    1.454   .     S
C140   C168    1.435   .     S
C141   C166    1.451   .     S
C142   C147    1.451   .     S
C143   C159    1.495   .     S
C144   C158    1.401   .     A
C144   H686    1.084   1_554 S
C144   C694    1.402   1_554 S
H145   C155    1.084   .     S
H146   C684    1.084   .     S
C147   C157    1.392   .     A
C147   C158    1.413   .     A
C148   C173    1.450   .     S
C148   C149    1.402   .     A
C148   C159    1.420   .     A
C149   C690    1.405   .     S
C149   N718    1.436   .     S
C150   N175    1.437   .     S
C150   C689    1.405   1_554 S
C150   C691    1.427   1_554 S
C151   C152    1.424   .     A
C151   C690    1.427   .     S
C151   C693    1.430   .     S
C152   C156    1.414   .     A
C152   C159    1.421   .     A
C153   C157    1.402   .     A
C153   C691    1.430   1_554 S
C153   C694    1.417   1_554 S
C154   C155    1.389   .     A
C154   C684    1.402   .     S
C154   C693    1.417   .     S
C155   C156    1.384   .     A
C156   H161    1.080   .     S
C157   H160    1.079   .     S
C158   N170    1.446   .     S
C162   H43     1.088   1_655 S
C162   C44     1.334   1_655 S
H165   C44     1.086   1_655 S
C166   H347    1.088   .     S
C166   C348    1.331   .     S
H167   C526    1.088   1_545 S
C168   C526    1.331   1_545 S
C168   H529    1.086   1_545 S
H169   C348    1.086   .     S
N170   O172    1.302   .     A
N170   O171    1.302   .     A
C173   N174    1.158   .     T
N175   O176    1.301   .     A
N175   O177    1.302   .     A
N178   O179    1.301   .     A
N178   O180    1.300   .     A
N178   C689    1.436   1_554 S
Zn181  O185    1.957   .     S
Zn181  O193    1.929   .     S
Zn181  O194    1.930   .     S
Zn181  O187    1.923   .     S
Zn182  O196    1.923   .     S
Zn182  O185    1.948   .     S
Zn182  O190    1.932   .     S
Zn182  O188    1.934   .     S
Zn183  O189    1.929   .     S
Zn183  O192    1.939   .     S
Zn183  O197    1.934   .     S
Zn183  O185    1.934   .     S
Zn184  O195    1.931   .     S
Zn184  O191    1.943   .     S
Zn184  O186    1.932   .     S
Zn184  O185    1.929   .     S
O186   C198    1.270   .     A
O187   C199    1.278   .     A
O188   C200    1.278   .     A
O189   C201    1.269   .     A
O190   C202    1.275   .     A
O191   C203    1.283   .     A
O192   C202    1.272   .     A
O193   C203    1.288   .     A
O194   C200    1.278   .     A
O195   C201    1.270   .     A
O196   C198    1.271   .     A
O197   C199    1.281   .     A
C198   C224    1.436   .     S
C199   C222    1.454   .     S
C200   C228    1.435   .     S
C201   C226    1.451   .     S
C202   C207    1.451   .     S
C203   C219    1.495   .     S
C204   C218    1.401   .     A
C204   H746    1.084   1_554 S
C204   C754    1.402   1_554 S
H205   C215    1.084   .     S
H206   C744    1.084   .     S
C207   C217    1.392   .     A
C207   C218    1.413   .     A
C208   C233    1.450   .     S
C208   C209    1.402   .     A
C208   C219    1.420   .     A
C209   C750    1.405   .     S
C209   N778    1.436   .     S
C210   N235    1.437   .     S
C210   C749    1.405   1_554 S
C210   C751    1.427   1_554 S
C211   C212    1.424   .     A
C211   C750    1.427   .     S
C211   C753    1.430   .     S
C212   C216    1.414   .     A
C212   C219    1.421   .     A
C213   C217    1.402   .     A
C213   C751    1.430   1_554 S
C213   C754    1.417   1_554 S
C214   C215    1.389   .     A
C214   C744    1.402   .     S
C214   C753    1.417   .     S
C215   C216    1.384   .     A
C216   H221    1.080   .     S
C217   H220    1.079   .     S
C218   N230    1.446   .     S
C222   H283    1.088   .     S
C222   C284    1.334   .     S
H223   C342    1.088   1_455 S
C224   C342    1.334   1_455 S
C224   H345    1.086   1_455 S
H225   C284    1.086   .     S
C226   H407    1.088   .     S
C226   C408    1.331   .     S
H229   C408    1.086   .     S
N230   O232    1.302   .     A
N230   O231    1.302   .     A
C233   N234    1.158   .     T
N235   O236    1.301   .     A
N235   O237    1.302   .     A
N238   O239    1.301   .     A
N238   O240    1.300   .     A
N238   C749    1.436   1_554 S
Zn241  O245    1.957   .     S
Zn241  O253    1.929   .     S
Zn241  O254    1.930   .     S
Zn241  O247    1.923   .     S
Zn242  O256    1.923   .     S
Zn242  O245    1.948   .     S
Zn242  O250    1.932   .     S
Zn242  O248    1.934   .     S
Zn243  O249    1.929   .     S
Zn243  O252    1.939   .     S
Zn243  O257    1.934   .     S
Zn243  O245    1.934   .     S
Zn244  O255    1.931   .     S
Zn244  O251    1.943   .     S
Zn244  O246    1.932   .     S
Zn244  O245    1.929   .     S
O246   C258    1.270   .     A
O247   C259    1.278   .     A
O248   C260    1.278   .     A
O249   C261    1.269   .     A
O250   C262    1.275   .     A
O251   C263    1.283   .     A
O252   C262    1.272   .     A
O253   C263    1.288   .     A
O254   C260    1.278   .     A
O255   C261    1.270   .     A
O256   C258    1.271   .     A
O257   C259    1.281   .     A
C258   C284    1.436   .     S
C259   C282    1.454   .     S
C260   C288    1.435   .     S
C261   C286    1.451   .     S
C262   C267    1.451   .     S
C263   C279    1.495   .     S
C264   C278    1.401   .     A
C264   H806    1.084   1_554 S
C264   C814    1.402   1_554 S
H265   C275    1.084   .     S
H266   C804    1.084   .     S
C267   C277    1.392   .     A
C267   C278    1.413   .     A
C268   C293    1.450   .     S
C268   C269    1.402   .     A
C268   C279    1.420   .     A
C269   C810    1.405   .     S
C269   N838    1.436   .     S
C270   N295    1.437   .     S
C270   C809    1.405   1_554 S
C270   C811    1.427   1_554 S
C271   C272    1.424   .     A
C271   C810    1.427   .     S
C271   C813    1.430   .     S
C272   C276    1.414   .     A
C272   C279    1.421   .     A
C273   C277    1.402   .     A
C273   C811    1.430   1_554 S
C273   C814    1.417   1_554 S
C274   C275    1.389   .     A
C274   C804    1.402   .     S
C274   C813    1.417   .     S
C275   C276    1.384   .     A
C276   H281    1.080   .     S
C277   H280    1.079   .     S
C278   N290    1.446   .     S
C282   H343    1.088   .     S
C282   C344    1.334   .     S
H285   C344    1.086   .     S
C286   H467    1.088   .     S
C286   C468    1.331   .     S
H289   C468    1.086   .     S
N290   O292    1.302   .     A
N290   O291    1.302   .     A
C293   N294    1.158   .     T
N295   O296    1.301   .     A
N295   O297    1.302   .     A
N298   O299    1.301   .     A
N298   O300    1.300   .     A
N298   C809    1.436   1_554 S
Zn301  O305    1.957   .     S
Zn301  O313    1.929   .     S
Zn301  O314    1.930   .     S
Zn301  O307    1.923   .     S
Zn302  O316    1.923   .     S
Zn302  O305    1.948   .     S
Zn302  O310    1.932   .     S
Zn302  O308    1.934   .     S
Zn303  O309    1.929   .     S
Zn303  O312    1.939   .     S
Zn303  O317    1.934   .     S
Zn303  O305    1.934   .     S
Zn304  O315    1.931   .     S
Zn304  O311    1.943   .     S
Zn304  O306    1.932   .     S
Zn304  O305    1.929   .     S
O306   C318    1.270   .     A
O307   C319    1.278   .     A
O308   C320    1.278   .     A
O309   C321    1.269   .     A
O310   C322    1.275   .     A
O311   C323    1.283   .     A
O312   C322    1.272   .     A
O313   C323    1.288   .     A
O314   C320    1.278   .     A
O315   C321    1.270   .     A
O316   C318    1.271   .     A
O317   C319    1.281   .     A
C318   C344    1.436   .     S
C319   C342    1.454   .     S
C320   C348    1.435   .     S
C321   C346    1.451   .     S
C322   C327    1.451   .     S
C323   C339    1.495   .     S
C324   C338    1.401   .     A
C324   H866    1.084   1_554 S
C324   C874    1.402   1_554 S
H325   C335    1.084   .     S
H326   C864    1.084   .     S
C327   C337    1.392   .     A
C327   C338    1.413   .     A
C328   C353    1.450   .     S
C328   C329    1.402   .     A
C328   C339    1.420   .     A
C329   C870    1.405   .     S
C329   N898    1.436   .     S
C330   N355    1.437   .     S
C330   C869    1.405   1_554 S
C330   C871    1.427   1_554 S
C331   C332    1.424   .     A
C331   C870    1.427   .     S
C331   C873    1.430   .     S
C332   C336    1.414   .     A
C332   C339    1.421   .     A
C333   C337    1.402   .     A
C333   C871    1.430   1_554 S
C333   C874    1.417   1_554 S
C334   C335    1.389   .     A
C334   C864    1.402   .     S
C334   C873    1.417   .     S
C335   C336    1.384   .     A
C336   H341    1.080   .     S
C337   H340    1.079   .     S
C338   N350    1.446   .     S
C342   H223    1.088   1_655 S
C342   C224    1.334   1_655 S
H345   C224    1.086   1_655 S
C346   H527    1.088   .     S
C346   C528    1.331   .     S
H349   C528    1.086   .     S
N350   O352    1.302   .     A
N350   O351    1.302   .     A
C353   N354    1.158   .     T
N355   O356    1.301   .     A
N355   O357    1.302   .     A
N358   O359    1.301   .     A
N358   O360    1.300   .     A
N358   C869    1.436   1_554 S
Zn361  O365    1.957   .     S
Zn361  O373    1.929   .     S
Zn361  O374    1.930   .     S
Zn361  O367    1.923   .     S
Zn362  O376    1.923   .     S
Zn362  O365    1.948   .     S
Zn362  O370    1.932   .     S
Zn362  O368    1.934   .     S
Zn363  O369    1.929   .     S
Zn363  O372    1.939   .     S
Zn363  O377    1.934   .     S
Zn363  O365    1.934   .     S
Zn364  O375    1.931   .     S
Zn364  O371    1.943   .     S
Zn364  O366    1.932   .     S
Zn364  O365    1.929   .     S
O366   C378    1.270   .     A
O367   C379    1.278   .     A
O368   C380    1.278   .     A
O369   C381    1.269   .     A
O370   C382    1.275   .     A
O371   C383    1.283   .     A
O372   C382    1.272   .     A
O373   C383    1.288   .     A
O374   C380    1.278   .     A
O375   C381    1.270   .     A
O376   C378    1.271   .     A
O377   C379    1.281   .     A
C378   C404    1.436   .     S
C379   C402    1.454   .     S
C380   C408    1.435   .     S
C381   C406    1.451   .     S
C382   C387    1.451   .     S
C383   C399    1.495   .     S
C384   C398    1.401   .     A
C384   H926    1.084   1_554 S
C384   C934    1.402   1_554 S
H385   C395    1.084   .     S
H386   C924    1.084   .     S
C387   C397    1.392   .     A
C387   C398    1.413   .     A
C388   C413    1.450   .     S
C388   C389    1.402   .     A
C388   C399    1.420   .     A
C389   C930    1.405   .     S
C389   N958    1.436   .     S
C390   N415    1.437   .     S
C390   C929    1.405   1_554 S
C390   C931    1.427   1_554 S
C391   C392    1.424   .     A
C391   C930    1.427   .     S
C391   C933    1.430   .     S
C392   C396    1.414   .     A
C392   C399    1.421   .     A
C393   C397    1.402   .     A
C393   C931    1.430   1_554 S
C393   C934    1.417   1_554 S
C394   C395    1.389   .     A
C394   C924    1.402   .     S
C394   C933    1.417   .     S
C395   C396    1.384   .     A
C396   H401    1.080   .     S
C397   H400    1.079   .     S
C398   N410    1.446   .     S
C402   H463    1.088   .     S
C402   C464    1.334   .     S
H403   C522    1.088   1_455 S
C404   C522    1.334   1_455 S
C404   H525    1.086   1_455 S
H405   C464    1.086   .     S
C406   H47     1.088   1_565 S
C406   C48     1.331   1_565 S
H409   C48     1.086   1_565 S
N410   O412    1.302   .     A
N410   O411    1.302   .     A
C413   N414    1.158   .     T
N415   O416    1.301   .     A
N415   O417    1.302   .     A
N418   O419    1.301   .     A
N418   O420    1.300   .     A
N418   C929    1.436   1_554 S
Zn421  O425    1.957   .     S
Zn421  O433    1.929   .     S
Zn421  O434    1.930   .     S
Zn421  O427    1.923   .     S
Zn422  O436    1.923   .     S
Zn422  O425    1.948   .     S
Zn422  O430    1.932   .     S
Zn422  O428    1.934   .     S
Zn423  O429    1.929   .     S
Zn423  O432    1.939   .     S
Zn423  O437    1.934   .     S
Zn423  O425    1.934   .     S
Zn424  O435    1.931   .     S
Zn424  O431    1.943   .     S
Zn424  O426    1.932   .     S
Zn424  O425    1.929   .     S
O426   C438    1.270   .     A
O427   C439    1.278   .     A
O428   C440    1.278   .     A
O429   C441    1.269   .     A
O430   C442    1.275   .     A
O431   C443    1.283   .     A
O432   C442    1.272   .     A
O433   C443    1.288   .     A
O434   C440    1.278   .     A
O435   C441    1.270   .     A
O436   C438    1.271   .     A
O437   C439    1.281   .     A
C438   C464    1.436   .     S
C439   C462    1.454   .     S
C440   C468    1.435   .     S
C441   C466    1.451   .     S
C442   C447    1.451   .     S
C443   C459    1.495   .     S
C444   C458    1.401   .     A
C444   H986    1.084   1_554 S
C444   C994    1.402   1_554 S
H445   C455    1.084   .     S
H446   C984    1.084   .     S
C447   C457    1.392   .     A
C447   C458    1.413   .     A
C448   C473    1.450   .     S
C448   C449    1.402   .     A
C448   C459    1.420   .     A
C449   C990    1.405   .     S
C449   N1018   1.436   .     S
C450   N475    1.437   .     S
C450   C989    1.405   1_554 S
C450   C991    1.427   1_554 S
C451   C452    1.424   .     A
C451   C990    1.427   .     S
C451   C993    1.430   .     S
C452   C456    1.414   .     A
C452   C459    1.421   .     A
C453   C457    1.402   .     A
C453   C991    1.430   1_554 S
C453   C994    1.417   1_554 S
C454   C455    1.389   .     A
C454   C984    1.402   .     S
C454   C993    1.417   .     S
C455   C456    1.384   .     A
C456   H461    1.080   .     S
C457   H460    1.079   .     S
C458   N470    1.446   .     S
C462   H523    1.088   .     S
C462   C524    1.334   .     S
H465   C524    1.086   .     S
C466   H107    1.088   1_565 S
C466   C108    1.331   1_565 S
H469   C108    1.086   1_565 S
N470   O472    1.302   .     A
N470   O471    1.302   .     A
C473   N474    1.158   .     T
N475   O476    1.301   .     A
N475   O477    1.302   .     A
N478   O479    1.301   .     A
N478   O480    1.300   .     A
N478   C989    1.436   1_554 S
Zn481  O485    1.957   .     S
Zn481  O493    1.929   .     S
Zn481  O494    1.930   .     S
Zn481  O487    1.923   .     S
Zn482  O496    1.923   .     S
Zn482  O485    1.948   .     S
Zn482  O490    1.932   .     S
Zn482  O488    1.934   .     S
Zn483  O489    1.929   .     S
Zn483  O492    1.939   .     S
Zn483  O497    1.934   .     S
Zn483  O485    1.934   .     S
Zn484  O495    1.931   .     S
Zn484  O491    1.943   .     S
Zn484  O486    1.932   .     S
Zn484  O485    1.929   .     S
O486   C498    1.270   .     A
O487   C499    1.278   .     A
O488   C500    1.278   .     A
O489   C501    1.269   .     A
O490   C502    1.275   .     A
O491   C503    1.283   .     A
O492   C502    1.272   .     A
O493   C503    1.288   .     A
O494   C500    1.278   .     A
O495   C501    1.270   .     A
O496   C498    1.271   .     A
O497   C499    1.281   .     A
C498   C524    1.436   .     S
C499   C522    1.454   .     S
C500   C528    1.435   .     S
C501   C526    1.451   .     S
C502   C507    1.451   .     S
C503   C519    1.495   .     S
C504   C518    1.401   .     A
C504   H1046   1.084   1_554 S
C504   C1054   1.402   1_554 S
H505   C515    1.084   .     S
H506   C1044   1.084   .     S
C507   C517    1.392   .     A
C507   C518    1.413   .     A
C508   C533    1.450   .     S
C508   C509    1.402   .     A
C508   C519    1.420   .     A
C509   C1050   1.405   .     S
C509   N1078   1.436   .     S
C510   N535    1.437   .     S
C510   C1049   1.405   1_554 S
C510   C1051   1.427   1_554 S
C511   C512    1.424   .     A
C511   C1050   1.427   .     S
C511   C1053   1.430   .     S
C512   C516    1.414   .     A
C512   C519    1.421   .     A
C513   C517    1.402   .     A
C513   C1051   1.430   1_554 S
C513   C1054   1.417   1_554 S
C514   C515    1.389   .     A
C514   C1044   1.402   .     S
C514   C1053   1.417   .     S
C515   C516    1.384   .     A
C516   H521    1.080   .     S
C517   H520    1.079   .     S
C518   N530    1.446   .     S
C522   H403    1.088   1_655 S
C522   C404    1.334   1_655 S
H525   C404    1.086   1_655 S
C526   H167    1.088   1_565 S
C526   C168    1.331   1_565 S
H529   C168    1.086   1_565 S
N530   O532    1.302   .     A
N530   O531    1.302   .     A
C533   N534    1.158   .     T
N535   O536    1.301   .     A
N535   O537    1.302   .     A
N538   O539    1.301   .     A
N538   O540    1.300   .     A
N538   C1049   1.436   1_554 S
Zn541  O545    1.957   .     S
Zn541  O553    1.929   .     S
Zn541  O554    1.930   .     S
Zn541  O547    1.923   .     S
Zn542  O556    1.923   .     S
Zn542  O545    1.948   .     S
Zn542  O550    1.932   .     S
Zn542  O548    1.934   .     S
Zn543  O549    1.929   .     S
Zn543  O552    1.939   .     S
Zn543  O557    1.934   .     S
Zn543  O545    1.934   .     S
Zn544  O555    1.931   .     S
Zn544  O551    1.943   .     S
Zn544  O546    1.932   .     S
Zn544  O545    1.929   .     S
O546   C558    1.270   .     A
O547   C559    1.278   .     A
O548   C560    1.278   .     A
O549   C561    1.269   .     A
O550   C562    1.275   .     A
O551   C563    1.283   .     A
O552   C562    1.272   .     A
O553   C563    1.288   .     A
O554   C560    1.278   .     A
O555   C561    1.270   .     A
O556   C558    1.271   .     A
O557   C559    1.281   .     A
C558   C584    1.436   .     S
C559   C582    1.454   .     S
C560   C588    1.435   .     S
C561   C586    1.451   .     S
C562   C567    1.451   .     S
C563   C579    1.495   .     S
C564   C578    1.401   .     A
H565   C575    1.084   .     S
H566   C24     1.084   1_556 S
C567   C577    1.392   .     A
C567   C578    1.413   .     A
C568   C593    1.450   .     S
C568   C569    1.402   .     A
C568   C579    1.420   .     A
C569   C30     1.405   1_556 S
C569   N58     1.436   1_556 S
C570   N595    1.437   .     S
C571   C572    1.424   .     A
C571   C30     1.427   1_556 S
C571   C33     1.430   1_556 S
C572   C576    1.414   .     A
C572   C579    1.421   .     A
C573   C577    1.402   .     A
C574   C575    1.389   .     A
C574   C24     1.402   1_556 S
C574   C33     1.417   1_556 S
C575   C576    1.384   .     A
C576   H581    1.080   .     S
C577   H580    1.079   .     S
C578   N590    1.446   .     S
C582   H643    1.088   .     S
C582   C644    1.334   .     S
H583   C702    1.088   1_455 S
C584   C702    1.334   1_455 S
C584   H705    1.086   1_455 S
H585   C644    1.086   .     S
C586   H767    1.088   .     S
C586   C768    1.331   .     S
H587   C946    1.088   1_545 S
C588   C946    1.331   1_545 S
C588   H949    1.086   1_545 S
H589   C768    1.086   .     S
N590   O592    1.302   .     A
N590   O591    1.302   .     A
C593   N594    1.158   .     T
N595   O596    1.301   .     A
N595   O597    1.302   .     A
N598   O599    1.301   .     A
N598   O600    1.300   .     A
Zn601  O605    1.957   .     S
Zn601  O613    1.929   .     S
Zn601  O614    1.930   .     S
Zn601  O607    1.923   .     S
Zn602  O616    1.923   .     S
Zn602  O605    1.948   .     S
Zn602  O610    1.932   .     S
Zn602  O608    1.934   .     S
Zn603  O609    1.929   .     S
Zn603  O612    1.939   .     S
Zn603  O617    1.934   .     S
Zn603  O605    1.934   .     S
Zn604  O615    1.931   .     S
Zn604  O611    1.943   .     S
Zn604  O606    1.932   .     S
Zn604  O605    1.929   .     S
O606   C618    1.270   .     A
O607   C619    1.278   .     A
O608   C620    1.278   .     A
O609   C621    1.269   .     A
O610   C622    1.275   .     A
O611   C623    1.283   .     A
O612   C622    1.272   .     A
O613   C623    1.288   .     A
O614   C620    1.278   .     A
O615   C621    1.270   .     A
O616   C618    1.271   .     A
O617   C619    1.281   .     A
C618   C644    1.436   .     S
C619   C642    1.454   .     S
C620   C648    1.435   .     S
C621   C646    1.451   .     S
C622   C627    1.451   .     S
C623   C639    1.495   .     S
C624   C638    1.401   .     A
H625   C635    1.084   .     S
H626   C84     1.084   1_556 S
C627   C637    1.392   .     A
C627   C638    1.413   .     A
C628   C653    1.450   .     S
C628   C629    1.402   .     A
C628   C639    1.420   .     A
C629   C90     1.405   1_556 S
C629   N118    1.436   1_556 S
C630   N655    1.437   .     S
C631   C632    1.424   .     A
C631   C90     1.427   1_556 S
C631   C93     1.430   1_556 S
C632   C636    1.414   .     A
C632   C639    1.421   .     A
C633   C637    1.402   .     A
C634   C635    1.389   .     A
C634   C84     1.402   1_556 S
C634   C93     1.417   1_556 S
C635   C636    1.384   .     A
C636   H641    1.080   .     S
C637   H640    1.079   .     S
C638   N650    1.446   .     S
C642   H703    1.088   .     S
C642   C704    1.334   .     S
H645   C704    1.086   .     S
C646   H827    1.088   .     S
C646   C828    1.331   .     S
H647   C1006   1.088   1_545 S
C648   C1006   1.331   1_545 S
C648   H1009   1.086   1_545 S
H649   C828    1.086   .     S
N650   O652    1.302   .     A
N650   O651    1.302   .     A
C653   N654    1.158   .     T
N655   O656    1.301   .     A
N655   O657    1.302   .     A
N658   O659    1.301   .     A
N658   O660    1.300   .     A
Zn661  O665    1.957   .     S
Zn661  O673    1.929   .     S
Zn661  O674    1.930   .     S
Zn661  O667    1.923   .     S
Zn662  O676    1.923   .     S
Zn662  O665    1.948   .     S
Zn662  O670    1.932   .     S
Zn662  O668    1.934   .     S
Zn663  O669    1.929   .     S
Zn663  O672    1.939   .     S
Zn663  O677    1.934   .     S
Zn663  O665    1.934   .     S
Zn664  O675    1.931   .     S
Zn664  O671    1.943   .     S
Zn664  O666    1.932   .     S
Zn664  O665    1.929   .     S
O666   C678    1.270   .     A
O667   C679    1.278   .     A
O668   C680    1.278   .     A
O669   C681    1.269   .     A
O670   C682    1.275   .     A
O671   C683    1.283   .     A
O672   C682    1.272   .     A
O673   C683    1.288   .     A
O674   C680    1.278   .     A
O675   C681    1.270   .     A
O676   C678    1.271   .     A
O677   C679    1.281   .     A
C678   C704    1.436   .     S
C679   C702    1.454   .     S
C680   C708    1.435   .     S
C681   C706    1.451   .     S
C682   C687    1.451   .     S
C683   C699    1.495   .     S
C684   C698    1.401   .     A
H685   C695    1.084   .     S
H686   C144    1.084   1_556 S
C687   C697    1.392   .     A
C687   C698    1.413   .     A
C688   C713    1.450   .     S
C688   C689    1.402   .     A
C688   C699    1.420   .     A
C689   C150    1.405   1_556 S
C689   N178    1.436   1_556 S
C690   N715    1.437   .     S
C691   C692    1.424   .     A
C691   C150    1.427   1_556 S
C691   C153    1.430   1_556 S
C692   C696    1.414   .     A
C692   C699    1.421   .     A
C693   C697    1.402   .     A
C694   C695    1.389   .     A
C694   C144    1.402   1_556 S
C694   C153    1.417   1_556 S
C695   C696    1.384   .     A
C696   H701    1.080   .     S
C697   H700    1.079   .     S
C698   N710    1.446   .     S
C702   H583    1.088   1_655 S
C702   C584    1.334   1_655 S
H705   C584    1.086   1_655 S
C706   H887    1.088   .     S
C706   C888    1.331   .     S
H707   C1066   1.088   1_545 S
C708   C1066   1.331   1_545 S
C708   H1069   1.086   1_545 S
H709   C888    1.086   .     S
N710   O712    1.302   .     A
N710   O711    1.302   .     A
C713   N714    1.158   .     T
N715   O716    1.301   .     A
N715   O717    1.302   .     A
N718   O719    1.301   .     A
N718   O720    1.300   .     A
Zn721  O725    1.957   .     S
Zn721  O733    1.929   .     S
Zn721  O734    1.930   .     S
Zn721  O727    1.923   .     S
Zn722  O736    1.923   .     S
Zn722  O725    1.948   .     S
Zn722  O730    1.932   .     S
Zn722  O728    1.934   .     S
Zn723  O729    1.929   .     S
Zn723  O732    1.939   .     S
Zn723  O737    1.934   .     S
Zn723  O725    1.934   .     S
Zn724  O735    1.931   .     S
Zn724  O731    1.943   .     S
Zn724  O726    1.932   .     S
Zn724  O725    1.929   .     S
O726   C738    1.270   .     A
O727   C739    1.278   .     A
O728   C740    1.278   .     A
O729   C741    1.269   .     A
O730   C742    1.275   .     A
O731   C743    1.283   .     A
O732   C742    1.272   .     A
O733   C743    1.288   .     A
O734   C740    1.278   .     A
O735   C741    1.270   .     A
O736   C738    1.271   .     A
O737   C739    1.281   .     A
C738   C764    1.436   .     S
C739   C762    1.454   .     S
C740   C768    1.435   .     S
C741   C766    1.451   .     S
C742   C747    1.451   .     S
C743   C759    1.495   .     S
C744   C758    1.401   .     A
H745   C755    1.084   .     S
H746   C204    1.084   1_556 S
C747   C757    1.392   .     A
C747   C758    1.413   .     A
C748   C773    1.450   .     S
C748   C749    1.402   .     A
C748   C759    1.420   .     A
C749   C210    1.405   1_556 S
C749   N238    1.436   1_556 S
C750   N775    1.437   .     S
C751   C752    1.424   .     A
C751   C210    1.427   1_556 S
C751   C213    1.430   1_556 S
C752   C756    1.414   .     A
C752   C759    1.421   .     A
C753   C757    1.402   .     A
C754   C755    1.389   .     A
C754   C204    1.402   1_556 S
C754   C213    1.417   1_556 S
C755   C756    1.384   .     A
C756   H761    1.080   .     S
C757   H760    1.079   .     S
C758   N770    1.446   .     S
C762   H823    1.088   .     S
C762   C824    1.334   .     S
H763   C882    1.088   1_455 S
C764   C882    1.334   1_455 S
C764   H885    1.086   1_455 S
H765   C824    1.086   .     S
C766   H947    1.088   .     S
C766   C948    1.331   .     S
H769   C948    1.086   .     S
N770   O772    1.302   .     A
N770   O771    1.302   .     A
C773   N774    1.158   .     T
N775   O776    1.301   .     A
N775   O777    1.302   .     A
N778   O779    1.301   .     A
N778   O780    1.300   .     A
Zn781  O785    1.957   .     S
Zn781  O793    1.929   .     S
Zn781  O794    1.930   .     S
Zn781  O787    1.923   .     S
Zn782  O796    1.923   .     S
Zn782  O785    1.948   .     S
Zn782  O790    1.932   .     S
Zn782  O788    1.934   .     S
Zn783  O789    1.929   .     S
Zn783  O792    1.939   .     S
Zn783  O797    1.934   .     S
Zn783  O785    1.934   .     S
Zn784  O795    1.931   .     S
Zn784  O791    1.943   .     S
Zn784  O786    1.932   .     S
Zn784  O785    1.929   .     S
O786   C798    1.270   .     A
O787   C799    1.278   .     A
O788   C800    1.278   .     A
O789   C801    1.269   .     A
O790   C802    1.275   .     A
O791   C803    1.283   .     A
O792   C802    1.272   .     A
O793   C803    1.288   .     A
O794   C800    1.278   .     A
O795   C801    1.270   .     A
O796   C798    1.271   .     A
O797   C799    1.281   .     A
C798   C824    1.436   .     S
C799   C822    1.454   .     S
C800   C828    1.435   .     S
C801   C826    1.451   .     S
C802   C807    1.451   .     S
C803   C819    1.495   .     S
C804   C818    1.401   .     A
H805   C815    1.084   .     S
H806   C264    1.084   1_556 S
C807   C817    1.392   .     A
C807   C818    1.413   .     A
C808   C833    1.450   .     S
C808   C809    1.402   .     A
C808   C819    1.420   .     A
C809   C270    1.405   1_556 S
C809   N298    1.436   1_556 S
C810   N835    1.437   .     S
C811   C812    1.424   .     A
C811   C270    1.427   1_556 S
C811   C273    1.430   1_556 S
C812   C816    1.414   .     A
C812   C819    1.421   .     A
C813   C817    1.402   .     A
C814   C815    1.389   .     A
C814   C264    1.402   1_556 S
C814   C273    1.417   1_556 S
C815   C816    1.384   .     A
C816   H821    1.080   .     S
C817   H820    1.079   .     S
C818   N830    1.446   .     S
C822   H883    1.088   .     S
C822   C884    1.334   .     S
H825   C884    1.086   .     S
C826   H1007   1.088   .     S
C826   C1008   1.331   .     S
H829   C1008   1.086   .     S
N830   O832    1.302   .     A
N830   O831    1.302   .     A
C833   N834    1.158   .     T
N835   O836    1.301   .     A
N835   O837    1.302   .     A
N838   O839    1.301   .     A
N838   O840    1.300   .     A
Zn841  O845    1.957   .     S
Zn841  O853    1.929   .     S
Zn841  O854    1.930   .     S
Zn841  O847    1.923   .     S
Zn842  O856    1.923   .     S
Zn842  O845    1.948   .     S
Zn842  O850    1.932   .     S
Zn842  O848    1.934   .     S
Zn843  O849    1.929   .     S
Zn843  O852    1.939   .     S
Zn843  O857    1.934   .     S
Zn843  O845    1.934   .     S
Zn844  O855    1.931   .     S
Zn844  O851    1.943   .     S
Zn844  O846    1.932   .     S
Zn844  O845    1.929   .     S
O846   C858    1.270   .     A
O847   C859    1.278   .     A
O848   C860    1.278   .     A
O849   C861    1.269   .     A
O850   C862    1.275   .     A
O851   C863    1.283   .     A
O852   C862    1.272   .     A
O853   C863    1.288   .     A
O854   C860    1.278   .     A
O855   C861    1.270   .     A
O856   C858    1.271   .     A
O857   C859    1.281   .     A
C858   C884    1.436   .     S
C859   C882    1.454   .     S
C860   C888    1.435   .     S
C861   C886    1.451   .     S
C862   C867    1.451   .     S
C863   C879    1.495   .     S
C864   C878    1.401   .     A
H865   C875    1.084   .     S
H866   C324    1.084   1_556 S
C867   C877    1.392   .     A
C867   C878    1.413   .     A
C868   C893    1.450   .     S
C868   C869    1.402   .     A
C868   C879    1.420   .     A
C869   C330    1.405   1_556 S
C869   N358    1.436   1_556 S
C870   N895    1.437   .     S
C871   C872    1.424   .     A
C871   C330    1.427   1_556 S
C871   C333    1.430   1_556 S
C872   C876    1.414   .     A
C872   C879    1.421   .     A
C873   C877    1.402   .     A
C874   C875    1.389   .     A
C874   C324    1.402   1_556 S
C874   C333    1.417   1_556 S
C875   C876    1.384   .     A
C876   H881    1.080   .     S
C877   H880    1.079   .     S
C878   N890    1.446   .     S
C882   H763    1.088   1_655 S
C882   C764    1.334   1_655 S
H885   C764    1.086   1_655 S
C886   H1067   1.088   .     S
C886   C1068   1.331   .     S
H889   C1068   1.086   .     S
N890   O892    1.302   .     A
N890   O891    1.302   .     A
C893   N894    1.158   .     T
N895   O896    1.301   .     A
N895   O897    1.302   .     A
N898   O899    1.301   .     A
N898   O900    1.300   .     A
Zn901  O905    1.957   .     S
Zn901  O913    1.929   .     S
Zn901  O914    1.930   .     S
Zn901  O907    1.923   .     S
Zn902  O916    1.923   .     S
Zn902  O905    1.948   .     S
Zn902  O910    1.932   .     S
Zn902  O908    1.934   .     S
Zn903  O909    1.929   .     S
Zn903  O912    1.939   .     S
Zn903  O917    1.934   .     S
Zn903  O905    1.934   .     S
Zn904  O915    1.931   .     S
Zn904  O911    1.943   .     S
Zn904  O906    1.932   .     S
Zn904  O905    1.929   .     S
O906   C918    1.270   .     A
O907   C919    1.278   .     A
O908   C920    1.278   .     A
O909   C921    1.269   .     A
O910   C922    1.275   .     A
O911   C923    1.283   .     A
O912   C922    1.272   .     A
O913   C923    1.288   .     A
O914   C920    1.278   .     A
O915   C921    1.270   .     A
O916   C918    1.271   .     A
O917   C919    1.281   .     A
C918   C944    1.436   .     S
C919   C942    1.454   .     S
C920   C948    1.435   .     S
C921   C946    1.451   .     S
C922   C927    1.451   .     S
C923   C939    1.495   .     S
C924   C938    1.401   .     A
H925   C935    1.084   .     S
H926   C384    1.084   1_556 S
C927   C937    1.392   .     A
C927   C938    1.413   .     A
C928   C953    1.450   .     S
C928   C929    1.402   .     A
C928   C939    1.420   .     A
C929   C390    1.405   1_556 S
C929   N418    1.436   1_556 S
C930   N955    1.437   .     S
C931   C932    1.424   .     A
C931   C390    1.427   1_556 S
C931   C393    1.430   1_556 S
C932   C936    1.414   .     A
C932   C939    1.421   .     A
C933   C937    1.402   .     A
C934   C935    1.389   .     A
C934   C384    1.402   1_556 S
C934   C393    1.417   1_556 S
C935   C936    1.384   .     A
C936   H941    1.080   .     S
C937   H940    1.079   .     S
C938   N950    1.446   .     S
C942   H1003   1.088   .     S
C942   C1004   1.334   .     S
H943   C1062   1.088   1_455 S
C944   C1062   1.334   1_455 S
C944   H1065   1.086   1_455 S
H945   C1004   1.086   .     S
C946   H587    1.088   1_565 S
C946   C588    1.331   1_565 S
H949   C588    1.086   1_565 S
N950   O952    1.302   .     A
N950   O951    1.302   .     A
C953   N954    1.158   .     T
N955   O956    1.301   .     A
N955   O957    1.302   .     A
N958   O959    1.301   .     A
N958   O960    1.300   .     A
Zn961  O965    1.957   .     S
Zn961  O973    1.929   .     S
Zn961  O974    1.930   .     S
Zn961  O967    1.923   .     S
Zn962  O976    1.923   .     S
Zn962  O965    1.948   .     S
Zn962  O970    1.932   .     S
Zn962  O968    1.934   .     S
Zn963  O969    1.929   .     S
Zn963  O972    1.939   .     S
Zn963  O977    1.934   .     S
Zn963  O965    1.934   .     S
Zn964  O975    1.931   .     S
Zn964  O971    1.943   .     S
Zn964  O966    1.932   .     S
Zn964  O965    1.929   .     S
O966   C978    1.270   .     A
O967   C979    1.278   .     A
O968   C980    1.278   .     A
O969   C981    1.269   .     A
O970   C982    1.275   .     A
O971   C983    1.283   .     A
O972   C982    1.272   .     A
O973   C983    1.288   .     A
O974   C980    1.278   .     A
O975   C981    1.270   .     A
O976   C978    1.271   .     A
O977   C979    1.281   .     A
C978   C1004   1.436   .     S
C979   C1002   1.454   .     S
C980   C1008   1.435   .     S
C981   C1006   1.451   .     S
C982   C987    1.451   .     S
C983   C999    1.495   .     S
C984   C998    1.401   .     A
H985   C995    1.084   .     S
H986   C444    1.084   1_556 S
C987   C997    1.392   .     A
C987   C998    1.413   .     A
C988   C1013   1.450   .     S
C988   C989    1.402   .     A
C988   C999    1.420   .     A
C989   C450    1.405   1_556 S
C989   N478    1.436   1_556 S
C990   N1015   1.437   .     S
C991   C992    1.424   .     A
C991   C450    1.427   1_556 S
C991   C453    1.430   1_556 S
C992   C996    1.414   .     A
C992   C999    1.421   .     A
C993   C997    1.402   .     A
C994   C995    1.389   .     A
C994   C444    1.402   1_556 S
C994   C453    1.417   1_556 S
C995   C996    1.384   .     A
C996   H1001   1.080   .     S
C997   H1000   1.079   .     S
C998   N1010   1.446   .     S
C1002  H1063   1.088   .     S
C1002  C1064   1.334   .     S
H1005  C1064   1.086   .     S
C1006  H647    1.088   1_565 S
C1006  C648    1.331   1_565 S
H1009  C648    1.086   1_565 S
N1010  O1012   1.302   .     A
N1010  O1011   1.302   .     A
C1013  N1014   1.158   .     T
N1015  O1016   1.301   .     A
N1015  O1017   1.302   .     A
N1018  O1019   1.301   .     A
N1018  O1020   1.300   .     A
Zn1021 O1025   1.957   .     S
Zn1021 O1033   1.929   .     S
Zn1021 O1034   1.930   .     S
Zn1021 O1027   1.923   .     S
Zn1022 O1036   1.923   .     S
Zn1022 O1025   1.948   .     S
Zn1022 O1030   1.932   .     S
Zn1022 O1028   1.934   .     S
Zn1023 O1029   1.929   .     S
Zn1023 O1032   1.939   .     S
Zn1023 O1037   1.934   .     S
Zn1023 O1025   1.934   .     S
Zn1024 O1035   1.931   .     S
Zn1024 O1031   1.943   .     S
Zn1024 O1026   1.932   .     S
Zn1024 O1025   1.929   .     S
O1026  C1038   1.270   .     A
O1027  C1039   1.278   .     A
O1028  C1040   1.278   .     A
O1029  C1041   1.269   .     A
O1030  C1042   1.275   .     A
O1031  C1043   1.283   .     A
O1032  C1042   1.272   .     A
O1033  C1043   1.288   .     A
O1034  C1040   1.278   .     A
O1035  C1041   1.270   .     A
O1036  C1038   1.271   .     A
O1037  C1039   1.281   .     A
C1038  C1064   1.436   .     S
C1039  C1062   1.454   .     S
C1040  C1068   1.435   .     S
C1041  C1066   1.451   .     S
C1042  C1047   1.451   .     S
C1043  C1059   1.495   .     S
C1044  C1058   1.401   .     A
H1045  C1055   1.084   .     S
H1046  C504    1.084   1_556 S
C1047  C1057   1.392   .     A
C1047  C1058   1.413   .     A
C1048  C1073   1.450   .     S
C1048  C1049   1.402   .     A
C1048  C1059   1.420   .     A
C1049  C510    1.405   1_556 S
C1049  N538    1.436   1_556 S
C1050  N1075   1.437   .     S
C1051  C1052   1.424   .     A
C1051  C510    1.427   1_556 S
C1051  C513    1.430   1_556 S
C1052  C1056   1.414   .     A
C1052  C1059   1.421   .     A
C1053  C1057   1.402   .     A
C1054  C1055   1.389   .     A
C1054  C504    1.402   1_556 S
C1054  C513    1.417   1_556 S
C1055  C1056   1.384   .     A
C1056  H1061   1.080   .     S
C1057  H1060   1.079   .     S
C1058  N1070   1.446   .     S
C1062  H943    1.088   1_655 S
C1062  C944    1.334   1_655 S
H1065  C944    1.086   1_655 S
C1066  H707    1.088   1_565 S
C1066  C708    1.331   1_565 S
H1069  C708    1.086   1_565 S
N1070  O1072   1.302   .     A
N1070  O1071   1.302   .     A
C1073  N1074   1.158   .     T
N1075  O1076   1.301   .     A
N1075  O1077   1.302   .     A
N1078  O1079   1.301   .     A
N1078  O1080   1.300   .     A
