data_str_m1_o1_o17_pcu_sym.161
_audit_creation_date              2020-01-03
_audit_creation_method            'Materials Studio'
_symmetry_space_group_name_H-M    'P1'
_symmetry_Int_Tables_number       1
_symmetry_cell_setting            triclinic
loop_
_symmetry_equiv_pos_as_xyz
  x,y,z
_cell_length_a                    36.5705
_cell_length_b                    36.4877
_cell_length_c                    34.4879
_cell_angle_alpha                 90.0282
_cell_angle_beta                  90.0859
_cell_angle_gamma                 89.9091
loop_
_atom_site_label
_atom_site_type_symbol
_atom_site_fract_x
_atom_site_fract_y
_atom_site_fract_z
_atom_site_U_iso_or_equiv
_atom_site_adp_type
_atom_site_occupancy
C1     C     0.46793   0.25813   0.41859   0.00000  Uiso   1.00
C2     C     0.03209   0.24222   0.58140   0.00000  Uiso   1.00
C3     C     0.24229   0.03219   0.41868   0.00000  Uiso   1.00
C4     C     0.25906   0.46802   0.58134   0.00000  Uiso   1.00
C5     C     0.03208   0.24189   0.41870   0.00000  Uiso   1.00
C6     C     0.46793   0.25840   0.58130   0.00000  Uiso   1.00
C7     C     0.25853   0.46791   0.41865   0.00000  Uiso   1.00
C8     C     0.24276   0.03227   0.58135   0.00000  Uiso   1.00
C9     C     0.21779   0.00718   0.91859   0.00000  Uiso   1.00
C10    C     0.28199   0.49155   0.08140   0.00000  Uiso   1.00
C11    C     0.49247   0.28230   0.91867   0.00000  Uiso   1.00
C12    C     0.00730   0.21764   0.08133   0.00000  Uiso   1.00
C13    C     0.28189   0.49074   0.91869   0.00000  Uiso   1.00
C14    C     0.21780   0.00766   0.08129   0.00000  Uiso   1.00
C15    C     0.00739   0.21770   0.91865   0.00000  Uiso   1.00
C16    C     0.49283   0.28235   0.08135   0.00000  Uiso   1.00
C17    C     0.00002   0.25002   0.39842   0.00000  Uiso   1.00
C18    C     0.49998   0.25019   0.60158   0.00000  Uiso   1.00
C19    C     0.25024   0.00002   0.39845   0.00000  Uiso   1.00
C20    C     0.25054   0.00006   0.60156   0.00000  Uiso   1.00
C21    C     0.24995   0.49939   0.89842   0.00000  Uiso   1.00
C22    C     0.24993   0.49979   0.10157   0.00000  Uiso   1.00
C23    C     0.49995   0.25001   0.89844   0.00000  Uiso   1.00
C24    C     0.00005   0.24999   0.10156   0.00000  Uiso   1.00
C25    C     0.06462   0.23140   0.47965   0.00000  Uiso   1.00
C26    C     0.43543   0.26908   0.52035   0.00000  Uiso   1.00
C27    C     0.26977   0.43542   0.47949   0.00000  Uiso   1.00
C28    C     0.23291   0.06505   0.52049   0.00000  Uiso   1.00
C29    C     0.43528   0.26832   0.47942   0.00000  Uiso   1.00
C30    C     0.06478   0.23219   0.52058   0.00000  Uiso   1.00
C31    C     0.23208   0.06486   0.47957   0.00000  Uiso   1.00
C32    C     0.27134   0.43582   0.52048   0.00000  Uiso   1.00
C33    C     0.31434   0.47996   0.97966   0.00000  Uiso   1.00
C34    C     0.18494   0.01679   0.02030   0.00000  Uiso   1.00
C35    C     0.01726   0.18486   0.97952   0.00000  Uiso   1.00
C36    C     0.48359   0.31532   0.02048   0.00000  Uiso   1.00
C37    C     0.18455   0.01515   0.97940   0.00000  Uiso   1.00
C38    C     0.31452   0.48086   0.02059   0.00000  Uiso   1.00
C39    C     0.48267   0.31514   0.97956   0.00000  Uiso   1.00
C40    C     0.01657   0.18470   0.02044   0.00000  Uiso   1.00
C41    C     0.25002   0.00001   0.35601   0.00000  Uiso   1.00
C42    C     0.25005  -0.00000   0.64399   0.00000  Uiso   1.00
C43    C     0.00002   0.25001   0.35599   0.00000  Uiso   1.00
C44    C     0.49998   0.25003   0.64401   0.00000  Uiso   1.00
C45    C     0.49998   0.25001   0.85601   0.00000  Uiso   1.00
C46    C     0.00001   0.24999   0.14399   0.00000  Uiso   1.00
C47    C     0.25001   0.49996   0.85599   0.00000  Uiso   1.00
C48    C     0.24998   0.00000   0.14401   0.00000  Uiso   1.00
C49    C     0.18008   0.06999   0.24998   0.00000  Uiso   1.00
C50    C     0.31992   0.43001   0.75002   0.00000  Uiso   1.00
C51    C     0.43010   0.17997   0.24996   0.00000  Uiso   1.00
C52    C     0.06990   0.32003   0.75004   0.00000  Uiso   1.00
C53    C     0.31990   0.43000   0.25003   0.00000  Uiso   1.00
C54    C     0.18010   0.07000   0.74997   0.00000  Uiso   1.00
C55    C     0.06999   0.31995   0.25001   0.00000  Uiso   1.00
C56    C     0.43001   0.18005   0.74999   0.00000  Uiso   1.00
C57    C     0.18010   0.42997   0.74996   0.00000  Uiso   1.00
C58    C     0.31990   0.07003   0.25004   0.00000  Uiso   1.00
C59    C     0.43008   0.31999   0.74997   0.00000  Uiso   1.00
C60    C     0.06992   0.18001   0.25003   0.00000  Uiso   1.00
C61    C     0.31999   0.06995   0.75001   0.00000  Uiso   1.00
C62    C     0.18001   0.43005   0.24999   0.00000  Uiso   1.00
C63    C     0.06990   0.18000   0.75003   0.00000  Uiso   1.00
C64    C     0.43010   0.32000   0.24997   0.00000  Uiso   1.00
C65    C     0.11732   0.41027   0.26555   0.00000  Uiso   1.00
C66    C     0.38268   0.08974   0.73443   0.00000  Uiso   1.00
C67    C     0.09206   0.11941   0.27094   0.00000  Uiso   1.00
C68    C     0.40779   0.38044   0.72875   0.00000  Uiso   1.00
C69    C     0.38314   0.08967   0.26532   0.00000  Uiso   1.00
C70    C     0.11689   0.41029   0.73459   0.00000  Uiso   1.00
C71    C     0.41008   0.38271   0.26580   0.00000  Uiso   1.00
C72    C     0.08987   0.11724   0.73436   0.00000  Uiso   1.00
C73    C     0.11727   0.09006   0.73352   0.00000  Uiso   1.00
C74    C     0.38268   0.40988   0.26663   0.00000  Uiso   1.00
C75    C     0.08952   0.38317   0.73552   0.00000  Uiso   1.00
C76    C     0.41051   0.11680   0.26437   0.00000  Uiso   1.00
C77    C     0.38061   0.40786   0.72855   0.00000  Uiso   1.00
C78    C     0.11924   0.09199   0.27115   0.00000  Uiso   1.00
C79    C     0.40992   0.11703   0.73379   0.00000  Uiso   1.00
C80    C     0.09008   0.38298   0.26619   0.00000  Uiso   1.00
C81    C     0.36732   0.16026   0.76556   0.00000  Uiso   1.00
C82    C     0.13268   0.33973   0.23445   0.00000  Uiso   1.00
C83    C     0.34221   0.36956   0.77124   0.00000  Uiso   1.00
C84    C     0.15794   0.13060   0.22908   0.00000  Uiso   1.00
C85    C     0.13310   0.33971   0.76543   0.00000  Uiso   1.00
C86    C     0.36687   0.16033   0.23468   0.00000  Uiso   1.00
C87    C     0.16014   0.13277   0.76560   0.00000  Uiso   1.00
C88    C     0.33992   0.36729   0.23420   0.00000  Uiso   1.00
C89    C     0.36732   0.34012   0.23337   0.00000  Uiso   1.00
C90    C     0.13274   0.15994   0.76645   0.00000  Uiso   1.00
C91    C     0.33949   0.13320   0.23563   0.00000  Uiso   1.00
C92    C     0.16048   0.36684   0.76450   0.00000  Uiso   1.00
C93    C     0.13076   0.15802   0.22886   0.00000  Uiso   1.00
C94    C     0.36939   0.34213   0.77143   0.00000  Uiso   1.00
C95    C     0.15992   0.36703   0.23381   0.00000  Uiso   1.00
C96    C     0.34008   0.13297   0.76620   0.00000  Uiso   1.00
C97    C     0.03241   0.24102   0.45931   0.00000  Uiso   1.00
C98    C     0.46762   0.25939   0.54070   0.00000  Uiso   1.00
C99    C     0.25991   0.46766   0.45926   0.00000  Uiso   1.00
C100   C     0.24230   0.03272   0.54075   0.00000  Uiso   1.00
C101   C     0.46755   0.25896   0.45919   0.00000  Uiso   1.00
C102   C     0.03248   0.24149   0.54080   0.00000  Uiso   1.00
C103   C     0.24174   0.03260   0.45928   0.00000  Uiso   1.00
C104   C     0.26082   0.46788   0.54075   0.00000  Uiso   1.00
C105   C     0.28212   0.48948   0.95930   0.00000  Uiso   1.00
C106   C     0.21733   0.00793   0.04068   0.00000  Uiso   1.00
C107   C     0.00833   0.21734   0.95925   0.00000  Uiso   1.00
C108   C     0.49208   0.28275   0.04075   0.00000  Uiso   1.00
C109   C     0.21707   0.00668   0.95918   0.00000  Uiso   1.00
C110   C     0.28226   0.49029   0.04081   0.00000  Uiso   1.00
C111   C     0.49156   0.28265   0.95926   0.00000  Uiso   1.00
C112   C     0.00804   0.21725   0.04074   0.00000  Uiso   1.00
C113   C     0.09804   0.34811   0.25031   0.00000  Uiso   1.00
C114   C     0.40196   0.15189   0.74969   0.00000  Uiso   1.00
C115   C     0.15187   0.09800   0.25017   0.00000  Uiso   1.00
C116   C     0.34813   0.40201   0.74984   0.00000  Uiso   1.00
C117   C     0.40196   0.15189   0.24951   0.00000  Uiso   1.00
C118   C     0.09804   0.34811   0.75049   0.00000  Uiso   1.00
C119   C     0.34804   0.40191   0.25043   0.00000  Uiso   1.00
C120   C     0.15196   0.09809   0.74955   0.00000  Uiso   1.00
C121   C     0.09804   0.15191   0.75043   0.00000  Uiso   1.00
C122   C     0.40196   0.34809   0.24957   0.00000  Uiso   1.00
C123   C     0.15196   0.40189   0.74952   0.00000  Uiso   1.00
C124   C     0.34804   0.09811   0.25049   0.00000  Uiso   1.00
C125   C     0.40187   0.34799   0.75016   0.00000  Uiso   1.00
C126   C     0.09813   0.15200   0.24984   0.00000  Uiso   1.00
C127   C     0.34804   0.09811   0.75031   0.00000  Uiso   1.00
C128   C     0.15196   0.40189   0.24969   0.00000  Uiso   1.00
C129   C     0.00001   0.25015   0.47966   0.00000  Uiso   1.00
C130   C     0.00002   0.25029   0.52034   0.00000  Uiso   1.00
C131   C     0.25119   0.00022   0.47968   0.00000  Uiso   1.00
C132   C     0.25142   0.00026   0.52034   0.00000  Uiso   1.00
C133   C     0.24962   0.49824   0.97965   0.00000  Uiso   1.00
C134   C     0.24970   0.49871   0.02033   0.00000  Uiso   1.00
C135   C     0.49998   0.25000   0.97966   0.00000  Uiso   1.00
C136   C     0.00003   0.25000   0.02033   0.00000  Uiso   1.00
H137   H     0.44334   0.26428   0.40232   0.00000  Uiso   1.00
H138   H     0.05667   0.23606   0.59767   0.00000  Uiso   1.00
H139   H     0.23617   0.05685   0.40246   0.00000  Uiso   1.00
H140   H     0.26454   0.44322   0.59756   0.00000  Uiso   1.00
H141   H     0.05673   0.23592   0.40253   0.00000  Uiso   1.00
H142   H     0.44326   0.26432   0.59749   0.00000  Uiso   1.00
H143   H     0.26458   0.44327   0.40238   0.00000  Uiso   1.00
H144   H     0.23642   0.05687   0.59758   0.00000  Uiso   1.00
H145   H     0.19345   0.01431   0.90233   0.00000  Uiso   1.00
H146   H     0.30663   0.48563   0.09768   0.00000  Uiso   1.00
H147   H     0.48706   0.30714   0.90246   0.00000  Uiso   1.00
H148   H     0.01279   0.19284   0.09755   0.00000  Uiso   1.00
H149   H     0.30658   0.48492   0.90251   0.00000  Uiso   1.00
H150   H     0.19319   0.01381   0.09746   0.00000  Uiso   1.00
H151   H     0.01280   0.19287   0.90243   0.00000  Uiso   1.00
H152   H     0.48733   0.30715   0.09758   0.00000  Uiso   1.00
O153   O     0.25000   0.00000   0.25000   0.00000  Uiso   1.00
O154   O     0.25000   0.00000   0.75000   0.00000  Uiso   1.00
O155   O     0.00000   0.25000   0.25000   0.00000  Uiso   1.00
O156   O     0.00000   0.25000   0.75000   0.00000  Uiso   1.00
O157   O     0.25000   0.46964   0.33755   0.00000  Uiso   1.00
O158   O     0.25000   0.03037   0.66245   0.00000  Uiso   1.00
O159   O     0.03037   0.25000   0.33755   0.00000  Uiso   1.00
O160   O     0.46964   0.25000   0.66245   0.00000  Uiso   1.00
O161   O     0.25000   0.03037   0.33755   0.00000  Uiso   1.00
O162   O     0.25000   0.46964   0.66245   0.00000  Uiso   1.00
O163   O     0.46964   0.25000   0.33755   0.00000  Uiso   1.00
O164   O     0.03037   0.25000   0.66245   0.00000  Uiso   1.00
O165   O     0.00000   0.21963   0.83755   0.00000  Uiso   1.00
O166   O     0.00000   0.28037   0.16245   0.00000  Uiso   1.00
O167   O     0.28037   0.00000   0.83755   0.00000  Uiso   1.00
O168   O     0.21964   0.00000   0.16245   0.00000  Uiso   1.00
O169   O     0.00000   0.28036   0.83755   0.00000  Uiso   1.00
O170   O     0.00000   0.21963   0.16245   0.00000  Uiso   1.00
O171   O     0.21964   0.00000   0.83755   0.00000  Uiso   1.00
O172   O     0.28037   0.00000   0.16245   0.00000  Uiso   1.00
O173   O     0.20725   0.07308   0.27302   0.00000  Uiso   1.00
O174   O     0.29276   0.42693   0.72698   0.00000  Uiso   1.00
O175   O     0.42693   0.20725   0.27302   0.00000  Uiso   1.00
O176   O     0.07308   0.29275   0.72698   0.00000  Uiso   1.00
O177   O     0.29276   0.42693   0.27302   0.00000  Uiso   1.00
O178   O     0.20725   0.07308   0.72698   0.00000  Uiso   1.00
O179   O     0.07308   0.29275   0.27302   0.00000  Uiso   1.00
O180   O     0.42693   0.20725   0.72698   0.00000  Uiso   1.00
O181   O     0.20725   0.42693   0.72698   0.00000  Uiso   1.00
O182   O     0.29276   0.07308   0.27302   0.00000  Uiso   1.00
O183   O     0.42693   0.29276   0.72698   0.00000  Uiso   1.00
O184   O     0.07308   0.20725   0.27302   0.00000  Uiso   1.00
O185   O     0.29276   0.07308   0.72698   0.00000  Uiso   1.00
O186   O     0.20725   0.42693   0.27302   0.00000  Uiso   1.00
O187   O     0.07308   0.20725   0.72698   0.00000  Uiso   1.00
O188   O     0.42693   0.29276   0.27302   0.00000  Uiso   1.00
O189   O     0.45725   0.32308   0.77302   0.00000  Uiso   1.00
O190   O     0.04276   0.17692   0.22698   0.00000  Uiso   1.00
O191   O     0.17693   0.45725   0.77302   0.00000  Uiso   1.00
O192   O     0.32308   0.04276   0.22698   0.00000  Uiso   1.00
O193   O     0.04276   0.17692   0.77302   0.00000  Uiso   1.00
O194   O     0.45725   0.32308   0.22698   0.00000  Uiso   1.00
O195   O     0.32308   0.04276   0.77302   0.00000  Uiso   1.00
O196   O     0.17693   0.45725   0.22698   0.00000  Uiso   1.00
O197   O     0.45725   0.17693   0.22698   0.00000  Uiso   1.00
O198   O     0.04276   0.32307   0.77302   0.00000  Uiso   1.00
O199   O     0.17693   0.04276   0.22698   0.00000  Uiso   1.00
O200   O     0.32308   0.45725   0.77302   0.00000  Uiso   1.00
O201   O     0.04276   0.32307   0.22698   0.00000  Uiso   1.00
O202   O     0.45725   0.17693   0.77302   0.00000  Uiso   1.00
O203   O     0.32308   0.45725   0.22698   0.00000  Uiso   1.00
O204   O     0.17693   0.04276   0.77302   0.00000  Uiso   1.00
Zn205  Zn    0.20660   0.00000   0.21735   0.00000  Uiso   1.00
Zn206  Zn    0.29341   0.00000   0.78265   0.00000  Uiso   1.00
Zn207  Zn    0.00000   0.20659   0.21735   0.00000  Uiso   1.00
Zn208  Zn    0.00000   0.29340   0.78265   0.00000  Uiso   1.00
Zn209  Zn    0.29341   0.00000   0.21735   0.00000  Uiso   1.00
Zn210  Zn    0.20660   0.00000   0.78265   0.00000  Uiso   1.00
Zn211  Zn    0.00000   0.29340   0.21735   0.00000  Uiso   1.00
Zn212  Zn    0.00000   0.20659   0.78265   0.00000  Uiso   1.00
Zn213  Zn    0.45660   0.25000   0.71735   0.00000  Uiso   1.00
Zn214  Zn    0.04341   0.25000   0.28265   0.00000  Uiso   1.00
Zn215  Zn    0.25000   0.45660   0.71735   0.00000  Uiso   1.00
Zn216  Zn    0.25000   0.04341   0.28265   0.00000  Uiso   1.00
Zn217  Zn    0.04341   0.25000   0.71735   0.00000  Uiso   1.00
Zn218  Zn    0.45660   0.25000   0.28265   0.00000  Uiso   1.00
Zn219  Zn    0.25000   0.04341   0.71735   0.00000  Uiso   1.00
Zn220  Zn    0.25000   0.45660   0.28265   0.00000  Uiso   1.00
N221   N     0.09638   0.22016   0.45873   0.00000  Uiso   1.00
H222   H     0.12102   0.22893   0.46977   0.00000  Uiso   1.00
C223   C     0.09674   0.18191   0.44756   0.00000  Uiso   1.00
H224   H     0.09776   0.16409   0.47359   0.00000  Uiso   1.00
H225   H     0.12120   0.17627   0.42946   0.00000  Uiso   1.00
H226   H     0.07201   0.17502   0.43032   0.00000  Uiso   1.00
N227   N     0.40367   0.28032   0.54128   0.00000  Uiso   1.00
H228   H     0.37902   0.27159   0.53020   0.00000  Uiso   1.00
C229   C     0.40334   0.31855   0.55250   0.00000  Uiso   1.00
H230   H     0.40229   0.33641   0.52649   0.00000  Uiso   1.00
H231   H     0.42810   0.32541   0.56971   0.00000  Uiso   1.00
H232   H     0.37892   0.32417   0.57065   0.00000  Uiso   1.00
N233   N     0.27710   0.40265   0.45824   0.00000  Uiso   1.00
H234   H     0.26482   0.37914   0.46832   0.00000  Uiso   1.00
C235   C     0.31448   0.39766   0.44561   0.00000  Uiso   1.00
H236   H     0.33153   0.38720   0.46978   0.00000  Uiso   1.00
H237   H     0.32612   0.42376   0.43458   0.00000  Uiso   1.00
H238   H     0.31518   0.37720   0.42179   0.00000  Uiso   1.00
N239   N     0.22411   0.09755   0.54154   0.00000  Uiso   1.00
H240   H     0.23617   0.12158   0.53257   0.00000  Uiso   1.00
C241   C     0.18671   0.10109   0.55479   0.00000  Uiso   1.00
H242   H     0.17241   0.12264   0.53784   0.00000  Uiso   1.00
H243   H     0.18674   0.10928   0.58578   0.00000  Uiso   1.00
H244   H     0.17140   0.07490   0.55193   0.00000  Uiso   1.00
N245   N     0.40284   0.27710   0.45832   0.00000  Uiso   1.00
H246   H     0.37890   0.26489   0.46719   0.00000  Uiso   1.00
C247   C     0.39918   0.31462   0.44516   0.00000  Uiso   1.00
H248   H     0.37744   0.32877   0.46192   0.00000  Uiso   1.00
H249   H     0.39128   0.31466   0.41408   0.00000  Uiso   1.00
H250   H     0.42519   0.33012   0.44834   0.00000  Uiso   1.00
N251   N     0.09723   0.22349   0.54169   0.00000  Uiso   1.00
H252   H     0.12118   0.23564   0.53273   0.00000  Uiso   1.00
C253   C     0.10086   0.18603   0.55502   0.00000  Uiso   1.00
H254   H     0.12228   0.17169   0.53799   0.00000  Uiso   1.00
H255   H     0.07472   0.17066   0.55233   0.00000  Uiso   1.00
H256   H     0.10920   0.18611   0.58596   0.00000  Uiso   1.00
N257   N     0.22068   0.09664   0.45860   0.00000  Uiso   1.00
H258   H     0.22939   0.12138   0.46957   0.00000  Uiso   1.00
C259   C     0.18248   0.09687   0.44753   0.00000  Uiso   1.00
H260   H     0.16478   0.09789   0.47360   0.00000  Uiso   1.00
H261   H     0.17561   0.07203   0.43039   0.00000  Uiso   1.00
H262   H     0.17672   0.12133   0.42937   0.00000  Uiso   1.00
N263   N     0.28410   0.40453   0.54149   0.00000  Uiso   1.00
H264   H     0.27827   0.37935   0.52959   0.00000  Uiso   1.00
C265   C     0.32141   0.40712   0.55547   0.00000  Uiso   1.00
H266   H     0.34079   0.40924   0.53090   0.00000  Uiso   1.00
H267   H     0.32826   0.38230   0.57265   0.00000  Uiso   1.00
H268   H     0.32499   0.43144   0.57443   0.00000  Uiso   1.00
N269   N     0.34614   0.46882   0.95873   0.00000  Uiso   1.00
H270   H     0.37077   0.47764   0.96975   0.00000  Uiso   1.00
C271   C     0.34657   0.43058   0.94749   0.00000  Uiso   1.00
H272   H     0.34759   0.41273   0.97351   0.00000  Uiso   1.00
H273   H     0.37105   0.42501   0.92941   0.00000  Uiso   1.00
H274   H     0.32186   0.42369   0.93021   0.00000  Uiso   1.00
N275   N     0.15272   0.02671   0.04116   0.00000  Uiso   1.00
H276   H     0.12865   0.01654   0.02996   0.00000  Uiso   1.00
C277   C     0.15039   0.06516   0.05127   0.00000  Uiso   1.00
H278   H     0.14816   0.08224   0.02472   0.00000  Uiso   1.00
H279   H     0.17486   0.07377   0.06805   0.00000  Uiso   1.00
H280   H     0.12581   0.06990   0.06947   0.00000  Uiso   1.00
N281   N     0.02769   0.15278   0.95851   0.00000  Uiso   1.00
H282   H     0.01837   0.12829   0.96948   0.00000  Uiso   1.00
C283   C     0.06583   0.15155   0.94739   0.00000  Uiso   1.00
H284   H     0.08359   0.15008   0.97345   0.00000  Uiso   1.00
H285   H     0.07326   0.17620   0.93026   0.00000  Uiso   1.00
H286   H     0.07086   0.12695   0.92920   0.00000  Uiso   1.00
N287   N     0.47581   0.34808   0.04153   0.00000  Uiso   1.00
H288   H     0.48867   0.37170   0.03259   0.00000  Uiso   1.00
C289   C     0.43850   0.35285   0.05463   0.00000  Uiso   1.00
H290   H     0.42492   0.37472   0.03748   0.00000  Uiso   1.00
H291   H     0.43869   0.36122   0.08556   0.00000  Uiso   1.00
H292   H     0.42240   0.32712   0.05190   0.00000  Uiso   1.00
N293   N     0.15178   0.02283   0.95837   0.00000  Uiso   1.00
H294   H     0.13587   0.04362   0.96956   0.00000  Uiso   1.00
C295   C     0.13081   0.49072   0.94786   0.00000  Uiso   1.00
H296   H     0.12033   0.47682   0.97425   0.00000  Uiso   1.00
H297   H     0.14786   0.47114   0.93107   0.00000  Uiso   1.00
H298   H     0.10722   0.49901   0.92953   0.00000  Uiso   1.00
N299   N     0.34698   0.47219   0.04171   0.00000  Uiso   1.00
H300   H     0.37097   0.48416   0.03265   0.00000  Uiso   1.00
C301   C     0.35045   0.43481   0.05535   0.00000  Uiso   1.00
H302   H     0.37153   0.42014   0.03816   0.00000  Uiso   1.00
H303   H     0.32415   0.41965   0.05317   0.00000  Uiso   1.00
H304   H     0.35916   0.43508   0.08618   0.00000  Uiso   1.00
N305   N     0.47208   0.34720   0.95859   0.00000  Uiso   1.00
H306   H     0.48127   0.37172   0.96965   0.00000  Uiso   1.00
C307   C     0.43393   0.34828   0.94735   0.00000  Uiso   1.00
H308   H     0.41616   0.34962   0.97336   0.00000  Uiso   1.00
H309   H     0.42660   0.32364   0.93012   0.00000  Uiso   1.00
H310   H     0.42878   0.37290   0.92923   0.00000  Uiso   1.00
N311   N     0.02468   0.15200   0.04147   0.00000  Uiso   1.00
H312   H     0.01207   0.12824   0.03248   0.00000  Uiso   1.00
C313   C     0.06201   0.14763   0.05481   0.00000  Uiso   1.00
H314   H     0.07575   0.12552   0.03812   0.00000  Uiso   1.00
H315   H     0.06182   0.13979   0.08589   0.00000  Uiso   1.00
H316   H     0.07799   0.17338   0.05168   0.00000  Uiso   1.00
C317   C     0.11052   0.44843   0.28200   0.00000  Uiso   1.00
H318   H     0.11332   0.46914   0.25863   0.00000  Uiso   1.00
H319   H     0.08316   0.45255   0.29486   0.00000  Uiso   1.00
H320   H     0.13084   0.45437   0.30512   0.00000  Uiso   1.00
C321   C     0.38946   0.05158   0.71796   0.00000  Uiso   1.00
H322   H     0.38667   0.03086   0.74131   0.00000  Uiso   1.00
H323   H     0.36913   0.04567   0.69484   0.00000  Uiso   1.00
H324   H     0.41682   0.04747   0.70508   0.00000  Uiso   1.00
C325   C     0.05639   0.11497   0.29309   0.00000  Uiso   1.00
H326   H     0.03312   0.11621   0.27248   0.00000  Uiso   1.00
H327   H     0.05378   0.08894   0.30921   0.00000  Uiso   1.00
H328   H     0.05354   0.13750   0.31454   0.00000  Uiso   1.00
C329   C     0.44331   0.38472   0.70629   0.00000  Uiso   1.00
H330   H     0.46672   0.38358   0.72671   0.00000  Uiso   1.00
H331   H     0.44597   0.36206   0.68496   0.00000  Uiso   1.00
H332   H     0.44581   0.41065   0.68996   0.00000  Uiso   1.00
C333   C     0.39129   0.05239   0.28305   0.00000  Uiso   1.00
H334   H     0.36748   0.03378   0.28431   0.00000  Uiso   1.00
H335   H     0.41286   0.03830   0.26597   0.00000  Uiso   1.00
H336   H     0.40051   0.05587   0.31352   0.00000  Uiso   1.00
C337   C     0.10877   0.44754   0.71676   0.00000  Uiso   1.00
H338   H     0.13258   0.46615   0.71554   0.00000  Uiso   1.00
H339   H     0.09963   0.44400   0.68627   0.00000  Uiso   1.00
H340   H     0.08716   0.46165   0.73375   0.00000  Uiso   1.00
C341   C     0.44810   0.38958   0.28232   0.00000  Uiso   1.00
H342   H     0.46871   0.38691   0.25890   0.00000  Uiso   1.00
H343   H     0.45207   0.41698   0.29530   0.00000  Uiso   1.00
H344   H     0.45417   0.36915   0.30532   0.00000  Uiso   1.00
C345   C     0.05179   0.11031   0.71800   0.00000  Uiso   1.00
H346   H     0.03126   0.11302   0.74149   0.00000  Uiso   1.00
H347   H     0.04564   0.13068   0.69496   0.00000  Uiso   1.00
H348   H     0.04779   0.08288   0.70510   0.00000  Uiso   1.00
C349   C     0.10959   0.05318   0.71468   0.00000  Uiso   1.00
H350   H     0.13341   0.03448   0.71380   0.00000  Uiso   1.00
H351   H     0.08754   0.03886   0.73074   0.00000  Uiso   1.00
H352   H     0.10123   0.05730   0.68403   0.00000  Uiso   1.00
C353   C     0.39030   0.44672   0.28561   0.00000  Uiso   1.00
H354   H     0.36648   0.46542   0.28644   0.00000  Uiso   1.00
H355   H     0.39856   0.44251   0.31628   0.00000  Uiso   1.00
H356   H     0.41242   0.46107   0.26968   0.00000  Uiso   1.00
C357   C     0.05104   0.39061   0.72054   0.00000  Uiso   1.00
H358   H     0.03131   0.38791   0.74475   0.00000  Uiso   1.00
H359   H     0.04682   0.41820   0.70809   0.00000  Uiso   1.00
H360   H     0.04401   0.37054   0.69749   0.00000  Uiso   1.00
C361   C     0.44902   0.10930   0.27922   0.00000  Uiso   1.00
H362   H     0.46868   0.11201   0.25493   0.00000  Uiso   1.00
H363   H     0.45614   0.12935   0.30226   0.00000  Uiso   1.00
H364   H     0.45326   0.08170   0.29162   0.00000  Uiso   1.00
C365   C     0.38630   0.44289   0.70546   0.00000  Uiso   1.00
H366   H     0.36322   0.46251   0.70698   0.00000  Uiso   1.00
H367   H     0.41080   0.45753   0.71649   0.00000  Uiso   1.00
H368   H     0.39000   0.43612   0.67432   0.00000  Uiso   1.00
C369   C     0.11340   0.05681   0.29393   0.00000  Uiso   1.00
H370   H     0.13650   0.03722   0.29249   0.00000  Uiso   1.00
H371   H     0.10946   0.06338   0.32509   0.00000  Uiso   1.00
H372   H     0.08899   0.04222   0.28259   0.00000  Uiso   1.00
C373   C     0.44684   0.10903   0.71535   0.00000  Uiso   1.00
H374   H     0.46578   0.13264   0.71490   0.00000  Uiso   1.00
H375   H     0.46075   0.08662   0.73143   0.00000  Uiso   1.00
H376   H     0.44292   0.10090   0.68460   0.00000  Uiso   1.00
C377   C     0.05316   0.39098   0.28463   0.00000  Uiso   1.00
H378   H     0.03422   0.36736   0.28510   0.00000  Uiso   1.00
H379   H     0.05707   0.39912   0.31538   0.00000  Uiso   1.00
H380   H     0.03924   0.41337   0.26853   0.00000  Uiso   1.00
C381   C     0.36054   0.19842   0.78204   0.00000  Uiso   1.00
H382   H     0.36333   0.21914   0.75868   0.00000  Uiso   1.00
H383   H     0.33318   0.20254   0.79491   0.00000  Uiso   1.00
H384   H     0.38086   0.20434   0.80515   0.00000  Uiso   1.00
C385   C     0.13948   0.30157   0.21800   0.00000  Uiso   1.00
H386   H     0.13668   0.28087   0.24137   0.00000  Uiso   1.00
H387   H     0.11916   0.29563   0.19488   0.00000  Uiso   1.00
H388   H     0.16684   0.29745   0.20514   0.00000  Uiso   1.00
C389   C     0.30669   0.36528   0.79371   0.00000  Uiso   1.00
H390   H     0.28327   0.36642   0.77329   0.00000  Uiso   1.00
H391   H     0.30418   0.33935   0.81003   0.00000  Uiso   1.00
H392   H     0.30403   0.38794   0.81503   0.00000  Uiso   1.00
C393   C     0.19362   0.13504   0.20694   0.00000  Uiso   1.00
H394   H     0.21688   0.13380   0.22756   0.00000  Uiso   1.00
H395   H     0.19647   0.11251   0.18548   0.00000  Uiso   1.00
H396   H     0.19623   0.16107   0.19082   0.00000  Uiso   1.00
C397   C     0.14122   0.30246   0.78326   0.00000  Uiso   1.00
H398   H     0.11741   0.28385   0.78448   0.00000  Uiso   1.00
H399   H     0.16284   0.28835   0.76628   0.00000  Uiso   1.00
H400   H     0.15036   0.30601   0.81375   0.00000  Uiso   1.00
C401   C     0.35871   0.19761   0.21695   0.00000  Uiso   1.00
H402   H     0.38252   0.21621   0.21569   0.00000  Uiso   1.00
H403   H     0.34949   0.19412   0.18648   0.00000  Uiso   1.00
H404   H     0.33715   0.21170   0.23403   0.00000  Uiso   1.00
C405   C     0.19823   0.13972   0.78191   0.00000  Uiso   1.00
H406   H     0.21874   0.13701   0.75840   0.00000  Uiso   1.00
H407   H     0.20224   0.16716   0.79479   0.00000  Uiso   1.00
H408   H     0.20442   0.11936   0.80495   0.00000  Uiso   1.00
C409   C     0.30190   0.36043   0.21768   0.00000  Uiso   1.00
H410   H     0.28129   0.36309   0.24110   0.00000  Uiso   1.00
H411   H     0.29583   0.38085   0.19468   0.00000  Uiso   1.00
H412   H     0.29793   0.33302   0.20469   0.00000  Uiso   1.00
C413   C     0.35969   0.30328   0.21440   0.00000  Uiso   1.00
H414   H     0.38351   0.28458   0.21357   0.00000  Uiso   1.00
H415   H     0.33758   0.28894   0.23033   0.00000  Uiso   1.00
H416   H     0.35144   0.30749   0.18372   0.00000  Uiso   1.00
C417   C     0.14042   0.19683   0.78528   0.00000  Uiso   1.00
H418   H     0.11659   0.21552   0.78619   0.00000  Uiso   1.00
H419   H     0.14881   0.19271   0.81592   0.00000  Uiso   1.00
H420   H     0.16245   0.21116   0.76920   0.00000  Uiso   1.00
C421   C     0.30098   0.14070   0.22078   0.00000  Uiso   1.00
H422   H     0.28133   0.13799   0.24507   0.00000  Uiso   1.00
H423   H     0.29674   0.16830   0.20838   0.00000  Uiso   1.00
H424   H     0.29386   0.12065   0.19774   0.00000  Uiso   1.00
C425   C     0.19895   0.35939   0.77950   0.00000  Uiso   1.00
H426   H     0.21869   0.36210   0.75528   0.00000  Uiso   1.00
H427   H     0.20597   0.37947   0.80254   0.00000  Uiso   1.00
H428   H     0.20317   0.33181   0.79194   0.00000  Uiso   1.00
C429   C     0.13661   0.19320   0.20608   0.00000  Uiso   1.00
H430   H     0.11350   0.21278   0.20752   0.00000  Uiso   1.00
H431   H     0.16101   0.20778   0.21743   0.00000  Uiso   1.00
H432   H     0.14055   0.18663   0.17493   0.00000  Uiso   1.00
C433   C     0.36368   0.30709   0.79450   0.00000  Uiso   1.00
H434   H     0.38675   0.28746   0.79296   0.00000  Uiso   1.00
H435   H     0.35999   0.31385   0.82564   0.00000  Uiso   1.00
H436   H     0.33917   0.29247   0.78345   0.00000  Uiso   1.00
C437   C     0.19684   0.35902   0.21537   0.00000  Uiso   1.00
H438   H     0.21578   0.38264   0.21490   0.00000  Uiso   1.00
H439   H     0.21076   0.33664   0.23146   0.00000  Uiso   1.00
H440   H     0.19292   0.35088   0.18462   0.00000  Uiso   1.00
C441   C     0.30316   0.14098   0.78463   0.00000  Uiso   1.00
H442   H     0.28422   0.11737   0.78508   0.00000  Uiso   1.00
H443   H     0.30707   0.14910   0.81539   0.00000  Uiso   1.00
H444   H     0.28925   0.16338   0.76855   0.00000  Uiso   1.00
C445   C     0.96793   0.25813   0.41859   0.00000  Uiso   1.00
C446   C     0.53209   0.24222   0.58140   0.00000  Uiso   1.00
C447   C     0.74229   0.03219   0.41868   0.00000  Uiso   1.00
C448   C     0.75906   0.46802   0.58134   0.00000  Uiso   1.00
C449   C     0.53208   0.24189   0.41870   0.00000  Uiso   1.00
C450   C     0.96793   0.25840   0.58130   0.00000  Uiso   1.00
C451   C     0.75853   0.46791   0.41865   0.00000  Uiso   1.00
C452   C     0.74276   0.03227   0.58135   0.00000  Uiso   1.00
C453   C     0.71779   0.00718   0.91859   0.00000  Uiso   1.00
C454   C     0.78199   0.49155   0.08140   0.00000  Uiso   1.00
C455   C     0.99247   0.28230   0.91867   0.00000  Uiso   1.00
C456   C     0.50730   0.21764   0.08133   0.00000  Uiso   1.00
C457   C     0.78189   0.49074   0.91869   0.00000  Uiso   1.00
C458   C     0.71780   0.00766   0.08129   0.00000  Uiso   1.00
C459   C     0.50739   0.21770   0.91865   0.00000  Uiso   1.00
C460   C     0.99283   0.28235   0.08135   0.00000  Uiso   1.00
C461   C     0.50002   0.25002   0.39842   0.00000  Uiso   1.00
C462   C     0.99998   0.25019   0.60158   0.00000  Uiso   1.00
C463   C     0.75024   0.00002   0.39845   0.00000  Uiso   1.00
C464   C     0.75054   0.00006   0.60156   0.00000  Uiso   1.00
C465   C     0.74995   0.49939   0.89842   0.00000  Uiso   1.00
C466   C     0.74993   0.49979   0.10157   0.00000  Uiso   1.00
C467   C     0.99995   0.25001   0.89844   0.00000  Uiso   1.00
C468   C     0.50005   0.24999   0.10156   0.00000  Uiso   1.00
C469   C     0.56462   0.23140   0.47965   0.00000  Uiso   1.00
C470   C     0.93543   0.26908   0.52035   0.00000  Uiso   1.00
C471   C     0.76977   0.43542   0.47949   0.00000  Uiso   1.00
C472   C     0.73291   0.06505   0.52049   0.00000  Uiso   1.00
C473   C     0.93528   0.26832   0.47942   0.00000  Uiso   1.00
C474   C     0.56478   0.23219   0.52058   0.00000  Uiso   1.00
C475   C     0.73208   0.06486   0.47957   0.00000  Uiso   1.00
C476   C     0.77134   0.43582   0.52048   0.00000  Uiso   1.00
C477   C     0.81434   0.47996   0.97966   0.00000  Uiso   1.00
C478   C     0.68494   0.01679   0.02030   0.00000  Uiso   1.00
C479   C     0.51726   0.18486   0.97952   0.00000  Uiso   1.00
C480   C     0.98359   0.31532   0.02048   0.00000  Uiso   1.00
C481   C     0.68455   0.01515   0.97940   0.00000  Uiso   1.00
C482   C     0.81452   0.48086   0.02059   0.00000  Uiso   1.00
C483   C     0.98267   0.31514   0.97956   0.00000  Uiso   1.00
C484   C     0.51657   0.18470   0.02044   0.00000  Uiso   1.00
C485   C     0.75002   0.00001   0.35601   0.00000  Uiso   1.00
C486   C     0.75005  -0.00000   0.64399   0.00000  Uiso   1.00
C487   C     0.50002   0.25001   0.35599   0.00000  Uiso   1.00
C488   C     0.99998   0.25003   0.64401   0.00000  Uiso   1.00
C489   C     0.99998   0.25001   0.85601   0.00000  Uiso   1.00
C490   C     0.50001   0.24999   0.14399   0.00000  Uiso   1.00
C491   C     0.75001   0.49996   0.85599   0.00000  Uiso   1.00
C492   C     0.74998   0.00000   0.14401   0.00000  Uiso   1.00
C493   C     0.68008   0.06999   0.24998   0.00000  Uiso   1.00
C494   C     0.81992   0.43001   0.75002   0.00000  Uiso   1.00
C495   C     0.93010   0.17997   0.24996   0.00000  Uiso   1.00
C496   C     0.56990   0.32003   0.75004   0.00000  Uiso   1.00
C497   C     0.81990   0.43000   0.25003   0.00000  Uiso   1.00
C498   C     0.68010   0.07000   0.74997   0.00000  Uiso   1.00
C499   C     0.56999   0.31995   0.25001   0.00000  Uiso   1.00
C500   C     0.93001   0.18005   0.74999   0.00000  Uiso   1.00
C501   C     0.68010   0.42997   0.74996   0.00000  Uiso   1.00
C502   C     0.81990   0.07003   0.25004   0.00000  Uiso   1.00
C503   C     0.93008   0.31999   0.74997   0.00000  Uiso   1.00
C504   C     0.56992   0.18001   0.25003   0.00000  Uiso   1.00
C505   C     0.81999   0.06995   0.75001   0.00000  Uiso   1.00
C506   C     0.68001   0.43005   0.24999   0.00000  Uiso   1.00
C507   C     0.56990   0.18000   0.75003   0.00000  Uiso   1.00
C508   C     0.93010   0.32000   0.24997   0.00000  Uiso   1.00
C509   C     0.61732   0.41027   0.26555   0.00000  Uiso   1.00
C510   C     0.88268   0.08974   0.73443   0.00000  Uiso   1.00
C511   C     0.59206   0.11941   0.27094   0.00000  Uiso   1.00
C512   C     0.90779   0.38044   0.72875   0.00000  Uiso   1.00
C513   C     0.88314   0.08967   0.26532   0.00000  Uiso   1.00
C514   C     0.61689   0.41029   0.73459   0.00000  Uiso   1.00
C515   C     0.91008   0.38271   0.26580   0.00000  Uiso   1.00
C516   C     0.58987   0.11724   0.73436   0.00000  Uiso   1.00
C517   C     0.61727   0.09006   0.73352   0.00000  Uiso   1.00
C518   C     0.88268   0.40988   0.26663   0.00000  Uiso   1.00
C519   C     0.58952   0.38317   0.73552   0.00000  Uiso   1.00
C520   C     0.91051   0.11680   0.26437   0.00000  Uiso   1.00
C521   C     0.88061   0.40786   0.72855   0.00000  Uiso   1.00
C522   C     0.61924   0.09199   0.27115   0.00000  Uiso   1.00
C523   C     0.90992   0.11703   0.73379   0.00000  Uiso   1.00
C524   C     0.59008   0.38298   0.26619   0.00000  Uiso   1.00
C525   C     0.86732   0.16026   0.76556   0.00000  Uiso   1.00
C526   C     0.63268   0.33973   0.23445   0.00000  Uiso   1.00
C527   C     0.84221   0.36956   0.77124   0.00000  Uiso   1.00
C528   C     0.65794   0.13060   0.22908   0.00000  Uiso   1.00
C529   C     0.63310   0.33971   0.76543   0.00000  Uiso   1.00
C530   C     0.86687   0.16033   0.23468   0.00000  Uiso   1.00
C531   C     0.66014   0.13277   0.76560   0.00000  Uiso   1.00
C532   C     0.83992   0.36729   0.23420   0.00000  Uiso   1.00
C533   C     0.86732   0.34012   0.23337   0.00000  Uiso   1.00
C534   C     0.63274   0.15994   0.76645   0.00000  Uiso   1.00
C535   C     0.83949   0.13320   0.23563   0.00000  Uiso   1.00
C536   C     0.66048   0.36684   0.76450   0.00000  Uiso   1.00
C537   C     0.63076   0.15802   0.22886   0.00000  Uiso   1.00
C538   C     0.86939   0.34213   0.77143   0.00000  Uiso   1.00
C539   C     0.65992   0.36703   0.23381   0.00000  Uiso   1.00
C540   C     0.84008   0.13297   0.76620   0.00000  Uiso   1.00
C541   C     0.53241   0.24102   0.45931   0.00000  Uiso   1.00
C542   C     0.96762   0.25939   0.54070   0.00000  Uiso   1.00
C543   C     0.75991   0.46766   0.45926   0.00000  Uiso   1.00
C544   C     0.74230   0.03272   0.54075   0.00000  Uiso   1.00
C545   C     0.96755   0.25896   0.45919   0.00000  Uiso   1.00
C546   C     0.53248   0.24149   0.54080   0.00000  Uiso   1.00
C547   C     0.74174   0.03260   0.45928   0.00000  Uiso   1.00
C548   C     0.76082   0.46788   0.54075   0.00000  Uiso   1.00
C549   C     0.78212   0.48948   0.95930   0.00000  Uiso   1.00
C550   C     0.71733   0.00793   0.04068   0.00000  Uiso   1.00
C551   C     0.50833   0.21734   0.95925   0.00000  Uiso   1.00
C552   C     0.99208   0.28275   0.04075   0.00000  Uiso   1.00
C553   C     0.71707   0.00668   0.95918   0.00000  Uiso   1.00
C554   C     0.78226   0.49029   0.04081   0.00000  Uiso   1.00
C555   C     0.99156   0.28265   0.95926   0.00000  Uiso   1.00
C556   C     0.50804   0.21725   0.04074   0.00000  Uiso   1.00
C557   C     0.59804   0.34811   0.25031   0.00000  Uiso   1.00
C558   C     0.90196   0.15189   0.74969   0.00000  Uiso   1.00
C559   C     0.65187   0.09800   0.25017   0.00000  Uiso   1.00
C560   C     0.84813   0.40201   0.74984   0.00000  Uiso   1.00
C561   C     0.90196   0.15189   0.24951   0.00000  Uiso   1.00
C562   C     0.59804   0.34811   0.75049   0.00000  Uiso   1.00
C563   C     0.84804   0.40191   0.25043   0.00000  Uiso   1.00
C564   C     0.65196   0.09809   0.74955   0.00000  Uiso   1.00
C565   C     0.59804   0.15191   0.75043   0.00000  Uiso   1.00
C566   C     0.90196   0.34809   0.24957   0.00000  Uiso   1.00
C567   C     0.65196   0.40189   0.74952   0.00000  Uiso   1.00
C568   C     0.84804   0.09811   0.25049   0.00000  Uiso   1.00
C569   C     0.90187   0.34799   0.75016   0.00000  Uiso   1.00
C570   C     0.59813   0.15200   0.24984   0.00000  Uiso   1.00
C571   C     0.84804   0.09811   0.75031   0.00000  Uiso   1.00
C572   C     0.65196   0.40189   0.24969   0.00000  Uiso   1.00
C573   C     0.50001   0.25015   0.47966   0.00000  Uiso   1.00
C574   C     0.50002   0.25029   0.52034   0.00000  Uiso   1.00
C575   C     0.75119   0.00022   0.47968   0.00000  Uiso   1.00
C576   C     0.75142   0.00026   0.52034   0.00000  Uiso   1.00
C577   C     0.74962   0.49824   0.97965   0.00000  Uiso   1.00
C578   C     0.74970   0.49871   0.02033   0.00000  Uiso   1.00
C579   C     0.99998   0.25000   0.97966   0.00000  Uiso   1.00
C580   C     0.50003   0.25000   0.02033   0.00000  Uiso   1.00
H581   H     0.94334   0.26428   0.40232   0.00000  Uiso   1.00
H582   H     0.55667   0.23606   0.59767   0.00000  Uiso   1.00
H583   H     0.73617   0.05685   0.40246   0.00000  Uiso   1.00
H584   H     0.76454   0.44322   0.59756   0.00000  Uiso   1.00
H585   H     0.55673   0.23592   0.40253   0.00000  Uiso   1.00
H586   H     0.94326   0.26432   0.59749   0.00000  Uiso   1.00
H587   H     0.76458   0.44327   0.40238   0.00000  Uiso   1.00
H588   H     0.73642   0.05687   0.59758   0.00000  Uiso   1.00
H589   H     0.69345   0.01431   0.90233   0.00000  Uiso   1.00
H590   H     0.80663   0.48563   0.09768   0.00000  Uiso   1.00
H591   H     0.98706   0.30714   0.90246   0.00000  Uiso   1.00
H592   H     0.51279   0.19284   0.09755   0.00000  Uiso   1.00
H593   H     0.80658   0.48492   0.90251   0.00000  Uiso   1.00
H594   H     0.69319   0.01381   0.09746   0.00000  Uiso   1.00
H595   H     0.51280   0.19287   0.90243   0.00000  Uiso   1.00
H596   H     0.98733   0.30715   0.09758   0.00000  Uiso   1.00
O597   O     0.75000   0.00000   0.25000   0.00000  Uiso   1.00
O598   O     0.75000   0.00000   0.75000   0.00000  Uiso   1.00
O599   O     0.50000   0.25000   0.25000   0.00000  Uiso   1.00
O600   O     0.50000   0.25000   0.75000   0.00000  Uiso   1.00
O601   O     0.75000   0.46964   0.33755   0.00000  Uiso   1.00
O602   O     0.75000   0.03037   0.66245   0.00000  Uiso   1.00
O603   O     0.53037   0.25000   0.33755   0.00000  Uiso   1.00
O604   O     0.96964   0.25000   0.66245   0.00000  Uiso   1.00
O605   O     0.75000   0.03037   0.33755   0.00000  Uiso   1.00
O606   O     0.75000   0.46964   0.66245   0.00000  Uiso   1.00
O607   O     0.96964   0.25000   0.33755   0.00000  Uiso   1.00
O608   O     0.53037   0.25000   0.66245   0.00000  Uiso   1.00
O609   O     0.50000   0.21963   0.83755   0.00000  Uiso   1.00
O610   O     0.50000   0.28037   0.16245   0.00000  Uiso   1.00
O611   O     0.78037   0.00000   0.83755   0.00000  Uiso   1.00
O612   O     0.71964   0.00000   0.16245   0.00000  Uiso   1.00
O613   O     0.50000   0.28036   0.83755   0.00000  Uiso   1.00
O614   O     0.50000   0.21963   0.16245   0.00000  Uiso   1.00
O615   O     0.71964   0.00000   0.83755   0.00000  Uiso   1.00
O616   O     0.78037   0.00000   0.16245   0.00000  Uiso   1.00
O617   O     0.70725   0.07308   0.27302   0.00000  Uiso   1.00
O618   O     0.79276   0.42693   0.72698   0.00000  Uiso   1.00
O619   O     0.92693   0.20725   0.27302   0.00000  Uiso   1.00
O620   O     0.57308   0.29275   0.72698   0.00000  Uiso   1.00
O621   O     0.79276   0.42693   0.27302   0.00000  Uiso   1.00
O622   O     0.70725   0.07308   0.72698   0.00000  Uiso   1.00
O623   O     0.57308   0.29275   0.27302   0.00000  Uiso   1.00
O624   O     0.92693   0.20725   0.72698   0.00000  Uiso   1.00
O625   O     0.70725   0.42693   0.72698   0.00000  Uiso   1.00
O626   O     0.79276   0.07308   0.27302   0.00000  Uiso   1.00
O627   O     0.92693   0.29276   0.72698   0.00000  Uiso   1.00
O628   O     0.57308   0.20725   0.27302   0.00000  Uiso   1.00
O629   O     0.79276   0.07308   0.72698   0.00000  Uiso   1.00
O630   O     0.70725   0.42693   0.27302   0.00000  Uiso   1.00
O631   O     0.57308   0.20725   0.72698   0.00000  Uiso   1.00
O632   O     0.92693   0.29276   0.27302   0.00000  Uiso   1.00
O633   O     0.95725   0.32308   0.77302   0.00000  Uiso   1.00
O634   O     0.54276   0.17692   0.22698   0.00000  Uiso   1.00
O635   O     0.67693   0.45725   0.77302   0.00000  Uiso   1.00
O636   O     0.82308   0.04276   0.22698   0.00000  Uiso   1.00
O637   O     0.54276   0.17692   0.77302   0.00000  Uiso   1.00
O638   O     0.95725   0.32308   0.22698   0.00000  Uiso   1.00
O639   O     0.82308   0.04276   0.77302   0.00000  Uiso   1.00
O640   O     0.67693   0.45725   0.22698   0.00000  Uiso   1.00
O641   O     0.95725   0.17693   0.22698   0.00000  Uiso   1.00
O642   O     0.54276   0.32307   0.77302   0.00000  Uiso   1.00
O643   O     0.67693   0.04276   0.22698   0.00000  Uiso   1.00
O644   O     0.82308   0.45725   0.77302   0.00000  Uiso   1.00
O645   O     0.54276   0.32307   0.22698   0.00000  Uiso   1.00
O646   O     0.95725   0.17693   0.77302   0.00000  Uiso   1.00
O647   O     0.82308   0.45725   0.22698   0.00000  Uiso   1.00
O648   O     0.67693   0.04276   0.77302   0.00000  Uiso   1.00
Zn649  Zn    0.70660   0.00000   0.21735   0.00000  Uiso   1.00
Zn650  Zn    0.79341   0.00000   0.78265   0.00000  Uiso   1.00
Zn651  Zn    0.50000   0.20659   0.21735   0.00000  Uiso   1.00
Zn652  Zn    0.50000   0.29340   0.78265   0.00000  Uiso   1.00
Zn653  Zn    0.79341   0.00000   0.21735   0.00000  Uiso   1.00
Zn654  Zn    0.70660   0.00000   0.78265   0.00000  Uiso   1.00
Zn655  Zn    0.50000   0.29340   0.21735   0.00000  Uiso   1.00
Zn656  Zn    0.50000   0.20659   0.78265   0.00000  Uiso   1.00
Zn657  Zn    0.95660   0.25000   0.71735   0.00000  Uiso   1.00
Zn658  Zn    0.54341   0.25000   0.28265   0.00000  Uiso   1.00
Zn659  Zn    0.75000   0.45660   0.71735   0.00000  Uiso   1.00
Zn660  Zn    0.75000   0.04341   0.28265   0.00000  Uiso   1.00
Zn661  Zn    0.54341   0.25000   0.71735   0.00000  Uiso   1.00
Zn662  Zn    0.95660   0.25000   0.28265   0.00000  Uiso   1.00
Zn663  Zn    0.75000   0.04341   0.71735   0.00000  Uiso   1.00
Zn664  Zn    0.75000   0.45660   0.28265   0.00000  Uiso   1.00
N665   N     0.59638   0.22016   0.45873   0.00000  Uiso   1.00
H666   H     0.62102   0.22893   0.46977   0.00000  Uiso   1.00
C667   C     0.59674   0.18191   0.44756   0.00000  Uiso   1.00
H668   H     0.59776   0.16409   0.47359   0.00000  Uiso   1.00
H669   H     0.62120   0.17627   0.42946   0.00000  Uiso   1.00
H670   H     0.57201   0.17502   0.43032   0.00000  Uiso   1.00
N671   N     0.90367   0.28032   0.54128   0.00000  Uiso   1.00
H672   H     0.87902   0.27159   0.53020   0.00000  Uiso   1.00
C673   C     0.90334   0.31855   0.55250   0.00000  Uiso   1.00
H674   H     0.90229   0.33641   0.52649   0.00000  Uiso   1.00
H675   H     0.92810   0.32541   0.56971   0.00000  Uiso   1.00
H676   H     0.87892   0.32417   0.57065   0.00000  Uiso   1.00
N677   N     0.77710   0.40265   0.45824   0.00000  Uiso   1.00
H678   H     0.76482   0.37914   0.46832   0.00000  Uiso   1.00
C679   C     0.81448   0.39766   0.44561   0.00000  Uiso   1.00
H680   H     0.83153   0.38720   0.46978   0.00000  Uiso   1.00
H681   H     0.82612   0.42376   0.43458   0.00000  Uiso   1.00
H682   H     0.81518   0.37720   0.42179   0.00000  Uiso   1.00
N683   N     0.72411   0.09755   0.54154   0.00000  Uiso   1.00
H684   H     0.73617   0.12158   0.53257   0.00000  Uiso   1.00
C685   C     0.68671   0.10109   0.55479   0.00000  Uiso   1.00
H686   H     0.67241   0.12264   0.53784   0.00000  Uiso   1.00
H687   H     0.68674   0.10928   0.58578   0.00000  Uiso   1.00
H688   H     0.67140   0.07490   0.55193   0.00000  Uiso   1.00
N689   N     0.90284   0.27710   0.45832   0.00000  Uiso   1.00
H690   H     0.87890   0.26489   0.46719   0.00000  Uiso   1.00
C691   C     0.89918   0.31462   0.44516   0.00000  Uiso   1.00
H692   H     0.87744   0.32877   0.46192   0.00000  Uiso   1.00
H693   H     0.89128   0.31466   0.41408   0.00000  Uiso   1.00
H694   H     0.92519   0.33012   0.44834   0.00000  Uiso   1.00
N695   N     0.59723   0.22349   0.54169   0.00000  Uiso   1.00
H696   H     0.62118   0.23564   0.53273   0.00000  Uiso   1.00
C697   C     0.60086   0.18603   0.55502   0.00000  Uiso   1.00
H698   H     0.62228   0.17169   0.53799   0.00000  Uiso   1.00
H699   H     0.57472   0.17066   0.55233   0.00000  Uiso   1.00
H700   H     0.60920   0.18611   0.58596   0.00000  Uiso   1.00
N701   N     0.72068   0.09664   0.45860   0.00000  Uiso   1.00
H702   H     0.72939   0.12138   0.46957   0.00000  Uiso   1.00
C703   C     0.68248   0.09687   0.44753   0.00000  Uiso   1.00
H704   H     0.66478   0.09789   0.47360   0.00000  Uiso   1.00
H705   H     0.67561   0.07203   0.43039   0.00000  Uiso   1.00
H706   H     0.67672   0.12133   0.42937   0.00000  Uiso   1.00
N707   N     0.78410   0.40453   0.54149   0.00000  Uiso   1.00
H708   H     0.77827   0.37935   0.52959   0.00000  Uiso   1.00
C709   C     0.82141   0.40712   0.55547   0.00000  Uiso   1.00
H710   H     0.84079   0.40924   0.53090   0.00000  Uiso   1.00
H711   H     0.82826   0.38230   0.57265   0.00000  Uiso   1.00
H712   H     0.82499   0.43144   0.57443   0.00000  Uiso   1.00
N713   N     0.84614   0.46882   0.95873   0.00000  Uiso   1.00
H714   H     0.87077   0.47764   0.96975   0.00000  Uiso   1.00
C715   C     0.84657   0.43058   0.94749   0.00000  Uiso   1.00
H716   H     0.84759   0.41273   0.97351   0.00000  Uiso   1.00
H717   H     0.87105   0.42501   0.92941   0.00000  Uiso   1.00
H718   H     0.82186   0.42369   0.93021   0.00000  Uiso   1.00
N719   N     0.65272   0.02671   0.04116   0.00000  Uiso   1.00
H720   H     0.62865   0.01654   0.02996   0.00000  Uiso   1.00
C721   C     0.65039   0.06516   0.05127   0.00000  Uiso   1.00
H722   H     0.64816   0.08224   0.02472   0.00000  Uiso   1.00
H723   H     0.67486   0.07377   0.06805   0.00000  Uiso   1.00
H724   H     0.62581   0.06990   0.06947   0.00000  Uiso   1.00
N725   N     0.52769   0.15278   0.95851   0.00000  Uiso   1.00
H726   H     0.51837   0.12829   0.96948   0.00000  Uiso   1.00
C727   C     0.56583   0.15155   0.94739   0.00000  Uiso   1.00
H728   H     0.58359   0.15008   0.97345   0.00000  Uiso   1.00
H729   H     0.57326   0.17620   0.93026   0.00000  Uiso   1.00
H730   H     0.57086   0.12695   0.92920   0.00000  Uiso   1.00
N731   N     0.97581   0.34808   0.04153   0.00000  Uiso   1.00
H732   H     0.98867   0.37170   0.03259   0.00000  Uiso   1.00
C733   C     0.93850   0.35285   0.05463   0.00000  Uiso   1.00
H734   H     0.92492   0.37472   0.03748   0.00000  Uiso   1.00
H735   H     0.93869   0.36122   0.08556   0.00000  Uiso   1.00
H736   H     0.92240   0.32712   0.05190   0.00000  Uiso   1.00
N737   N     0.65178   0.02283   0.95837   0.00000  Uiso   1.00
H738   H     0.63587   0.04362   0.96956   0.00000  Uiso   1.00
C739   C     0.63081   0.49072   0.94786   0.00000  Uiso   1.00
H740   H     0.62033   0.47682   0.97425   0.00000  Uiso   1.00
H741   H     0.64786   0.47114   0.93107   0.00000  Uiso   1.00
H742   H     0.60722   0.49901   0.92953   0.00000  Uiso   1.00
N743   N     0.84698   0.47219   0.04171   0.00000  Uiso   1.00
H744   H     0.87097   0.48416   0.03265   0.00000  Uiso   1.00
C745   C     0.85045   0.43481   0.05535   0.00000  Uiso   1.00
H746   H     0.87153   0.42014   0.03816   0.00000  Uiso   1.00
H747   H     0.82415   0.41965   0.05317   0.00000  Uiso   1.00
H748   H     0.85916   0.43508   0.08618   0.00000  Uiso   1.00
N749   N     0.97208   0.34720   0.95859   0.00000  Uiso   1.00
H750   H     0.98127   0.37172   0.96965   0.00000  Uiso   1.00
C751   C     0.93393   0.34828   0.94735   0.00000  Uiso   1.00
H752   H     0.91616   0.34962   0.97336   0.00000  Uiso   1.00
H753   H     0.92660   0.32364   0.93012   0.00000  Uiso   1.00
H754   H     0.92878   0.37290   0.92923   0.00000  Uiso   1.00
N755   N     0.52468   0.15200   0.04147   0.00000  Uiso   1.00
H756   H     0.51207   0.12824   0.03248   0.00000  Uiso   1.00
C757   C     0.56201   0.14763   0.05481   0.00000  Uiso   1.00
H758   H     0.57575   0.12552   0.03812   0.00000  Uiso   1.00
H759   H     0.56182   0.13979   0.08589   0.00000  Uiso   1.00
H760   H     0.57799   0.17338   0.05168   0.00000  Uiso   1.00
C761   C     0.61052   0.44843   0.28200   0.00000  Uiso   1.00
H762   H     0.61332   0.46914   0.25863   0.00000  Uiso   1.00
H763   H     0.58316   0.45255   0.29486   0.00000  Uiso   1.00
H764   H     0.63084   0.45437   0.30512   0.00000  Uiso   1.00
C765   C     0.88946   0.05158   0.71796   0.00000  Uiso   1.00
H766   H     0.88667   0.03086   0.74131   0.00000  Uiso   1.00
H767   H     0.86913   0.04567   0.69484   0.00000  Uiso   1.00
H768   H     0.91682   0.04747   0.70508   0.00000  Uiso   1.00
C769   C     0.55639   0.11497   0.29309   0.00000  Uiso   1.00
H770   H     0.53312   0.11621   0.27248   0.00000  Uiso   1.00
H771   H     0.55378   0.08894   0.30921   0.00000  Uiso   1.00
H772   H     0.55354   0.13750   0.31454   0.00000  Uiso   1.00
C773   C     0.94331   0.38472   0.70629   0.00000  Uiso   1.00
H774   H     0.96672   0.38358   0.72671   0.00000  Uiso   1.00
H775   H     0.94597   0.36206   0.68496   0.00000  Uiso   1.00
H776   H     0.94581   0.41065   0.68996   0.00000  Uiso   1.00
C777   C     0.89129   0.05239   0.28305   0.00000  Uiso   1.00
H778   H     0.86748   0.03378   0.28431   0.00000  Uiso   1.00
H779   H     0.91286   0.03830   0.26597   0.00000  Uiso   1.00
H780   H     0.90051   0.05587   0.31352   0.00000  Uiso   1.00
C781   C     0.60877   0.44754   0.71676   0.00000  Uiso   1.00
H782   H     0.63258   0.46615   0.71554   0.00000  Uiso   1.00
H783   H     0.59963   0.44400   0.68627   0.00000  Uiso   1.00
H784   H     0.58716   0.46165   0.73375   0.00000  Uiso   1.00
C785   C     0.94810   0.38958   0.28232   0.00000  Uiso   1.00
H786   H     0.96871   0.38691   0.25890   0.00000  Uiso   1.00
H787   H     0.95207   0.41698   0.29530   0.00000  Uiso   1.00
H788   H     0.95417   0.36915   0.30532   0.00000  Uiso   1.00
C789   C     0.55179   0.11031   0.71800   0.00000  Uiso   1.00
H790   H     0.53126   0.11302   0.74149   0.00000  Uiso   1.00
H791   H     0.54564   0.13068   0.69496   0.00000  Uiso   1.00
H792   H     0.54779   0.08288   0.70510   0.00000  Uiso   1.00
C793   C     0.60959   0.05318   0.71468   0.00000  Uiso   1.00
H794   H     0.63341   0.03448   0.71380   0.00000  Uiso   1.00
H795   H     0.58754   0.03886   0.73074   0.00000  Uiso   1.00
H796   H     0.60123   0.05730   0.68403   0.00000  Uiso   1.00
C797   C     0.89030   0.44672   0.28561   0.00000  Uiso   1.00
H798   H     0.86648   0.46542   0.28644   0.00000  Uiso   1.00
H799   H     0.89856   0.44251   0.31628   0.00000  Uiso   1.00
H800   H     0.91242   0.46107   0.26968   0.00000  Uiso   1.00
C801   C     0.55104   0.39061   0.72054   0.00000  Uiso   1.00
H802   H     0.53131   0.38791   0.74475   0.00000  Uiso   1.00
H803   H     0.54682   0.41820   0.70809   0.00000  Uiso   1.00
H804   H     0.54401   0.37054   0.69749   0.00000  Uiso   1.00
C805   C     0.94902   0.10930   0.27922   0.00000  Uiso   1.00
H806   H     0.96868   0.11201   0.25493   0.00000  Uiso   1.00
H807   H     0.95614   0.12935   0.30226   0.00000  Uiso   1.00
H808   H     0.95326   0.08170   0.29162   0.00000  Uiso   1.00
C809   C     0.88630   0.44289   0.70546   0.00000  Uiso   1.00
H810   H     0.86322   0.46251   0.70698   0.00000  Uiso   1.00
H811   H     0.91080   0.45753   0.71649   0.00000  Uiso   1.00
H812   H     0.89000   0.43612   0.67432   0.00000  Uiso   1.00
C813   C     0.61340   0.05681   0.29393   0.00000  Uiso   1.00
H814   H     0.63650   0.03722   0.29249   0.00000  Uiso   1.00
H815   H     0.60946   0.06338   0.32509   0.00000  Uiso   1.00
H816   H     0.58899   0.04222   0.28259   0.00000  Uiso   1.00
C817   C     0.94684   0.10903   0.71535   0.00000  Uiso   1.00
H818   H     0.96578   0.13264   0.71490   0.00000  Uiso   1.00
H819   H     0.96075   0.08662   0.73143   0.00000  Uiso   1.00
H820   H     0.94292   0.10090   0.68460   0.00000  Uiso   1.00
C821   C     0.55316   0.39098   0.28463   0.00000  Uiso   1.00
H822   H     0.53422   0.36736   0.28510   0.00000  Uiso   1.00
H823   H     0.55707   0.39912   0.31538   0.00000  Uiso   1.00
H824   H     0.53924   0.41337   0.26853   0.00000  Uiso   1.00
C825   C     0.86054   0.19842   0.78204   0.00000  Uiso   1.00
H826   H     0.86333   0.21914   0.75868   0.00000  Uiso   1.00
H827   H     0.83318   0.20254   0.79491   0.00000  Uiso   1.00
H828   H     0.88086   0.20434   0.80515   0.00000  Uiso   1.00
C829   C     0.63948   0.30157   0.21800   0.00000  Uiso   1.00
H830   H     0.63668   0.28087   0.24137   0.00000  Uiso   1.00
H831   H     0.61916   0.29563   0.19488   0.00000  Uiso   1.00
H832   H     0.66684   0.29745   0.20514   0.00000  Uiso   1.00
C833   C     0.80669   0.36528   0.79371   0.00000  Uiso   1.00
H834   H     0.78327   0.36642   0.77329   0.00000  Uiso   1.00
H835   H     0.80418   0.33935   0.81003   0.00000  Uiso   1.00
H836   H     0.80403   0.38794   0.81503   0.00000  Uiso   1.00
C837   C     0.69362   0.13504   0.20694   0.00000  Uiso   1.00
H838   H     0.71688   0.13380   0.22756   0.00000  Uiso   1.00
H839   H     0.69647   0.11251   0.18548   0.00000  Uiso   1.00
H840   H     0.69623   0.16107   0.19082   0.00000  Uiso   1.00
C841   C     0.64122   0.30246   0.78326   0.00000  Uiso   1.00
H842   H     0.61741   0.28385   0.78448   0.00000  Uiso   1.00
H843   H     0.66284   0.28835   0.76628   0.00000  Uiso   1.00
H844   H     0.65036   0.30601   0.81375   0.00000  Uiso   1.00
C845   C     0.85871   0.19761   0.21695   0.00000  Uiso   1.00
H846   H     0.88252   0.21621   0.21569   0.00000  Uiso   1.00
H847   H     0.84949   0.19412   0.18648   0.00000  Uiso   1.00
H848   H     0.83715   0.21170   0.23403   0.00000  Uiso   1.00
C849   C     0.69823   0.13972   0.78191   0.00000  Uiso   1.00
H850   H     0.71874   0.13701   0.75840   0.00000  Uiso   1.00
H851   H     0.70224   0.16716   0.79479   0.00000  Uiso   1.00
H852   H     0.70442   0.11936   0.80495   0.00000  Uiso   1.00
C853   C     0.80190   0.36043   0.21768   0.00000  Uiso   1.00
H854   H     0.78129   0.36309   0.24110   0.00000  Uiso   1.00
H855   H     0.79583   0.38085   0.19468   0.00000  Uiso   1.00
H856   H     0.79793   0.33302   0.20469   0.00000  Uiso   1.00
C857   C     0.85969   0.30328   0.21440   0.00000  Uiso   1.00
H858   H     0.88351   0.28458   0.21357   0.00000  Uiso   1.00
H859   H     0.83758   0.28894   0.23033   0.00000  Uiso   1.00
H860   H     0.85144   0.30749   0.18372   0.00000  Uiso   1.00
C861   C     0.64042   0.19683   0.78528   0.00000  Uiso   1.00
H862   H     0.61659   0.21552   0.78619   0.00000  Uiso   1.00
H863   H     0.64881   0.19271   0.81592   0.00000  Uiso   1.00
H864   H     0.66245   0.21116   0.76920   0.00000  Uiso   1.00
C865   C     0.80098   0.14070   0.22078   0.00000  Uiso   1.00
H866   H     0.78133   0.13799   0.24507   0.00000  Uiso   1.00
H867   H     0.79674   0.16830   0.20838   0.00000  Uiso   1.00
H868   H     0.79386   0.12065   0.19774   0.00000  Uiso   1.00
C869   C     0.69895   0.35939   0.77950   0.00000  Uiso   1.00
H870   H     0.71869   0.36210   0.75528   0.00000  Uiso   1.00
H871   H     0.70597   0.37947   0.80254   0.00000  Uiso   1.00
H872   H     0.70317   0.33181   0.79194   0.00000  Uiso   1.00
C873   C     0.63661   0.19320   0.20608   0.00000  Uiso   1.00
H874   H     0.61350   0.21278   0.20752   0.00000  Uiso   1.00
H875   H     0.66101   0.20778   0.21743   0.00000  Uiso   1.00
H876   H     0.64055   0.18663   0.17493   0.00000  Uiso   1.00
C877   C     0.86368   0.30709   0.79450   0.00000  Uiso   1.00
H878   H     0.88675   0.28746   0.79296   0.00000  Uiso   1.00
H879   H     0.85999   0.31385   0.82564   0.00000  Uiso   1.00
H880   H     0.83917   0.29247   0.78345   0.00000  Uiso   1.00
C881   C     0.69684   0.35902   0.21537   0.00000  Uiso   1.00
H882   H     0.71578   0.38264   0.21490   0.00000  Uiso   1.00
H883   H     0.71076   0.33664   0.23146   0.00000  Uiso   1.00
H884   H     0.69292   0.35088   0.18462   0.00000  Uiso   1.00
C885   C     0.80316   0.14098   0.78463   0.00000  Uiso   1.00
H886   H     0.78422   0.11737   0.78508   0.00000  Uiso   1.00
H887   H     0.80707   0.14910   0.81539   0.00000  Uiso   1.00
H888   H     0.78925   0.16338   0.76855   0.00000  Uiso   1.00
C889   C     0.46793   0.75813   0.41859   0.00000  Uiso   1.00
C890   C     0.03209   0.74222   0.58140   0.00000  Uiso   1.00
C891   C     0.24229   0.53219   0.41868   0.00000  Uiso   1.00
C892   C     0.25906   0.96802   0.58134   0.00000  Uiso   1.00
C893   C     0.03208   0.74189   0.41870   0.00000  Uiso   1.00
C894   C     0.46793   0.75840   0.58130   0.00000  Uiso   1.00
C895   C     0.25853   0.96791   0.41865   0.00000  Uiso   1.00
C896   C     0.24276   0.53227   0.58135   0.00000  Uiso   1.00
C897   C     0.21779   0.50718   0.91859   0.00000  Uiso   1.00
C898   C     0.28199   0.99155   0.08140   0.00000  Uiso   1.00
C899   C     0.49247   0.78230   0.91867   0.00000  Uiso   1.00
C900   C     0.00730   0.71764   0.08133   0.00000  Uiso   1.00
C901   C     0.28189   0.99074   0.91869   0.00000  Uiso   1.00
C902   C     0.21780   0.50766   0.08129   0.00000  Uiso   1.00
C903   C     0.00739   0.71770   0.91865   0.00000  Uiso   1.00
C904   C     0.49283   0.78235   0.08135   0.00000  Uiso   1.00
C905   C     0.00002   0.75002   0.39842   0.00000  Uiso   1.00
C906   C     0.49998   0.75019   0.60158   0.00000  Uiso   1.00
C907   C     0.25024   0.50002   0.39845   0.00000  Uiso   1.00
C908   C     0.25054   0.50006   0.60156   0.00000  Uiso   1.00
C909   C     0.24995   0.99939   0.89842   0.00000  Uiso   1.00
C910   C     0.24993   0.99979   0.10157   0.00000  Uiso   1.00
C911   C     0.49995   0.75001   0.89844   0.00000  Uiso   1.00
C912   C     0.00005   0.74999   0.10156   0.00000  Uiso   1.00
C913   C     0.06462   0.73140   0.47965   0.00000  Uiso   1.00
C914   C     0.43543   0.76908   0.52035   0.00000  Uiso   1.00
C915   C     0.26977   0.93542   0.47949   0.00000  Uiso   1.00
C916   C     0.23291   0.56505   0.52049   0.00000  Uiso   1.00
C917   C     0.43528   0.76832   0.47942   0.00000  Uiso   1.00
C918   C     0.06478   0.73219   0.52058   0.00000  Uiso   1.00
C919   C     0.23208   0.56486   0.47957   0.00000  Uiso   1.00
C920   C     0.27134   0.93582   0.52048   0.00000  Uiso   1.00
C921   C     0.31434   0.97996   0.97966   0.00000  Uiso   1.00
C922   C     0.18494   0.51679   0.02030   0.00000  Uiso   1.00
C923   C     0.01726   0.68486   0.97952   0.00000  Uiso   1.00
C924   C     0.48359   0.81532   0.02048   0.00000  Uiso   1.00
C925   C     0.18455   0.51515   0.97940   0.00000  Uiso   1.00
C926   C     0.31452   0.98086   0.02059   0.00000  Uiso   1.00
C927   C     0.48267   0.81514   0.97956   0.00000  Uiso   1.00
C928   C     0.01657   0.68470   0.02044   0.00000  Uiso   1.00
C929   C     0.25002   0.50001   0.35601   0.00000  Uiso   1.00
C930   C     0.25005   0.50000   0.64399   0.00000  Uiso   1.00
C931   C     0.00002   0.75001   0.35599   0.00000  Uiso   1.00
C932   C     0.49998   0.75003   0.64401   0.00000  Uiso   1.00
C933   C     0.49998   0.75001   0.85601   0.00000  Uiso   1.00
C934   C     0.00001   0.74999   0.14399   0.00000  Uiso   1.00
C935   C     0.25001   0.99996   0.85599   0.00000  Uiso   1.00
C936   C     0.24998   0.50000   0.14401   0.00000  Uiso   1.00
C937   C     0.18008   0.56999   0.24998   0.00000  Uiso   1.00
C938   C     0.31992   0.93001   0.75002   0.00000  Uiso   1.00
C939   C     0.43010   0.67997   0.24996   0.00000  Uiso   1.00
C940   C     0.06990   0.82003   0.75004   0.00000  Uiso   1.00
C941   C     0.31990   0.93000   0.25003   0.00000  Uiso   1.00
C942   C     0.18010   0.57000   0.74997   0.00000  Uiso   1.00
C943   C     0.06999   0.81995   0.25001   0.00000  Uiso   1.00
C944   C     0.43001   0.68005   0.74999   0.00000  Uiso   1.00
C945   C     0.18010   0.92997   0.74996   0.00000  Uiso   1.00
C946   C     0.31990   0.57003   0.25004   0.00000  Uiso   1.00
C947   C     0.43008   0.81999   0.74997   0.00000  Uiso   1.00
C948   C     0.06992   0.68001   0.25003   0.00000  Uiso   1.00
C949   C     0.31999   0.56995   0.75001   0.00000  Uiso   1.00
C950   C     0.18001   0.93005   0.24999   0.00000  Uiso   1.00
C951   C     0.06990   0.68000   0.75003   0.00000  Uiso   1.00
C952   C     0.43010   0.82000   0.24997   0.00000  Uiso   1.00
C953   C     0.11732   0.91027   0.26555   0.00000  Uiso   1.00
C954   C     0.38268   0.58974   0.73443   0.00000  Uiso   1.00
C955   C     0.09206   0.61941   0.27094   0.00000  Uiso   1.00
C956   C     0.40779   0.88044   0.72875   0.00000  Uiso   1.00
C957   C     0.38314   0.58967   0.26532   0.00000  Uiso   1.00
C958   C     0.11689   0.91029   0.73459   0.00000  Uiso   1.00
C959   C     0.41008   0.88271   0.26580   0.00000  Uiso   1.00
C960   C     0.08987   0.61724   0.73436   0.00000  Uiso   1.00
C961   C     0.11727   0.59006   0.73352   0.00000  Uiso   1.00
C962   C     0.38268   0.90988   0.26663   0.00000  Uiso   1.00
C963   C     0.08952   0.88317   0.73552   0.00000  Uiso   1.00
C964   C     0.41051   0.61680   0.26437   0.00000  Uiso   1.00
C965   C     0.38061   0.90786   0.72855   0.00000  Uiso   1.00
C966   C     0.11924   0.59199   0.27115   0.00000  Uiso   1.00
C967   C     0.40992   0.61703   0.73379   0.00000  Uiso   1.00
C968   C     0.09008   0.88298   0.26619   0.00000  Uiso   1.00
C969   C     0.36732   0.66026   0.76556   0.00000  Uiso   1.00
C970   C     0.13268   0.83973   0.23445   0.00000  Uiso   1.00
C971   C     0.34221   0.86956   0.77124   0.00000  Uiso   1.00
C972   C     0.15794   0.63060   0.22908   0.00000  Uiso   1.00
C973   C     0.13310   0.83971   0.76543   0.00000  Uiso   1.00
C974   C     0.36687   0.66033   0.23468   0.00000  Uiso   1.00
C975   C     0.16014   0.63277   0.76560   0.00000  Uiso   1.00
C976   C     0.33992   0.86729   0.23420   0.00000  Uiso   1.00
C977   C     0.36732   0.84012   0.23337   0.00000  Uiso   1.00
C978   C     0.13274   0.65994   0.76645   0.00000  Uiso   1.00
C979   C     0.33949   0.63320   0.23563   0.00000  Uiso   1.00
C980   C     0.16048   0.86684   0.76450   0.00000  Uiso   1.00
C981   C     0.13076   0.65802   0.22886   0.00000  Uiso   1.00
C982   C     0.36939   0.84213   0.77143   0.00000  Uiso   1.00
C983   C     0.15992   0.86703   0.23381   0.00000  Uiso   1.00
C984   C     0.34008   0.63297   0.76620   0.00000  Uiso   1.00
C985   C     0.03241   0.74102   0.45931   0.00000  Uiso   1.00
C986   C     0.46762   0.75939   0.54070   0.00000  Uiso   1.00
C987   C     0.25991   0.96766   0.45926   0.00000  Uiso   1.00
C988   C     0.24230   0.53272   0.54075   0.00000  Uiso   1.00
C989   C     0.46755   0.75896   0.45919   0.00000  Uiso   1.00
C990   C     0.03248   0.74149   0.54080   0.00000  Uiso   1.00
C991   C     0.24174   0.53260   0.45928   0.00000  Uiso   1.00
C992   C     0.26082   0.96788   0.54075   0.00000  Uiso   1.00
C993   C     0.28212   0.98948   0.95930   0.00000  Uiso   1.00
C994   C     0.21733   0.50793   0.04068   0.00000  Uiso   1.00
C995   C     0.00833   0.71734   0.95925   0.00000  Uiso   1.00
C996   C     0.49208   0.78275   0.04075   0.00000  Uiso   1.00
C997   C     0.21707   0.50668   0.95918   0.00000  Uiso   1.00
C998   C     0.28226   0.99029   0.04081   0.00000  Uiso   1.00
C999   C     0.49156   0.78265   0.95926   0.00000  Uiso   1.00
C1000  C     0.00804   0.71725   0.04074   0.00000  Uiso   1.00
C1001  C     0.09804   0.84811   0.25031   0.00000  Uiso   1.00
C1002  C     0.40196   0.65189   0.74969   0.00000  Uiso   1.00
C1003  C     0.15187   0.59800   0.25017   0.00000  Uiso   1.00
C1004  C     0.34813   0.90201   0.74984   0.00000  Uiso   1.00
C1005  C     0.40196   0.65189   0.24951   0.00000  Uiso   1.00
C1006  C     0.09804   0.84811   0.75049   0.00000  Uiso   1.00
C1007  C     0.34804   0.90191   0.25043   0.00000  Uiso   1.00
C1008  C     0.15196   0.59809   0.74955   0.00000  Uiso   1.00
C1009  C     0.09804   0.65191   0.75043   0.00000  Uiso   1.00
C1010  C     0.40196   0.84809   0.24957   0.00000  Uiso   1.00
C1011  C     0.15196   0.90189   0.74952   0.00000  Uiso   1.00
C1012  C     0.34804   0.59811   0.25049   0.00000  Uiso   1.00
C1013  C     0.40187   0.84799   0.75016   0.00000  Uiso   1.00
C1014  C     0.09813   0.65200   0.24984   0.00000  Uiso   1.00
C1015  C     0.34804   0.59811   0.75031   0.00000  Uiso   1.00
C1016  C     0.15196   0.90189   0.24969   0.00000  Uiso   1.00
C1017  C     0.00001   0.75015   0.47966   0.00000  Uiso   1.00
C1018  C     0.00002   0.75029   0.52034   0.00000  Uiso   1.00
C1019  C     0.25119   0.50022   0.47968   0.00000  Uiso   1.00
C1020  C     0.25142   0.50026   0.52034   0.00000  Uiso   1.00
C1021  C     0.24962   0.99824   0.97965   0.00000  Uiso   1.00
C1022  C     0.24970   0.99871   0.02033   0.00000  Uiso   1.00
C1023  C     0.49998   0.75000   0.97966   0.00000  Uiso   1.00
C1024  C     0.00003   0.75000   0.02033   0.00000  Uiso   1.00
H1025  H     0.44334   0.76428   0.40232   0.00000  Uiso   1.00
H1026  H     0.05667   0.73606   0.59767   0.00000  Uiso   1.00
H1027  H     0.23617   0.55685   0.40246   0.00000  Uiso   1.00
H1028  H     0.26454   0.94322   0.59756   0.00000  Uiso   1.00
H1029  H     0.05673   0.73592   0.40253   0.00000  Uiso   1.00
H1030  H     0.44326   0.76432   0.59749   0.00000  Uiso   1.00
H1031  H     0.26458   0.94327   0.40238   0.00000  Uiso   1.00
H1032  H     0.23642   0.55687   0.59758   0.00000  Uiso   1.00
H1033  H     0.19345   0.51431   0.90233   0.00000  Uiso   1.00
H1034  H     0.30663   0.98563   0.09768   0.00000  Uiso   1.00
H1035  H     0.48706   0.80714   0.90246   0.00000  Uiso   1.00
H1036  H     0.01279   0.69284   0.09755   0.00000  Uiso   1.00
H1037  H     0.30658   0.98492   0.90251   0.00000  Uiso   1.00
H1038  H     0.19319   0.51381   0.09746   0.00000  Uiso   1.00
H1039  H     0.01280   0.69287   0.90243   0.00000  Uiso   1.00
H1040  H     0.48733   0.80715   0.09758   0.00000  Uiso   1.00
O1041  O     0.25000   0.50000   0.25000   0.00000  Uiso   1.00
O1042  O     0.25000   0.50000   0.75000   0.00000  Uiso   1.00
O1043  O     0.00000   0.75000   0.25000   0.00000  Uiso   1.00
O1044  O     0.00000   0.75000   0.75000   0.00000  Uiso   1.00
O1045  O     0.25000   0.96964   0.33755   0.00000  Uiso   1.00
O1046  O     0.25000   0.53037   0.66245   0.00000  Uiso   1.00
O1047  O     0.03037   0.75000   0.33755   0.00000  Uiso   1.00
O1048  O     0.46964   0.75000   0.66245   0.00000  Uiso   1.00
O1049  O     0.25000   0.53037   0.33755   0.00000  Uiso   1.00
O1050  O     0.25000   0.96964   0.66245   0.00000  Uiso   1.00
O1051  O     0.46964   0.75000   0.33755   0.00000  Uiso   1.00
O1052  O     0.03037   0.75000   0.66245   0.00000  Uiso   1.00
O1053  O     0.00000   0.71963   0.83755   0.00000  Uiso   1.00
O1054  O     0.00000   0.78037   0.16245   0.00000  Uiso   1.00
O1055  O     0.28037   0.50000   0.83755   0.00000  Uiso   1.00
O1056  O     0.21964   0.50000   0.16245   0.00000  Uiso   1.00
O1057  O     0.00000   0.78036   0.83755   0.00000  Uiso   1.00
O1058  O     0.00000   0.71963   0.16245   0.00000  Uiso   1.00
O1059  O     0.21964   0.50000   0.83755   0.00000  Uiso   1.00
O1060  O     0.28037   0.50000   0.16245   0.00000  Uiso   1.00
O1061  O     0.20725   0.57308   0.27302   0.00000  Uiso   1.00
O1062  O     0.29276   0.92693   0.72698   0.00000  Uiso   1.00
O1063  O     0.42693   0.70725   0.27302   0.00000  Uiso   1.00
O1064  O     0.07308   0.79275   0.72698   0.00000  Uiso   1.00
O1065  O     0.29276   0.92693   0.27302   0.00000  Uiso   1.00
O1066  O     0.20725   0.57308   0.72698   0.00000  Uiso   1.00
O1067  O     0.07308   0.79275   0.27302   0.00000  Uiso   1.00
O1068  O     0.42693   0.70725   0.72698   0.00000  Uiso   1.00
O1069  O     0.20725   0.92693   0.72698   0.00000  Uiso   1.00
O1070  O     0.29276   0.57308   0.27302   0.00000  Uiso   1.00
O1071  O     0.42693   0.79276   0.72698   0.00000  Uiso   1.00
O1072  O     0.07308   0.70725   0.27302   0.00000  Uiso   1.00
O1073  O     0.29276   0.57308   0.72698   0.00000  Uiso   1.00
O1074  O     0.20725   0.92693   0.27302   0.00000  Uiso   1.00
O1075  O     0.07308   0.70725   0.72698   0.00000  Uiso   1.00
O1076  O     0.42693   0.79276   0.27302   0.00000  Uiso   1.00
O1077  O     0.45725   0.82308   0.77302   0.00000  Uiso   1.00
O1078  O     0.04276   0.67692   0.22698   0.00000  Uiso   1.00
O1079  O     0.17693   0.95725   0.77302   0.00000  Uiso   1.00
O1080  O     0.32308   0.54276   0.22698   0.00000  Uiso   1.00
O1081  O     0.04276   0.67692   0.77302   0.00000  Uiso   1.00
O1082  O     0.45725   0.82308   0.22698   0.00000  Uiso   1.00
O1083  O     0.32308   0.54276   0.77302   0.00000  Uiso   1.00
O1084  O     0.17693   0.95725   0.22698   0.00000  Uiso   1.00
O1085  O     0.45725   0.67693   0.22698   0.00000  Uiso   1.00
O1086  O     0.04276   0.82307   0.77302   0.00000  Uiso   1.00
O1087  O     0.17693   0.54276   0.22698   0.00000  Uiso   1.00
O1088  O     0.32308   0.95725   0.77302   0.00000  Uiso   1.00
O1089  O     0.04276   0.82307   0.22698   0.00000  Uiso   1.00
O1090  O     0.45725   0.67693   0.77302   0.00000  Uiso   1.00
O1091  O     0.32308   0.95725   0.22698   0.00000  Uiso   1.00
O1092  O     0.17693   0.54276   0.77302   0.00000  Uiso   1.00
Zn1093 Zn    0.20660   0.50000   0.21735   0.00000  Uiso   1.00
Zn1094 Zn    0.29341   0.50000   0.78265   0.00000  Uiso   1.00
Zn1095 Zn    0.00000   0.70659   0.21735   0.00000  Uiso   1.00
Zn1096 Zn    0.00000   0.79340   0.78265   0.00000  Uiso   1.00
Zn1097 Zn    0.29341   0.50000   0.21735   0.00000  Uiso   1.00
Zn1098 Zn    0.20660   0.50000   0.78265   0.00000  Uiso   1.00
Zn1099 Zn    0.00000   0.79340   0.21735   0.00000  Uiso   1.00
Zn1100 Zn    0.00000   0.70659   0.78265   0.00000  Uiso   1.00
Zn1101 Zn    0.45660   0.75000   0.71735   0.00000  Uiso   1.00
Zn1102 Zn    0.04341   0.75000   0.28265   0.00000  Uiso   1.00
Zn1103 Zn    0.25000   0.95660   0.71735   0.00000  Uiso   1.00
Zn1104 Zn    0.25000   0.54341   0.28265   0.00000  Uiso   1.00
Zn1105 Zn    0.04341   0.75000   0.71735   0.00000  Uiso   1.00
Zn1106 Zn    0.45660   0.75000   0.28265   0.00000  Uiso   1.00
Zn1107 Zn    0.25000   0.54341   0.71735   0.00000  Uiso   1.00
Zn1108 Zn    0.25000   0.95660   0.28265   0.00000  Uiso   1.00
N1109  N     0.09638   0.72016   0.45873   0.00000  Uiso   1.00
H1110  H     0.12102   0.72893   0.46977   0.00000  Uiso   1.00
C1111  C     0.09674   0.68191   0.44756   0.00000  Uiso   1.00
H1112  H     0.09776   0.66409   0.47359   0.00000  Uiso   1.00
H1113  H     0.12120   0.67627   0.42946   0.00000  Uiso   1.00
H1114  H     0.07201   0.67502   0.43032   0.00000  Uiso   1.00
N1115  N     0.40367   0.78032   0.54128   0.00000  Uiso   1.00
H1116  H     0.37902   0.77159   0.53020   0.00000  Uiso   1.00
C1117  C     0.40334   0.81855   0.55250   0.00000  Uiso   1.00
H1118  H     0.40229   0.83641   0.52649   0.00000  Uiso   1.00
H1119  H     0.42810   0.82541   0.56971   0.00000  Uiso   1.00
H1120  H     0.37892   0.82417   0.57065   0.00000  Uiso   1.00
N1121  N     0.27710   0.90265   0.45824   0.00000  Uiso   1.00
H1122  H     0.26482   0.87914   0.46832   0.00000  Uiso   1.00
C1123  C     0.31448   0.89766   0.44561   0.00000  Uiso   1.00
H1124  H     0.33153   0.88720   0.46978   0.00000  Uiso   1.00
H1125  H     0.32612   0.92376   0.43458   0.00000  Uiso   1.00
H1126  H     0.31518   0.87720   0.42179   0.00000  Uiso   1.00
N1127  N     0.22411   0.59755   0.54154   0.00000  Uiso   1.00
H1128  H     0.23617   0.62158   0.53257   0.00000  Uiso   1.00
C1129  C     0.18671   0.60109   0.55479   0.00000  Uiso   1.00
H1130  H     0.17241   0.62264   0.53784   0.00000  Uiso   1.00
H1131  H     0.18674   0.60928   0.58578   0.00000  Uiso   1.00
H1132  H     0.17140   0.57490   0.55193   0.00000  Uiso   1.00
N1133  N     0.40284   0.77710   0.45832   0.00000  Uiso   1.00
H1134  H     0.37890   0.76489   0.46719   0.00000  Uiso   1.00
C1135  C     0.39918   0.81462   0.44516   0.00000  Uiso   1.00
H1136  H     0.37744   0.82877   0.46192   0.00000  Uiso   1.00
H1137  H     0.39128   0.81466   0.41408   0.00000  Uiso   1.00
H1138  H     0.42519   0.83012   0.44834   0.00000  Uiso   1.00
N1139  N     0.09723   0.72349   0.54169   0.00000  Uiso   1.00
H1140  H     0.12118   0.73564   0.53273   0.00000  Uiso   1.00
C1141  C     0.10086   0.68603   0.55502   0.00000  Uiso   1.00
H1142  H     0.12228   0.67169   0.53799   0.00000  Uiso   1.00
H1143  H     0.07472   0.67066   0.55233   0.00000  Uiso   1.00
H1144  H     0.10920   0.68611   0.58596   0.00000  Uiso   1.00
N1145  N     0.22068   0.59664   0.45860   0.00000  Uiso   1.00
H1146  H     0.22939   0.62138   0.46957   0.00000  Uiso   1.00
C1147  C     0.18248   0.59687   0.44753   0.00000  Uiso   1.00
H1148  H     0.16478   0.59789   0.47360   0.00000  Uiso   1.00
H1149  H     0.17561   0.57203   0.43039   0.00000  Uiso   1.00
H1150  H     0.17672   0.62133   0.42937   0.00000  Uiso   1.00
N1151  N     0.28410   0.90453   0.54149   0.00000  Uiso   1.00
H1152  H     0.27827   0.87935   0.52959   0.00000  Uiso   1.00
C1153  C     0.32141   0.90712   0.55547   0.00000  Uiso   1.00
H1154  H     0.34079   0.90924   0.53090   0.00000  Uiso   1.00
H1155  H     0.32826   0.88230   0.57265   0.00000  Uiso   1.00
H1156  H     0.32499   0.93144   0.57443   0.00000  Uiso   1.00
N1157  N     0.34614   0.96882   0.95873   0.00000  Uiso   1.00
H1158  H     0.37077   0.97764   0.96975   0.00000  Uiso   1.00
C1159  C     0.34657   0.93058   0.94749   0.00000  Uiso   1.00
H1160  H     0.34759   0.91273   0.97351   0.00000  Uiso   1.00
H1161  H     0.37105   0.92501   0.92941   0.00000  Uiso   1.00
H1162  H     0.32186   0.92369   0.93021   0.00000  Uiso   1.00
N1163  N     0.15272   0.52671   0.04116   0.00000  Uiso   1.00
H1164  H     0.12865   0.51654   0.02996   0.00000  Uiso   1.00
C1165  C     0.15039   0.56516   0.05127   0.00000  Uiso   1.00
H1166  H     0.14816   0.58224   0.02472   0.00000  Uiso   1.00
H1167  H     0.17486   0.57377   0.06805   0.00000  Uiso   1.00
H1168  H     0.12581   0.56990   0.06947   0.00000  Uiso   1.00
N1169  N     0.02769   0.65278   0.95851   0.00000  Uiso   1.00
H1170  H     0.01837   0.62829   0.96948   0.00000  Uiso   1.00
C1171  C     0.06583   0.65155   0.94739   0.00000  Uiso   1.00
H1172  H     0.08359   0.65008   0.97345   0.00000  Uiso   1.00
H1173  H     0.07326   0.67620   0.93026   0.00000  Uiso   1.00
H1174  H     0.07086   0.62695   0.92920   0.00000  Uiso   1.00
N1175  N     0.47581   0.84808   0.04153   0.00000  Uiso   1.00
H1176  H     0.48867   0.87170   0.03259   0.00000  Uiso   1.00
C1177  C     0.43850   0.85285   0.05463   0.00000  Uiso   1.00
H1178  H     0.42492   0.87472   0.03748   0.00000  Uiso   1.00
H1179  H     0.43869   0.86122   0.08556   0.00000  Uiso   1.00
H1180  H     0.42240   0.82712   0.05190   0.00000  Uiso   1.00
N1181  N     0.15178   0.52283   0.95837   0.00000  Uiso   1.00
H1182  H     0.13587   0.54362   0.96956   0.00000  Uiso   1.00
C1183  C     0.13081   0.99072   0.94786   0.00000  Uiso   1.00
H1184  H     0.12033   0.97682   0.97425   0.00000  Uiso   1.00
H1185  H     0.14786   0.97114   0.93107   0.00000  Uiso   1.00
H1186  H     0.10722   0.99901   0.92953   0.00000  Uiso   1.00
N1187  N     0.34698   0.97219   0.04171   0.00000  Uiso   1.00
H1188  H     0.37097   0.98416   0.03265   0.00000  Uiso   1.00
C1189  C     0.35045   0.93481   0.05535   0.00000  Uiso   1.00
H1190  H     0.37153   0.92014   0.03816   0.00000  Uiso   1.00
H1191  H     0.32415   0.91965   0.05317   0.00000  Uiso   1.00
H1192  H     0.35916   0.93508   0.08618   0.00000  Uiso   1.00
N1193  N     0.47208   0.84720   0.95859   0.00000  Uiso   1.00
H1194  H     0.48127   0.87172   0.96965   0.00000  Uiso   1.00
C1195  C     0.43393   0.84828   0.94735   0.00000  Uiso   1.00
H1196  H     0.41616   0.84962   0.97336   0.00000  Uiso   1.00
H1197  H     0.42660   0.82364   0.93012   0.00000  Uiso   1.00
H1198  H     0.42878   0.87290   0.92923   0.00000  Uiso   1.00
N1199  N     0.02468   0.65200   0.04147   0.00000  Uiso   1.00
H1200  H     0.01207   0.62824   0.03248   0.00000  Uiso   1.00
C1201  C     0.06201   0.64763   0.05481   0.00000  Uiso   1.00
H1202  H     0.07575   0.62552   0.03812   0.00000  Uiso   1.00
H1203  H     0.06182   0.63979   0.08589   0.00000  Uiso   1.00
H1204  H     0.07799   0.67338   0.05168   0.00000  Uiso   1.00
C1205  C     0.11052   0.94843   0.28200   0.00000  Uiso   1.00
H1206  H     0.11332   0.96914   0.25863   0.00000  Uiso   1.00
H1207  H     0.08316   0.95255   0.29486   0.00000  Uiso   1.00
H1208  H     0.13084   0.95437   0.30512   0.00000  Uiso   1.00
C1209  C     0.38946   0.55158   0.71796   0.00000  Uiso   1.00
H1210  H     0.38667   0.53086   0.74131   0.00000  Uiso   1.00
H1211  H     0.36913   0.54567   0.69484   0.00000  Uiso   1.00
H1212  H     0.41682   0.54747   0.70508   0.00000  Uiso   1.00
C1213  C     0.05639   0.61497   0.29309   0.00000  Uiso   1.00
H1214  H     0.03312   0.61621   0.27248   0.00000  Uiso   1.00
H1215  H     0.05378   0.58894   0.30921   0.00000  Uiso   1.00
H1216  H     0.05354   0.63750   0.31454   0.00000  Uiso   1.00
C1217  C     0.44331   0.88472   0.70629   0.00000  Uiso   1.00
H1218  H     0.46672   0.88358   0.72671   0.00000  Uiso   1.00
H1219  H     0.44597   0.86206   0.68496   0.00000  Uiso   1.00
H1220  H     0.44581   0.91065   0.68996   0.00000  Uiso   1.00
C1221  C     0.39129   0.55239   0.28305   0.00000  Uiso   1.00
H1222  H     0.36748   0.53378   0.28431   0.00000  Uiso   1.00
H1223  H     0.41286   0.53830   0.26597   0.00000  Uiso   1.00
H1224  H     0.40051   0.55587   0.31352   0.00000  Uiso   1.00
C1225  C     0.10877   0.94754   0.71676   0.00000  Uiso   1.00
H1226  H     0.13258   0.96615   0.71554   0.00000  Uiso   1.00
H1227  H     0.09963   0.94400   0.68627   0.00000  Uiso   1.00
H1228  H     0.08716   0.96165   0.73375   0.00000  Uiso   1.00
C1229  C     0.44810   0.88958   0.28232   0.00000  Uiso   1.00
H1230  H     0.46871   0.88691   0.25890   0.00000  Uiso   1.00
H1231  H     0.45207   0.91698   0.29530   0.00000  Uiso   1.00
H1232  H     0.45417   0.86915   0.30532   0.00000  Uiso   1.00
C1233  C     0.05179   0.61031   0.71800   0.00000  Uiso   1.00
H1234  H     0.03126   0.61302   0.74149   0.00000  Uiso   1.00
H1235  H     0.04564   0.63068   0.69496   0.00000  Uiso   1.00
H1236  H     0.04779   0.58288   0.70510   0.00000  Uiso   1.00
C1237  C     0.10959   0.55318   0.71468   0.00000  Uiso   1.00
H1238  H     0.13341   0.53448   0.71380   0.00000  Uiso   1.00
H1239  H     0.08754   0.53886   0.73074   0.00000  Uiso   1.00
H1240  H     0.10123   0.55730   0.68403   0.00000  Uiso   1.00
C1241  C     0.39030   0.94672   0.28561   0.00000  Uiso   1.00
H1242  H     0.36648   0.96542   0.28644   0.00000  Uiso   1.00
H1243  H     0.39856   0.94251   0.31628   0.00000  Uiso   1.00
H1244  H     0.41242   0.96107   0.26968   0.00000  Uiso   1.00
C1245  C     0.05104   0.89061   0.72054   0.00000  Uiso   1.00
H1246  H     0.03131   0.88791   0.74475   0.00000  Uiso   1.00
H1247  H     0.04682   0.91820   0.70809   0.00000  Uiso   1.00
H1248  H     0.04401   0.87054   0.69749   0.00000  Uiso   1.00
C1249  C     0.44902   0.60930   0.27922   0.00000  Uiso   1.00
H1250  H     0.46868   0.61201   0.25493   0.00000  Uiso   1.00
H1251  H     0.45614   0.62935   0.30226   0.00000  Uiso   1.00
H1252  H     0.45326   0.58170   0.29162   0.00000  Uiso   1.00
C1253  C     0.38630   0.94289   0.70546   0.00000  Uiso   1.00
H1254  H     0.36322   0.96251   0.70698   0.00000  Uiso   1.00
H1255  H     0.41080   0.95753   0.71649   0.00000  Uiso   1.00
H1256  H     0.39000   0.93612   0.67432   0.00000  Uiso   1.00
C1257  C     0.11340   0.55681   0.29393   0.00000  Uiso   1.00
H1258  H     0.13650   0.53722   0.29249   0.00000  Uiso   1.00
H1259  H     0.10946   0.56338   0.32509   0.00000  Uiso   1.00
H1260  H     0.08899   0.54222   0.28259   0.00000  Uiso   1.00
C1261  C     0.44684   0.60903   0.71535   0.00000  Uiso   1.00
H1262  H     0.46578   0.63264   0.71490   0.00000  Uiso   1.00
H1263  H     0.46075   0.58662   0.73143   0.00000  Uiso   1.00
H1264  H     0.44292   0.60090   0.68460   0.00000  Uiso   1.00
C1265  C     0.05316   0.89098   0.28463   0.00000  Uiso   1.00
H1266  H     0.03422   0.86736   0.28510   0.00000  Uiso   1.00
H1267  H     0.05707   0.89912   0.31538   0.00000  Uiso   1.00
H1268  H     0.03924   0.91337   0.26853   0.00000  Uiso   1.00
C1269  C     0.36054   0.69842   0.78204   0.00000  Uiso   1.00
H1270  H     0.36333   0.71914   0.75868   0.00000  Uiso   1.00
H1271  H     0.33318   0.70254   0.79491   0.00000  Uiso   1.00
H1272  H     0.38086   0.70434   0.80515   0.00000  Uiso   1.00
C1273  C     0.13948   0.80157   0.21800   0.00000  Uiso   1.00
H1274  H     0.13668   0.78087   0.24137   0.00000  Uiso   1.00
H1275  H     0.11916   0.79563   0.19488   0.00000  Uiso   1.00
H1276  H     0.16684   0.79745   0.20514   0.00000  Uiso   1.00
C1277  C     0.30669   0.86528   0.79371   0.00000  Uiso   1.00
H1278  H     0.28327   0.86642   0.77329   0.00000  Uiso   1.00
H1279  H     0.30418   0.83935   0.81003   0.00000  Uiso   1.00
H1280  H     0.30403   0.88794   0.81503   0.00000  Uiso   1.00
C1281  C     0.19362   0.63504   0.20694   0.00000  Uiso   1.00
H1282  H     0.21688   0.63380   0.22756   0.00000  Uiso   1.00
H1283  H     0.19647   0.61251   0.18548   0.00000  Uiso   1.00
H1284  H     0.19623   0.66107   0.19082   0.00000  Uiso   1.00
C1285  C     0.14122   0.80246   0.78326   0.00000  Uiso   1.00
H1286  H     0.11741   0.78385   0.78448   0.00000  Uiso   1.00
H1287  H     0.16284   0.78835   0.76628   0.00000  Uiso   1.00
H1288  H     0.15036   0.80601   0.81375   0.00000  Uiso   1.00
C1289  C     0.35871   0.69761   0.21695   0.00000  Uiso   1.00
H1290  H     0.38252   0.71621   0.21569   0.00000  Uiso   1.00
H1291  H     0.34949   0.69412   0.18648   0.00000  Uiso   1.00
H1292  H     0.33715   0.71170   0.23403   0.00000  Uiso   1.00
C1293  C     0.19823   0.63972   0.78191   0.00000  Uiso   1.00
H1294  H     0.21874   0.63701   0.75840   0.00000  Uiso   1.00
H1295  H     0.20224   0.66716   0.79479   0.00000  Uiso   1.00
H1296  H     0.20442   0.61936   0.80495   0.00000  Uiso   1.00
C1297  C     0.30190   0.86043   0.21768   0.00000  Uiso   1.00
H1298  H     0.28129   0.86309   0.24110   0.00000  Uiso   1.00
H1299  H     0.29583   0.88085   0.19468   0.00000  Uiso   1.00
H1300  H     0.29793   0.83302   0.20469   0.00000  Uiso   1.00
C1301  C     0.35969   0.80328   0.21440   0.00000  Uiso   1.00
H1302  H     0.38351   0.78458   0.21357   0.00000  Uiso   1.00
H1303  H     0.33758   0.78894   0.23033   0.00000  Uiso   1.00
H1304  H     0.35144   0.80749   0.18372   0.00000  Uiso   1.00
C1305  C     0.14042   0.69683   0.78528   0.00000  Uiso   1.00
H1306  H     0.11659   0.71552   0.78619   0.00000  Uiso   1.00
H1307  H     0.14881   0.69271   0.81592   0.00000  Uiso   1.00
H1308  H     0.16245   0.71116   0.76920   0.00000  Uiso   1.00
C1309  C     0.30098   0.64070   0.22078   0.00000  Uiso   1.00
H1310  H     0.28133   0.63799   0.24507   0.00000  Uiso   1.00
H1311  H     0.29674   0.66830   0.20838   0.00000  Uiso   1.00
H1312  H     0.29386   0.62065   0.19774   0.00000  Uiso   1.00
C1313  C     0.19895   0.85939   0.77950   0.00000  Uiso   1.00
H1314  H     0.21869   0.86210   0.75528   0.00000  Uiso   1.00
H1315  H     0.20597   0.87947   0.80254   0.00000  Uiso   1.00
H1316  H     0.20317   0.83181   0.79194   0.00000  Uiso   1.00
C1317  C     0.13661   0.69320   0.20608   0.00000  Uiso   1.00
H1318  H     0.11350   0.71278   0.20752   0.00000  Uiso   1.00
H1319  H     0.16101   0.70778   0.21743   0.00000  Uiso   1.00
H1320  H     0.14055   0.68663   0.17493   0.00000  Uiso   1.00
C1321  C     0.36368   0.80709   0.79450   0.00000  Uiso   1.00
H1322  H     0.38675   0.78746   0.79296   0.00000  Uiso   1.00
H1323  H     0.35999   0.81385   0.82564   0.00000  Uiso   1.00
H1324  H     0.33917   0.79247   0.78345   0.00000  Uiso   1.00
C1325  C     0.19684   0.85902   0.21537   0.00000  Uiso   1.00
H1326  H     0.21578   0.88264   0.21490   0.00000  Uiso   1.00
H1327  H     0.21076   0.83664   0.23146   0.00000  Uiso   1.00
H1328  H     0.19292   0.85088   0.18462   0.00000  Uiso   1.00
C1329  C     0.30316   0.64098   0.78463   0.00000  Uiso   1.00
H1330  H     0.28422   0.61737   0.78508   0.00000  Uiso   1.00
H1331  H     0.30707   0.64910   0.81539   0.00000  Uiso   1.00
H1332  H     0.28925   0.66338   0.76855   0.00000  Uiso   1.00
C1333  C     0.96793   0.75813   0.41859   0.00000  Uiso   1.00
C1334  C     0.53209   0.74222   0.58140   0.00000  Uiso   1.00
C1335  C     0.74229   0.53219   0.41868   0.00000  Uiso   1.00
C1336  C     0.75906   0.96802   0.58134   0.00000  Uiso   1.00
C1337  C     0.53208   0.74189   0.41870   0.00000  Uiso   1.00
C1338  C     0.96793   0.75840   0.58130   0.00000  Uiso   1.00
C1339  C     0.75853   0.96791   0.41865   0.00000  Uiso   1.00
C1340  C     0.74276   0.53227   0.58135   0.00000  Uiso   1.00
C1341  C     0.71779   0.50718   0.91859   0.00000  Uiso   1.00
C1342  C     0.78199   0.99155   0.08140   0.00000  Uiso   1.00
C1343  C     0.99247   0.78230   0.91867   0.00000  Uiso   1.00
C1344  C     0.50730   0.71764   0.08133   0.00000  Uiso   1.00
C1345  C     0.78189   0.99074   0.91869   0.00000  Uiso   1.00
C1346  C     0.71780   0.50766   0.08129   0.00000  Uiso   1.00
C1347  C     0.50739   0.71770   0.91865   0.00000  Uiso   1.00
C1348  C     0.99283   0.78235   0.08135   0.00000  Uiso   1.00
C1349  C     0.50002   0.75002   0.39842   0.00000  Uiso   1.00
C1350  C     0.99998   0.75019   0.60158   0.00000  Uiso   1.00
C1351  C     0.75024   0.50002   0.39845   0.00000  Uiso   1.00
C1352  C     0.75054   0.50006   0.60156   0.00000  Uiso   1.00
C1353  C     0.74995   0.99939   0.89842   0.00000  Uiso   1.00
C1354  C     0.74993   0.99979   0.10157   0.00000  Uiso   1.00
C1355  C     0.99995   0.75001   0.89844   0.00000  Uiso   1.00
C1356  C     0.50005   0.74999   0.10156   0.00000  Uiso   1.00
C1357  C     0.56462   0.73140   0.47965   0.00000  Uiso   1.00
C1358  C     0.93543   0.76908   0.52035   0.00000  Uiso   1.00
C1359  C     0.76977   0.93542   0.47949   0.00000  Uiso   1.00
C1360  C     0.73291   0.56505   0.52049   0.00000  Uiso   1.00
C1361  C     0.93528   0.76832   0.47942   0.00000  Uiso   1.00
C1362  C     0.56478   0.73219   0.52058   0.00000  Uiso   1.00
C1363  C     0.73208   0.56486   0.47957   0.00000  Uiso   1.00
C1364  C     0.77134   0.93582   0.52048   0.00000  Uiso   1.00
C1365  C     0.81434   0.97996   0.97966   0.00000  Uiso   1.00
C1366  C     0.68494   0.51679   0.02030   0.00000  Uiso   1.00
C1367  C     0.51726   0.68486   0.97952   0.00000  Uiso   1.00
C1368  C     0.98359   0.81532   0.02048   0.00000  Uiso   1.00
C1369  C     0.68455   0.51515   0.97940   0.00000  Uiso   1.00
C1370  C     0.81452   0.98086   0.02059   0.00000  Uiso   1.00
C1371  C     0.98267   0.81514   0.97956   0.00000  Uiso   1.00
C1372  C     0.51657   0.68470   0.02044   0.00000  Uiso   1.00
C1373  C     0.75002   0.50001   0.35601   0.00000  Uiso   1.00
C1374  C     0.75005   0.50000   0.64399   0.00000  Uiso   1.00
C1375  C     0.50002   0.75001   0.35599   0.00000  Uiso   1.00
C1376  C     0.99998   0.75003   0.64401   0.00000  Uiso   1.00
C1377  C     0.99998   0.75001   0.85601   0.00000  Uiso   1.00
C1378  C     0.50001   0.74999   0.14399   0.00000  Uiso   1.00
C1379  C     0.75001   0.99996   0.85599   0.00000  Uiso   1.00
C1380  C     0.74998   0.50000   0.14401   0.00000  Uiso   1.00
C1381  C     0.68008   0.56999   0.24998   0.00000  Uiso   1.00
C1382  C     0.81992   0.93001   0.75002   0.00000  Uiso   1.00
C1383  C     0.93010   0.67997   0.24996   0.00000  Uiso   1.00
C1384  C     0.56990   0.82003   0.75004   0.00000  Uiso   1.00
C1385  C     0.81990   0.93000   0.25003   0.00000  Uiso   1.00
C1386  C     0.68010   0.57000   0.74997   0.00000  Uiso   1.00
C1387  C     0.56999   0.81995   0.25001   0.00000  Uiso   1.00
C1388  C     0.93001   0.68005   0.74999   0.00000  Uiso   1.00
C1389  C     0.68010   0.92997   0.74996   0.00000  Uiso   1.00
C1390  C     0.81990   0.57003   0.25004   0.00000  Uiso   1.00
C1391  C     0.93008   0.81999   0.74997   0.00000  Uiso   1.00
C1392  C     0.56992   0.68001   0.25003   0.00000  Uiso   1.00
C1393  C     0.81999   0.56995   0.75001   0.00000  Uiso   1.00
C1394  C     0.68001   0.93005   0.24999   0.00000  Uiso   1.00
C1395  C     0.56990   0.68000   0.75003   0.00000  Uiso   1.00
C1396  C     0.93010   0.82000   0.24997   0.00000  Uiso   1.00
C1397  C     0.61732   0.91027   0.26555   0.00000  Uiso   1.00
C1398  C     0.88268   0.58974   0.73443   0.00000  Uiso   1.00
C1399  C     0.59206   0.61941   0.27094   0.00000  Uiso   1.00
C1400  C     0.90779   0.88044   0.72875   0.00000  Uiso   1.00
C1401  C     0.88314   0.58967   0.26532   0.00000  Uiso   1.00
C1402  C     0.61689   0.91029   0.73459   0.00000  Uiso   1.00
C1403  C     0.91008   0.88271   0.26580   0.00000  Uiso   1.00
C1404  C     0.58987   0.61724   0.73436   0.00000  Uiso   1.00
C1405  C     0.61727   0.59006   0.73352   0.00000  Uiso   1.00
C1406  C     0.88268   0.90988   0.26663   0.00000  Uiso   1.00
C1407  C     0.58952   0.88317   0.73552   0.00000  Uiso   1.00
C1408  C     0.91051   0.61680   0.26437   0.00000  Uiso   1.00
C1409  C     0.88061   0.90786   0.72855   0.00000  Uiso   1.00
C1410  C     0.61924   0.59199   0.27115   0.00000  Uiso   1.00
C1411  C     0.90992   0.61703   0.73379   0.00000  Uiso   1.00
C1412  C     0.59008   0.88298   0.26619   0.00000  Uiso   1.00
C1413  C     0.86732   0.66026   0.76556   0.00000  Uiso   1.00
C1414  C     0.63268   0.83973   0.23445   0.00000  Uiso   1.00
C1415  C     0.84221   0.86956   0.77124   0.00000  Uiso   1.00
C1416  C     0.65794   0.63060   0.22908   0.00000  Uiso   1.00
C1417  C     0.63310   0.83971   0.76543   0.00000  Uiso   1.00
C1418  C     0.86687   0.66033   0.23468   0.00000  Uiso   1.00
C1419  C     0.66014   0.63277   0.76560   0.00000  Uiso   1.00
C1420  C     0.83992   0.86729   0.23420   0.00000  Uiso   1.00
C1421  C     0.86732   0.84012   0.23337   0.00000  Uiso   1.00
C1422  C     0.63274   0.65994   0.76645   0.00000  Uiso   1.00
C1423  C     0.83949   0.63320   0.23563   0.00000  Uiso   1.00
C1424  C     0.66048   0.86684   0.76450   0.00000  Uiso   1.00
C1425  C     0.63076   0.65802   0.22886   0.00000  Uiso   1.00
C1426  C     0.86939   0.84213   0.77143   0.00000  Uiso   1.00
C1427  C     0.65992   0.86703   0.23381   0.00000  Uiso   1.00
C1428  C     0.84008   0.63297   0.76620   0.00000  Uiso   1.00
C1429  C     0.53241   0.74102   0.45931   0.00000  Uiso   1.00
C1430  C     0.96762   0.75939   0.54070   0.00000  Uiso   1.00
C1431  C     0.75991   0.96766   0.45926   0.00000  Uiso   1.00
C1432  C     0.74230   0.53272   0.54075   0.00000  Uiso   1.00
C1433  C     0.96755   0.75896   0.45919   0.00000  Uiso   1.00
C1434  C     0.53248   0.74149   0.54080   0.00000  Uiso   1.00
C1435  C     0.74174   0.53260   0.45928   0.00000  Uiso   1.00
C1436  C     0.76082   0.96788   0.54075   0.00000  Uiso   1.00
C1437  C     0.78212   0.98948   0.95930   0.00000  Uiso   1.00
C1438  C     0.71733   0.50793   0.04068   0.00000  Uiso   1.00
C1439  C     0.50833   0.71734   0.95925   0.00000  Uiso   1.00
C1440  C     0.99208   0.78275   0.04075   0.00000  Uiso   1.00
C1441  C     0.71707   0.50668   0.95918   0.00000  Uiso   1.00
C1442  C     0.78226   0.99029   0.04081   0.00000  Uiso   1.00
C1443  C     0.99156   0.78265   0.95926   0.00000  Uiso   1.00
C1444  C     0.50804   0.71725   0.04074   0.00000  Uiso   1.00
C1445  C     0.59804   0.84811   0.25031   0.00000  Uiso   1.00
C1446  C     0.90196   0.65189   0.74969   0.00000  Uiso   1.00
C1447  C     0.65187   0.59800   0.25017   0.00000  Uiso   1.00
C1448  C     0.84813   0.90201   0.74984   0.00000  Uiso   1.00
C1449  C     0.90196   0.65189   0.24951   0.00000  Uiso   1.00
C1450  C     0.59804   0.84811   0.75049   0.00000  Uiso   1.00
C1451  C     0.84804   0.90191   0.25043   0.00000  Uiso   1.00
C1452  C     0.65196   0.59809   0.74955   0.00000  Uiso   1.00
C1453  C     0.59804   0.65191   0.75043   0.00000  Uiso   1.00
C1454  C     0.90196   0.84809   0.24957   0.00000  Uiso   1.00
C1455  C     0.65196   0.90189   0.74952   0.00000  Uiso   1.00
C1456  C     0.84804   0.59811   0.25049   0.00000  Uiso   1.00
C1457  C     0.90187   0.84799   0.75016   0.00000  Uiso   1.00
C1458  C     0.59813   0.65200   0.24984   0.00000  Uiso   1.00
C1459  C     0.84804   0.59811   0.75031   0.00000  Uiso   1.00
C1460  C     0.65196   0.90189   0.24969   0.00000  Uiso   1.00
C1461  C     0.50001   0.75015   0.47966   0.00000  Uiso   1.00
C1462  C     0.50002   0.75029   0.52034   0.00000  Uiso   1.00
C1463  C     0.75119   0.50022   0.47968   0.00000  Uiso   1.00
C1464  C     0.75142   0.50026   0.52034   0.00000  Uiso   1.00
C1465  C     0.74962   0.99824   0.97965   0.00000  Uiso   1.00
C1466  C     0.74970   0.99871   0.02033   0.00000  Uiso   1.00
C1467  C     0.99998   0.75000   0.97966   0.00000  Uiso   1.00
C1468  C     0.50003   0.75000   0.02033   0.00000  Uiso   1.00
H1469  H     0.94334   0.76428   0.40232   0.00000  Uiso   1.00
H1470  H     0.55667   0.73606   0.59767   0.00000  Uiso   1.00
H1471  H     0.73617   0.55685   0.40246   0.00000  Uiso   1.00
H1472  H     0.76454   0.94322   0.59756   0.00000  Uiso   1.00
H1473  H     0.55673   0.73592   0.40253   0.00000  Uiso   1.00
H1474  H     0.94326   0.76432   0.59749   0.00000  Uiso   1.00
H1475  H     0.76458   0.94327   0.40238   0.00000  Uiso   1.00
H1476  H     0.73642   0.55687   0.59758   0.00000  Uiso   1.00
H1477  H     0.69345   0.51431   0.90233   0.00000  Uiso   1.00
H1478  H     0.80663   0.98563   0.09768   0.00000  Uiso   1.00
H1479  H     0.98706   0.80714   0.90246   0.00000  Uiso   1.00
H1480  H     0.51279   0.69284   0.09755   0.00000  Uiso   1.00
H1481  H     0.80658   0.98492   0.90251   0.00000  Uiso   1.00
H1482  H     0.69319   0.51381   0.09746   0.00000  Uiso   1.00
H1483  H     0.51280   0.69287   0.90243   0.00000  Uiso   1.00
H1484  H     0.98733   0.80715   0.09758   0.00000  Uiso   1.00
O1485  O     0.75000   0.50000   0.25000   0.00000  Uiso   1.00
O1486  O     0.75000   0.50000   0.75000   0.00000  Uiso   1.00
O1487  O     0.50000   0.75000   0.25000   0.00000  Uiso   1.00
O1488  O     0.50000   0.75000   0.75000   0.00000  Uiso   1.00
O1489  O     0.75000   0.96964   0.33755   0.00000  Uiso   1.00
O1490  O     0.75000   0.53037   0.66245   0.00000  Uiso   1.00
O1491  O     0.53037   0.75000   0.33755   0.00000  Uiso   1.00
O1492  O     0.96964   0.75000   0.66245   0.00000  Uiso   1.00
O1493  O     0.75000   0.53037   0.33755   0.00000  Uiso   1.00
O1494  O     0.75000   0.96964   0.66245   0.00000  Uiso   1.00
O1495  O     0.96964   0.75000   0.33755   0.00000  Uiso   1.00
O1496  O     0.53037   0.75000   0.66245   0.00000  Uiso   1.00
O1497  O     0.50000   0.71963   0.83755   0.00000  Uiso   1.00
O1498  O     0.50000   0.78037   0.16245   0.00000  Uiso   1.00
O1499  O     0.78037   0.50000   0.83755   0.00000  Uiso   1.00
O1500  O     0.71964   0.50000   0.16245   0.00000  Uiso   1.00
O1501  O     0.50000   0.78036   0.83755   0.00000  Uiso   1.00
O1502  O     0.50000   0.71963   0.16245   0.00000  Uiso   1.00
O1503  O     0.71964   0.50000   0.83755   0.00000  Uiso   1.00
O1504  O     0.78037   0.50000   0.16245   0.00000  Uiso   1.00
O1505  O     0.70725   0.57308   0.27302   0.00000  Uiso   1.00
O1506  O     0.79276   0.92693   0.72698   0.00000  Uiso   1.00
O1507  O     0.92693   0.70725   0.27302   0.00000  Uiso   1.00
O1508  O     0.57308   0.79275   0.72698   0.00000  Uiso   1.00
O1509  O     0.79276   0.92693   0.27302   0.00000  Uiso   1.00
O1510  O     0.70725   0.57308   0.72698   0.00000  Uiso   1.00
O1511  O     0.57308   0.79275   0.27302   0.00000  Uiso   1.00
O1512  O     0.92693   0.70725   0.72698   0.00000  Uiso   1.00
O1513  O     0.70725   0.92693   0.72698   0.00000  Uiso   1.00
O1514  O     0.79276   0.57308   0.27302   0.00000  Uiso   1.00
O1515  O     0.92693   0.79276   0.72698   0.00000  Uiso   1.00
O1516  O     0.57308   0.70725   0.27302   0.00000  Uiso   1.00
O1517  O     0.79276   0.57308   0.72698   0.00000  Uiso   1.00
O1518  O     0.70725   0.92693   0.27302   0.00000  Uiso   1.00
O1519  O     0.57308   0.70725   0.72698   0.00000  Uiso   1.00
O1520  O     0.92693   0.79276   0.27302   0.00000  Uiso   1.00
O1521  O     0.95725   0.82308   0.77302   0.00000  Uiso   1.00
O1522  O     0.54276   0.67692   0.22698   0.00000  Uiso   1.00
O1523  O     0.67693   0.95725   0.77302   0.00000  Uiso   1.00
O1524  O     0.82308   0.54276   0.22698   0.00000  Uiso   1.00
O1525  O     0.54276   0.67692   0.77302   0.00000  Uiso   1.00
O1526  O     0.95725   0.82308   0.22698   0.00000  Uiso   1.00
O1527  O     0.82308   0.54276   0.77302   0.00000  Uiso   1.00
O1528  O     0.67693   0.95725   0.22698   0.00000  Uiso   1.00
O1529  O     0.95725   0.67693   0.22698   0.00000  Uiso   1.00
O1530  O     0.54276   0.82307   0.77302   0.00000  Uiso   1.00
O1531  O     0.67693   0.54276   0.22698   0.00000  Uiso   1.00
O1532  O     0.82308   0.95725   0.77302   0.00000  Uiso   1.00
O1533  O     0.54276   0.82307   0.22698   0.00000  Uiso   1.00
O1534  O     0.95725   0.67693   0.77302   0.00000  Uiso   1.00
O1535  O     0.82308   0.95725   0.22698   0.00000  Uiso   1.00
O1536  O     0.67693   0.54276   0.77302   0.00000  Uiso   1.00
Zn1537 Zn    0.70660   0.50000   0.21735   0.00000  Uiso   1.00
Zn1538 Zn    0.79341   0.50000   0.78265   0.00000  Uiso   1.00
Zn1539 Zn    0.50000   0.70659   0.21735   0.00000  Uiso   1.00
Zn1540 Zn    0.50000   0.79340   0.78265   0.00000  Uiso   1.00
Zn1541 Zn    0.79341   0.50000   0.21735   0.00000  Uiso   1.00
Zn1542 Zn    0.70660   0.50000   0.78265   0.00000  Uiso   1.00
Zn1543 Zn    0.50000   0.79340   0.21735   0.00000  Uiso   1.00
Zn1544 Zn    0.50000   0.70659   0.78265   0.00000  Uiso   1.00
Zn1545 Zn    0.95660   0.75000   0.71735   0.00000  Uiso   1.00
Zn1546 Zn    0.54341   0.75000   0.28265   0.00000  Uiso   1.00
Zn1547 Zn    0.75000   0.95660   0.71735   0.00000  Uiso   1.00
Zn1548 Zn    0.75000   0.54341   0.28265   0.00000  Uiso   1.00
Zn1549 Zn    0.54341   0.75000   0.71735   0.00000  Uiso   1.00
Zn1550 Zn    0.95660   0.75000   0.28265   0.00000  Uiso   1.00
Zn1551 Zn    0.75000   0.54341   0.71735   0.00000  Uiso   1.00
Zn1552 Zn    0.75000   0.95660   0.28265   0.00000  Uiso   1.00
N1553  N     0.59638   0.72016   0.45873   0.00000  Uiso   1.00
H1554  H     0.62102   0.72893   0.46977   0.00000  Uiso   1.00
C1555  C     0.59674   0.68191   0.44756   0.00000  Uiso   1.00
H1556  H     0.59776   0.66409   0.47359   0.00000  Uiso   1.00
H1557  H     0.62120   0.67627   0.42946   0.00000  Uiso   1.00
H1558  H     0.57201   0.67502   0.43032   0.00000  Uiso   1.00
N1559  N     0.90367   0.78032   0.54128   0.00000  Uiso   1.00
H1560  H     0.87902   0.77159   0.53020   0.00000  Uiso   1.00
C1561  C     0.90334   0.81855   0.55250   0.00000  Uiso   1.00
H1562  H     0.90229   0.83641   0.52649   0.00000  Uiso   1.00
H1563  H     0.92810   0.82541   0.56971   0.00000  Uiso   1.00
H1564  H     0.87892   0.82417   0.57065   0.00000  Uiso   1.00
N1565  N     0.77710   0.90265   0.45824   0.00000  Uiso   1.00
H1566  H     0.76482   0.87914   0.46832   0.00000  Uiso   1.00
C1567  C     0.81448   0.89766   0.44561   0.00000  Uiso   1.00
H1568  H     0.83153   0.88720   0.46978   0.00000  Uiso   1.00
H1569  H     0.82612   0.92376   0.43458   0.00000  Uiso   1.00
H1570  H     0.81518   0.87720   0.42179   0.00000  Uiso   1.00
N1571  N     0.72411   0.59755   0.54154   0.00000  Uiso   1.00
H1572  H     0.73617   0.62158   0.53257   0.00000  Uiso   1.00
C1573  C     0.68671   0.60109   0.55479   0.00000  Uiso   1.00
H1574  H     0.67241   0.62264   0.53784   0.00000  Uiso   1.00
H1575  H     0.68674   0.60928   0.58578   0.00000  Uiso   1.00
H1576  H     0.67140   0.57490   0.55193   0.00000  Uiso   1.00
N1577  N     0.90284   0.77710   0.45832   0.00000  Uiso   1.00
H1578  H     0.87890   0.76489   0.46719   0.00000  Uiso   1.00
C1579  C     0.89918   0.81462   0.44516   0.00000  Uiso   1.00
H1580  H     0.87744   0.82877   0.46192   0.00000  Uiso   1.00
H1581  H     0.89128   0.81466   0.41408   0.00000  Uiso   1.00
H1582  H     0.92519   0.83012   0.44834   0.00000  Uiso   1.00
N1583  N     0.59723   0.72349   0.54169   0.00000  Uiso   1.00
H1584  H     0.62118   0.73564   0.53273   0.00000  Uiso   1.00
C1585  C     0.60086   0.68603   0.55502   0.00000  Uiso   1.00
H1586  H     0.62228   0.67169   0.53799   0.00000  Uiso   1.00
H1587  H     0.57472   0.67066   0.55233   0.00000  Uiso   1.00
H1588  H     0.60920   0.68611   0.58596   0.00000  Uiso   1.00
N1589  N     0.72068   0.59664   0.45860   0.00000  Uiso   1.00
H1590  H     0.72939   0.62138   0.46957   0.00000  Uiso   1.00
C1591  C     0.68248   0.59687   0.44753   0.00000  Uiso   1.00
H1592  H     0.66478   0.59789   0.47360   0.00000  Uiso   1.00
H1593  H     0.67561   0.57203   0.43039   0.00000  Uiso   1.00
H1594  H     0.67672   0.62133   0.42937   0.00000  Uiso   1.00
N1595  N     0.78410   0.90453   0.54149   0.00000  Uiso   1.00
H1596  H     0.77827   0.87935   0.52959   0.00000  Uiso   1.00
C1597  C     0.82141   0.90712   0.55547   0.00000  Uiso   1.00
H1598  H     0.84079   0.90924   0.53090   0.00000  Uiso   1.00
H1599  H     0.82826   0.88230   0.57265   0.00000  Uiso   1.00
H1600  H     0.82499   0.93144   0.57443   0.00000  Uiso   1.00
N1601  N     0.84614   0.96882   0.95873   0.00000  Uiso   1.00
H1602  H     0.87077   0.97764   0.96975   0.00000  Uiso   1.00
C1603  C     0.84657   0.93058   0.94749   0.00000  Uiso   1.00
H1604  H     0.84759   0.91273   0.97351   0.00000  Uiso   1.00
H1605  H     0.87105   0.92501   0.92941   0.00000  Uiso   1.00
H1606  H     0.82186   0.92369   0.93021   0.00000  Uiso   1.00
N1607  N     0.65272   0.52671   0.04116   0.00000  Uiso   1.00
H1608  H     0.62865   0.51654   0.02996   0.00000  Uiso   1.00
C1609  C     0.65039   0.56516   0.05127   0.00000  Uiso   1.00
H1610  H     0.64816   0.58224   0.02472   0.00000  Uiso   1.00
H1611  H     0.67486   0.57377   0.06805   0.00000  Uiso   1.00
H1612  H     0.62581   0.56990   0.06947   0.00000  Uiso   1.00
N1613  N     0.52769   0.65278   0.95851   0.00000  Uiso   1.00
H1614  H     0.51837   0.62829   0.96948   0.00000  Uiso   1.00
C1615  C     0.56583   0.65155   0.94739   0.00000  Uiso   1.00
H1616  H     0.58359   0.65008   0.97345   0.00000  Uiso   1.00
H1617  H     0.57326   0.67620   0.93026   0.00000  Uiso   1.00
H1618  H     0.57086   0.62695   0.92920   0.00000  Uiso   1.00
N1619  N     0.97581   0.84808   0.04153   0.00000  Uiso   1.00
H1620  H     0.98867   0.87170   0.03259   0.00000  Uiso   1.00
C1621  C     0.93850   0.85285   0.05463   0.00000  Uiso   1.00
H1622  H     0.92492   0.87472   0.03748   0.00000  Uiso   1.00
H1623  H     0.93869   0.86122   0.08556   0.00000  Uiso   1.00
H1624  H     0.92240   0.82712   0.05190   0.00000  Uiso   1.00
N1625  N     0.65178   0.52283   0.95837   0.00000  Uiso   1.00
H1626  H     0.63587   0.54362   0.96956   0.00000  Uiso   1.00
C1627  C     0.63081   0.99072   0.94786   0.00000  Uiso   1.00
H1628  H     0.62033   0.97682   0.97425   0.00000  Uiso   1.00
H1629  H     0.64786   0.97114   0.93107   0.00000  Uiso   1.00
H1630  H     0.60722   0.99901   0.92953   0.00000  Uiso   1.00
N1631  N     0.84698   0.97219   0.04171   0.00000  Uiso   1.00
H1632  H     0.87097   0.98416   0.03265   0.00000  Uiso   1.00
C1633  C     0.85045   0.93481   0.05535   0.00000  Uiso   1.00
H1634  H     0.87153   0.92014   0.03816   0.00000  Uiso   1.00
H1635  H     0.82415   0.91965   0.05317   0.00000  Uiso   1.00
H1636  H     0.85916   0.93508   0.08618   0.00000  Uiso   1.00
N1637  N     0.97208   0.84720   0.95859   0.00000  Uiso   1.00
H1638  H     0.98127   0.87172   0.96965   0.00000  Uiso   1.00
C1639  C     0.93393   0.84828   0.94735   0.00000  Uiso   1.00
H1640  H     0.91616   0.84962   0.97336   0.00000  Uiso   1.00
H1641  H     0.92660   0.82364   0.93012   0.00000  Uiso   1.00
H1642  H     0.92878   0.87290   0.92923   0.00000  Uiso   1.00
N1643  N     0.52468   0.65200   0.04147   0.00000  Uiso   1.00
H1644  H     0.51207   0.62824   0.03248   0.00000  Uiso   1.00
C1645  C     0.56201   0.64763   0.05481   0.00000  Uiso   1.00
H1646  H     0.57575   0.62552   0.03812   0.00000  Uiso   1.00
H1647  H     0.56182   0.63979   0.08589   0.00000  Uiso   1.00
H1648  H     0.57799   0.67338   0.05168   0.00000  Uiso   1.00
C1649  C     0.61052   0.94843   0.28200   0.00000  Uiso   1.00
H1650  H     0.61332   0.96914   0.25863   0.00000  Uiso   1.00
H1651  H     0.58316   0.95255   0.29486   0.00000  Uiso   1.00
H1652  H     0.63084   0.95437   0.30512   0.00000  Uiso   1.00
C1653  C     0.88946   0.55158   0.71796   0.00000  Uiso   1.00
H1654  H     0.88667   0.53086   0.74131   0.00000  Uiso   1.00
H1655  H     0.86913   0.54567   0.69484   0.00000  Uiso   1.00
H1656  H     0.91682   0.54747   0.70508   0.00000  Uiso   1.00
C1657  C     0.55639   0.61497   0.29309   0.00000  Uiso   1.00
H1658  H     0.53312   0.61621   0.27248   0.00000  Uiso   1.00
H1659  H     0.55378   0.58894   0.30921   0.00000  Uiso   1.00
H1660  H     0.55354   0.63750   0.31454   0.00000  Uiso   1.00
C1661  C     0.94331   0.88472   0.70629   0.00000  Uiso   1.00
H1662  H     0.96672   0.88358   0.72671   0.00000  Uiso   1.00
H1663  H     0.94597   0.86206   0.68496   0.00000  Uiso   1.00
H1664  H     0.94581   0.91065   0.68996   0.00000  Uiso   1.00
C1665  C     0.89129   0.55239   0.28305   0.00000  Uiso   1.00
H1666  H     0.86748   0.53378   0.28431   0.00000  Uiso   1.00
H1667  H     0.91286   0.53830   0.26597   0.00000  Uiso   1.00
H1668  H     0.90051   0.55587   0.31352   0.00000  Uiso   1.00
C1669  C     0.60877   0.94754   0.71676   0.00000  Uiso   1.00
H1670  H     0.63258   0.96615   0.71554   0.00000  Uiso   1.00
H1671  H     0.59963   0.94400   0.68627   0.00000  Uiso   1.00
H1672  H     0.58716   0.96165   0.73375   0.00000  Uiso   1.00
C1673  C     0.94810   0.88958   0.28232   0.00000  Uiso   1.00
H1674  H     0.96871   0.88691   0.25890   0.00000  Uiso   1.00
H1675  H     0.95207   0.91698   0.29530   0.00000  Uiso   1.00
H1676  H     0.95417   0.86915   0.30532   0.00000  Uiso   1.00
C1677  C     0.55179   0.61031   0.71800   0.00000  Uiso   1.00
H1678  H     0.53126   0.61302   0.74149   0.00000  Uiso   1.00
H1679  H     0.54564   0.63068   0.69496   0.00000  Uiso   1.00
H1680  H     0.54779   0.58288   0.70510   0.00000  Uiso   1.00
C1681  C     0.60959   0.55318   0.71468   0.00000  Uiso   1.00
H1682  H     0.63341   0.53448   0.71380   0.00000  Uiso   1.00
H1683  H     0.58754   0.53886   0.73074   0.00000  Uiso   1.00
H1684  H     0.60123   0.55730   0.68403   0.00000  Uiso   1.00
C1685  C     0.89030   0.94672   0.28561   0.00000  Uiso   1.00
H1686  H     0.86648   0.96542   0.28644   0.00000  Uiso   1.00
H1687  H     0.89856   0.94251   0.31628   0.00000  Uiso   1.00
H1688  H     0.91242   0.96107   0.26968   0.00000  Uiso   1.00
C1689  C     0.55104   0.89061   0.72054   0.00000  Uiso   1.00
H1690  H     0.53131   0.88791   0.74475   0.00000  Uiso   1.00
H1691  H     0.54682   0.91820   0.70809   0.00000  Uiso   1.00
H1692  H     0.54401   0.87054   0.69749   0.00000  Uiso   1.00
C1693  C     0.94902   0.60930   0.27922   0.00000  Uiso   1.00
H1694  H     0.96868   0.61201   0.25493   0.00000  Uiso   1.00
H1695  H     0.95614   0.62935   0.30226   0.00000  Uiso   1.00
H1696  H     0.95326   0.58170   0.29162   0.00000  Uiso   1.00
C1697  C     0.88630   0.94289   0.70546   0.00000  Uiso   1.00
H1698  H     0.86322   0.96251   0.70698   0.00000  Uiso   1.00
H1699  H     0.91080   0.95753   0.71649   0.00000  Uiso   1.00
H1700  H     0.89000   0.93612   0.67432   0.00000  Uiso   1.00
C1701  C     0.61340   0.55681   0.29393   0.00000  Uiso   1.00
H1702  H     0.63650   0.53722   0.29249   0.00000  Uiso   1.00
H1703  H     0.60946   0.56338   0.32509   0.00000  Uiso   1.00
H1704  H     0.58899   0.54222   0.28259   0.00000  Uiso   1.00
C1705  C     0.94684   0.60903   0.71535   0.00000  Uiso   1.00
H1706  H     0.96578   0.63264   0.71490   0.00000  Uiso   1.00
H1707  H     0.96075   0.58662   0.73143   0.00000  Uiso   1.00
H1708  H     0.94292   0.60090   0.68460   0.00000  Uiso   1.00
C1709  C     0.55316   0.89098   0.28463   0.00000  Uiso   1.00
H1710  H     0.53422   0.86736   0.28510   0.00000  Uiso   1.00
H1711  H     0.55707   0.89912   0.31538   0.00000  Uiso   1.00
H1712  H     0.53924   0.91337   0.26853   0.00000  Uiso   1.00
C1713  C     0.86054   0.69842   0.78204   0.00000  Uiso   1.00
H1714  H     0.86333   0.71914   0.75868   0.00000  Uiso   1.00
H1715  H     0.83318   0.70254   0.79491   0.00000  Uiso   1.00
H1716  H     0.88086   0.70434   0.80515   0.00000  Uiso   1.00
C1717  C     0.63948   0.80157   0.21800   0.00000  Uiso   1.00
H1718  H     0.63668   0.78087   0.24137   0.00000  Uiso   1.00
H1719  H     0.61916   0.79563   0.19488   0.00000  Uiso   1.00
H1720  H     0.66684   0.79745   0.20514   0.00000  Uiso   1.00
C1721  C     0.80669   0.86528   0.79371   0.00000  Uiso   1.00
H1722  H     0.78327   0.86642   0.77329   0.00000  Uiso   1.00
H1723  H     0.80418   0.83935   0.81003   0.00000  Uiso   1.00
H1724  H     0.80403   0.88794   0.81503   0.00000  Uiso   1.00
C1725  C     0.69362   0.63504   0.20694   0.00000  Uiso   1.00
H1726  H     0.71688   0.63380   0.22756   0.00000  Uiso   1.00
H1727  H     0.69647   0.61251   0.18548   0.00000  Uiso   1.00
H1728  H     0.69623   0.66107   0.19082   0.00000  Uiso   1.00
C1729  C     0.64122   0.80246   0.78326   0.00000  Uiso   1.00
H1730  H     0.61741   0.78385   0.78448   0.00000  Uiso   1.00
H1731  H     0.66284   0.78835   0.76628   0.00000  Uiso   1.00
H1732  H     0.65036   0.80601   0.81375   0.00000  Uiso   1.00
C1733  C     0.85871   0.69761   0.21695   0.00000  Uiso   1.00
H1734  H     0.88252   0.71621   0.21569   0.00000  Uiso   1.00
H1735  H     0.84949   0.69412   0.18648   0.00000  Uiso   1.00
H1736  H     0.83715   0.71170   0.23403   0.00000  Uiso   1.00
C1737  C     0.69823   0.63972   0.78191   0.00000  Uiso   1.00
H1738  H     0.71874   0.63701   0.75840   0.00000  Uiso   1.00
H1739  H     0.70224   0.66716   0.79479   0.00000  Uiso   1.00
H1740  H     0.70442   0.61936   0.80495   0.00000  Uiso   1.00
C1741  C     0.80190   0.86043   0.21768   0.00000  Uiso   1.00
H1742  H     0.78129   0.86309   0.24110   0.00000  Uiso   1.00
H1743  H     0.79583   0.88085   0.19468   0.00000  Uiso   1.00
H1744  H     0.79793   0.83302   0.20469   0.00000  Uiso   1.00
C1745  C     0.85969   0.80328   0.21440   0.00000  Uiso   1.00
H1746  H     0.88351   0.78458   0.21357   0.00000  Uiso   1.00
H1747  H     0.83758   0.78894   0.23033   0.00000  Uiso   1.00
H1748  H     0.85144   0.80749   0.18372   0.00000  Uiso   1.00
C1749  C     0.64042   0.69683   0.78528   0.00000  Uiso   1.00
H1750  H     0.61659   0.71552   0.78619   0.00000  Uiso   1.00
H1751  H     0.64881   0.69271   0.81592   0.00000  Uiso   1.00
H1752  H     0.66245   0.71116   0.76920   0.00000  Uiso   1.00
C1753  C     0.80098   0.64070   0.22078   0.00000  Uiso   1.00
H1754  H     0.78133   0.63799   0.24507   0.00000  Uiso   1.00
H1755  H     0.79674   0.66830   0.20838   0.00000  Uiso   1.00
H1756  H     0.79386   0.62065   0.19774   0.00000  Uiso   1.00
C1757  C     0.69895   0.85939   0.77950   0.00000  Uiso   1.00
H1758  H     0.71869   0.86210   0.75528   0.00000  Uiso   1.00
H1759  H     0.70597   0.87947   0.80254   0.00000  Uiso   1.00
H1760  H     0.70317   0.83181   0.79194   0.00000  Uiso   1.00
C1761  C     0.63661   0.69320   0.20608   0.00000  Uiso   1.00
H1762  H     0.61350   0.71278   0.20752   0.00000  Uiso   1.00
H1763  H     0.66101   0.70778   0.21743   0.00000  Uiso   1.00
H1764  H     0.64055   0.68663   0.17493   0.00000  Uiso   1.00
C1765  C     0.86368   0.80709   0.79450   0.00000  Uiso   1.00
H1766  H     0.88675   0.78746   0.79296   0.00000  Uiso   1.00
H1767  H     0.85999   0.81385   0.82564   0.00000  Uiso   1.00
H1768  H     0.83917   0.79247   0.78345   0.00000  Uiso   1.00
C1769  C     0.69684   0.85902   0.21537   0.00000  Uiso   1.00
H1770  H     0.71578   0.88264   0.21490   0.00000  Uiso   1.00
H1771  H     0.71076   0.83664   0.23146   0.00000  Uiso   1.00
H1772  H     0.69292   0.85088   0.18462   0.00000  Uiso   1.00
C1773  C     0.80316   0.64098   0.78463   0.00000  Uiso   1.00
H1774  H     0.78422   0.61737   0.78508   0.00000  Uiso   1.00
H1775  H     0.80707   0.64910   0.81539   0.00000  Uiso   1.00
H1776  H     0.78925   0.66338   0.76855   0.00000  Uiso   1.00
loop_
_geom_bond_atom_site_label_1
_geom_bond_atom_site_label_2
_geom_bond_distance
_geom_bond_site_symmetry_2
_ccdc_geom_bond_type
C1     C101    1.401   .     A
C1     H137    1.082   .     S
C1     C461    1.396   .     S
C2     H138    1.082   .     S
C2     C102    1.400   .     A
C2     C462    1.396   1_455 S
C3     C19     1.396   .     A
C3     C103    1.400   .     A
C3     H139    1.083   .     S
C4     C104    1.401   .     A
C4     H140    1.083   .     S
C4     C908    1.396   .     S
C5     C97     1.401   .     A
C5     C17     1.396   .     A
C5     H141    1.083   .     S
C6     C98     1.401   .     A
C6     H142    1.083   .     S
C6     C18     1.396   .     A
C7     C99     1.401   .     A
C7     H143    1.083   .     S
C7     C907    1.396   .     S
C8     C100    1.400   .     A
C8     C20     1.396   .     A
C8     H144    1.082   .     S
C9     C109    1.400   .     A
C9     H145    1.083   .     S
C9     C909    1.396   1_545 S
C10    H146    1.083   .     S
C10    C22     1.396   .     A
C10    C110    1.401   .     A
C11    C23     1.396   .     A
C11    H147    1.083   .     S
C11    C111    1.401   .     A
C12    C112    1.400   .     A
C12    C24     1.396   .     A
C12    H148    1.082   .     S
C13    C21     1.396   .     A
C13    C105    1.401   .     A
C13    H149    1.083   .     S
C14    C106    1.401   .     A
C14    H150    1.083   .     S
C14    C910    1.396   1_545 S
C15    H151    1.083   .     S
C15    C107    1.400   .     A
C15    C467    1.396   1_455 S
C16    H152    1.082   .     S
C16    C108    1.400   .     A
C16    C468    1.396   .     S
C17    C43     1.464   .     S
C17    C445    1.396   1_455 S
C18    C44     1.464   .     S
C18    C446    1.396   .     S
C19    C41     1.463   .     S
C19    C895    1.396   1_545 S
C20    C892    1.396   1_545 S
C20    C42     1.463   .     S
C21    C47     1.464   .     S
C21    C897    1.396   .     S
C22    C902    1.396   .     S
C22    C936    1.464   .     S
C23    C45     1.463   .     S
C23    C459    1.396   .     S
C24    C46     1.463   .     S
C24    C460    1.396   1_455 S
C25    C97     1.414   .     A
C25    C30     1.412   .     A
C25    N221    1.428   .     S
C26    N227    1.428   .     S
C26    C98     1.414   .     A
C26    C29     1.412   .     A
C27    C99     1.414   .     A
C27    C32     1.415   .     A
C27    N233    1.427   .     S
C28    N239    1.427   .     S
C28    C31     1.411   .     A
C28    C100    1.413   .     A
C29    C101    1.413   .     A
C29    N245    1.427   .     S
C30    C102    1.413   .     A
C30    N251    1.427   .     S
C31    N257    1.428   .     S
C31    C103    1.414   .     A
C32    C104    1.416   .     A
C32    N263    1.430   .     S
C33    C105    1.414   .     A
C33    N269    1.428   .     S
C33    C38     1.412   1_556 S
C34    N275    1.427   .     S
C34    C106    1.413   .     A
C34    C37     1.412   1_554 S
C35    C107    1.414   .     A
C35    N281    1.428   .     S
C35    C40     1.412   1_556 S
C36    C108    1.413   .     A
C36    N287    1.427   .     S
C36    C39     1.412   1_554 S
C37    C109    1.413   .     A
C37    N293    1.427   .     S
C37    C34     1.412   1_556 S
C38    C110    1.413   .     A
C38    N299    1.427   .     S
C38    C33     1.412   1_554 S
C39    N305    1.428   .     S
C39    C111    1.414   .     A
C39    C36     1.412   1_556 S
C40    C112    1.413   .     A
C40    N311    1.427   .     S
C40    C35     1.412   1_554 S
C41    O161    1.278   .     A
C41    O1045   1.278   1_545 S
C42    O1050   1.278   1_545 A
C42    O158    1.278   .     S
C43    O159    1.280   .     A
C43    O607    1.279   1_455 S
C44    O160    1.280   .     A
C44    O608    1.279   .     S
C45    O609    1.278   .     S
C45    O613    1.278   .     S
C46    O170    1.278   .     A
C46    O166    1.278   .     S
C47    O1055   1.280   .     S
C47    O1059   1.279   .     S
C48    O172    1.280   .     A
C48    O168    1.280   .     A
C48    C910    1.464   1_545 S
C49    O173    1.276   .     A
C49    C115    1.451   .     S
C49    O199    1.276   .     A
C50    O200    1.276   .     A
C50    O174    1.276   .     A
C50    C116    1.451   .     S
C51    O197    1.276   .     A
C51    O175    1.279   .     A
C51    C117    1.453   .     S
C52    O198    1.276   .     A
C52    C118    1.453   .     S
C52    O176    1.279   .     A
C53    O177    1.276   .     A
C53    O203    1.279   .     A
C53    C119    1.451   .     S
C54    O178    1.276   .     A
C54    O204    1.279   .     A
C54    C120    1.451   .     S
C55    O201    1.278   .     A
C55    O179    1.276   .     A
C55    C113    1.453   .     S
C56    O180    1.276   .     A
C56    O202    1.278   .     A
C56    C114    1.453   .     S
C57    C123    1.453   .     S
C57    O191    1.279   .     A
C57    O181    1.276   .     A
C58    O192    1.279   .     A
C58    O182    1.276   .     A
C58    C124    1.453   .     S
C59    O183    1.276   .     A
C59    C125    1.451   .     S
C59    O189    1.276   .     A
C60    O184    1.276   .     A
C60    O190    1.276   .     A
C60    C126    1.451   .     S
C61    C127    1.453   .     S
C61    O185    1.278   .     A
C61    O195    1.276   .     A
C62    O196    1.276   .     A
C62    O186    1.278   .     A
C62    C128    1.453   .     S
C63    O187    1.279   .     A
C63    C121    1.451   .     S
C63    O193    1.276   .     A
C64    O194    1.276   .     A
C64    O188    1.279   .     A
C64    C122    1.451   .     S
C65    C317    1.524   .     S
C65    C128    1.414   .     A
C65    C80     1.410   .     A
C66    C79     1.410   .     A
C66    C321    1.524   .     S
C66    C127    1.414   .     A
C67    C325    1.522   .     S
C67    C126    1.413   .     A
C67    C78     1.409   .     A
C68    C77     1.409   .     A
C68    C125    1.413   .     A
C68    C329    1.522   .     S
C69    C124    1.414   .     A
C69    C333    1.521   .     S
C69    C76     1.409   .     A
C70    C337    1.521   .     S
C70    C123    1.414   .     A
C70    C75     1.409   .     A
C71    C122    1.413   .     A
C71    C341    1.523   .     S
C71    C74     1.409   .     A
C72    C73     1.409   .     A
C72    C121    1.413   .     A
C72    C345    1.523   .     S
C73    C120    1.414   .     A
C73    C349    1.521   .     S
C74    C353    1.521   .     S
C74    C119    1.414   .     A
C75    C118    1.414   .     A
C75    C357    1.522   .     S
C76    C361    1.522   .     S
C76    C117    1.414   .     A
C77    C365    1.521   .     S
C77    C116    1.414   .     A
C78    C115    1.414   .     A
C78    C369    1.521   .     S
C79    C373    1.521   .     S
C79    C114    1.415   .     A
C80    C113    1.415   .     A
C80    C377    1.521   .     S
C81    C381    1.524   .     S
C81    C114    1.414   .     A
C81    C96     1.410   .     A
C82    C385    1.524   .     S
C82    C95     1.410   .     A
C82    C113    1.414   .     A
C83    C389    1.522   .     S
C83    C94     1.409   .     A
C83    C116    1.413   .     A
C84    C93     1.409   .     A
C84    C393    1.522   .     S
C84    C115    1.413   .     A
C85    C118    1.414   .     A
C85    C92     1.409   .     A
C85    C397    1.521   .     S
C86    C117    1.414   .     A
C86    C91     1.409   .     A
C86    C401    1.521   .     S
C87    C405    1.523   .     S
C87    C90     1.409   .     A
C87    C120    1.413   .     A
C88    C119    1.413   .     A
C88    C89     1.409   .     A
C88    C409    1.523   .     S
C89    C122    1.414   .     A
C89    C413    1.521   .     S
C90    C121    1.414   .     A
C90    C417    1.521   .     S
C91    C421    1.522   .     S
C91    C124    1.414   .     A
C92    C425    1.522   .     S
C92    C123    1.414   .     A
C93    C126    1.414   .     A
C93    C429    1.521   .     S
C94    C125    1.414   .     A
C94    C433    1.521   .     S
C95    C128    1.415   .     A
C95    C437    1.521   .     S
C96    C127    1.415   .     A
C96    C441    1.521   .     S
C97    C129    1.417   .     A
C98    C574    1.417   .     S
C99    C1019   1.417   .     S
C100   C132    1.417   .     A
C101   C573    1.417   .     S
C102   C130    1.417   .     A
C103   C131    1.418   .     A
C104   C1020   1.417   .     S
C105   C133    1.417   .     A
C106   C1022   1.417   1_545 S
C107   C579    1.417   1_455 S
C108   C580    1.417   .     S
C109   C1021   1.417   1_545 S
C110   C134    1.417   .     A
C111   C135    1.417   .     A
C112   C136    1.417   .     A
C129   C130    1.403   .     A
C129   C545    1.417   1_455 S
C130   C542    1.417   1_455 S
C131   C132    1.402   .     A
C131   C987    1.417   1_545 S
C132   C992    1.417   1_545 S
C133   C997    1.417   .     S
C133   C134    1.403   1_556 S
C134   C994    1.417   .     S
C134   C133    1.403   1_554 S
C135   C551    1.417   .     S
C135   C580    1.403   1_556 S
C136   C552    1.417   1_455 S
C136   C579    1.403   1_454 S
O153   Zn205   1.945   .     S
O153   Zn209   1.948   .     S
O153   Zn216   1.943   .     S
O153   Zn1108  1.944   1_545 S
O154   Zn210   1.948   .     S
O154   Zn219   1.944   .     S
O154   Zn206   1.945   .     S
O154   Zn1103  1.943   1_545 S
O155   Zn207   1.943   .     S
O155   Zn211   1.944   .     S
O155   Zn214   1.945   .     S
O155   Zn662   1.948   1_455 S
O156   Zn208   1.943   .     S
O156   Zn217   1.948   .     S
O156   Zn212   1.944   .     S
O156   Zn657   1.945   1_455 S
O157   Zn220   1.952   .     S
O157   C929    1.278   .     S
O158   Zn219   1.952   .     S
O159   Zn214   1.953   .     S
O160   Zn213   1.953   .     S
O161   Zn216   1.952   .     S
O162   C930    1.278   .     A
O162   Zn215   1.952   .     S
O163   Zn218   1.952   .     S
O163   C487    1.279   .     S
O164   Zn217   1.952   .     S
O164   C488    1.279   1_455 S
O165   Zn212   1.952   .     S
O165   C489    1.278   1_455 S
O166   Zn211   1.952   .     S
O167   Zn206   1.953   .     S
O167   C935    1.280   1_545 S
O168   Zn205   1.953   .     S
O169   Zn208   1.952   .     S
O169   C489    1.278   1_455 S
O170   Zn207   1.952   .     S
O171   Zn210   1.952   .     S
O171   C935    1.279   1_545 S
O172   Zn209   1.952   .     S
O173   Zn216   1.929   .     S
O174   Zn215   1.929   .     S
O175   Zn218   1.930   .     S
O176   Zn217   1.930   .     S
O177   Zn220   1.929   .     S
O178   Zn219   1.929   .     S
O179   Zn214   1.931   .     S
O180   Zn213   1.931   .     S
O181   Zn215   1.932   .     S
O182   Zn216   1.932   .     S
O183   Zn213   1.928   .     S
O184   Zn214   1.928   .     S
O185   Zn219   1.931   .     S
O186   Zn220   1.931   .     S
O187   Zn217   1.928   .     S
O188   Zn218   1.928   .     S
O189   Zn652   1.929   .     S
O190   Zn207   1.929   .     S
O191   Zn1098  1.930   .     S
O192   Zn209   1.930   .     S
O193   Zn212   1.929   .     S
O194   Zn655   1.929   .     S
O195   Zn206   1.931   .     S
O196   Zn1093  1.931   .     S
O197   Zn651   1.932   .     S
O198   Zn208   1.932   .     S
O199   Zn205   1.928   .     S
O200   Zn1094  1.928   .     S
O201   Zn211   1.931   .     S
O202   Zn656   1.931   .     S
O203   Zn1097  1.928   .     S
O204   Zn210   1.928   .     S
Zn205  O1084   1.931   1_545 S
Zn206  O1088   1.928   1_545 S
Zn207  O641    1.932   1_455 S
Zn208  O633    1.929   1_455 S
Zn209  O1091   1.928   1_545 S
Zn210  O1079   1.930   1_545 S
Zn211  O638    1.929   1_455 S
Zn212  O646    1.931   1_455 S
Zn213  O600    1.945   .     S
Zn215  O1042   1.943   .     S
Zn218  O599    1.948   .     S
Zn220  O1041   1.944   .     S
N221   C223    1.448   .     S
N221   H222    1.029   .     S
C223   H224    1.109   .     S
C223   H226    1.111   .     S
C223   H225    1.110   .     S
N227   H228    1.029   .     S
N227   C229    1.448   .     S
C229   H230    1.109   .     S
C229   H232    1.110   .     S
C229   H231    1.111   .     S
N233   H234    1.030   .     S
N233   C235    1.447   .     S
C235   H238    1.110   .     S
C235   H236    1.108   .     S
C235   H237    1.112   .     S
N239   C241    1.448   .     S
N239   H240    1.030   .     S
C241   H242    1.110   .     S
C241   H244    1.113   .     S
C241   H243    1.110   .     S
N245   H246    1.030   .     S
N245   C247    1.448   .     S
C247   H250    1.113   .     S
C247   H249    1.110   .     S
C247   H248    1.110   .     S
N251   H252    1.030   .     S
N251   C253    1.448   .     S
C253   H254    1.110   .     S
C253   H256    1.110   .     S
C253   H255    1.113   .     S
N257   C259    1.448   .     S
N257   H258    1.029   .     S
C259   H261    1.111   .     S
C259   H262    1.110   .     S
C259   H260    1.109   .     S
N263   C265    1.449   .     S
N263   H264    1.029   .     S
C265   H267    1.110   .     S
C265   H266    1.109   .     S
C265   H268    1.110   .     S
N269   C271    1.448   .     S
N269   H270    1.029   .     S
C271   H272    1.109   .     S
C271   H274    1.111   .     S
C271   H273    1.110   .     S
N275   C277    1.448   .     S
N275   H276    1.030   .     S
C277   H278    1.111   .     S
C277   H280    1.110   .     S
C277   H279    1.111   .     S
N281   C283    1.448   .     S
N281   H282    1.029   .     S
C283   H286    1.110   .     S
C283   H284    1.109   .     S
C283   H285    1.111   .     S
N287   C289    1.448   .     S
N287   H288    1.030   .     S
C289   H290    1.110   .     S
C289   H292    1.113   .     S
C289   H291    1.110   .     S
N293   H294    1.030   .     S
N293   C1183   1.447   1_545 S
C295   H297    1.111   .     S
C295   H296    1.111   .     S
C295   H298    1.110   .     S
C295   N1181   1.447   .     S
N299   C301    1.448   .     S
N299   H300    1.030   .     S
C301   H302    1.110   .     S
C301   H304    1.110   .     S
C301   H303    1.113   .     S
N305   H306    1.029   .     S
N305   C307    1.448   .     S
C307   H309    1.111   .     S
C307   H308    1.109   .     S
C307   H310    1.110   .     S
N311   C313    1.449   .     S
N311   H312    1.030   .     S
C313   H315    1.110   .     S
C313   H314    1.111   .     S
C313   H316    1.113   .     S
C317   H320    1.111   .     S
C317   H319    1.105   .     S
C317   H318    1.110   .     S
C321   H322    1.110   .     S
C321   H324    1.105   .     S
C321   H323    1.111   .     S
C325   H327    1.105   .     S
C325   H326    1.109   .     S
C325   H328    1.111   .     S
C329   H331    1.111   .     S
C329   H330    1.109   .     S
C329   H332    1.105   .     S
C333   H334    1.106   .     S
C333   H336    1.110   .     S
C333   H335    1.110   .     S
C337   H338    1.106   .     S
C337   H340    1.110   .     S
C337   H339    1.110   .     S
C341   H343    1.105   .     S
C341   H342    1.110   .     S
C341   H344    1.111   .     S
C345   H348    1.105   .     S
C345   H347    1.111   .     S
C345   H346    1.110   .     S
C349   H352    1.110   .     S
C349   H350    1.106   .     S
C349   H351    1.110   .     S
C353   H355    1.110   .     S
C353   H354    1.106   .     S
C353   H356    1.110   .     S
C357   H358    1.109   .     S
C357   H360    1.111   .     S
C357   H359    1.105   .     S
C361   H364    1.105   .     S
C361   H363    1.111   .     S
C361   H362    1.109   .     S
C365   H366    1.107   .     S
C365   H367    1.110   .     S
C365   H368    1.110   .     S
C369   H372    1.110   .     S
C369   H371    1.110   .     S
C369   H370    1.107   .     S
C373   H376    1.110   .     S
C373   H375    1.110   .     S
C373   H374    1.107   .     S
C377   H380    1.110   .     S
C377   H379    1.110   .     S
C377   H378    1.107   .     S
C381   H384    1.111   .     S
C381   H383    1.105   .     S
C381   H382    1.110   .     S
C385   H387    1.111   .     S
C385   H386    1.110   .     S
C385   H388    1.105   .     S
C389   H390    1.109   .     S
C389   H391    1.105   .     S
C389   H392    1.111   .     S
C393   H394    1.109   .     S
C393   H396    1.105   .     S
C393   H395    1.111   .     S
C397   H399    1.110   .     S
C397   H398    1.106   .     S
C397   H400    1.110   .     S
C401   H402    1.106   .     S
C401   H404    1.110   .     S
C401   H403    1.110   .     S
C405   H406    1.110   .     S
C405   H408    1.111   .     S
C405   H407    1.105   .     S
C409   H410    1.110   .     S
C409   H412    1.105   .     S
C409   H411    1.111   .     S
C413   H415    1.110   .     S
C413   H414    1.106   .     S
C413   H416    1.110   .     S
C417   H419    1.110   .     S
C417   H418    1.106   .     S
C417   H420    1.110   .     S
C421   H422    1.109   .     S
C421   H424    1.111   .     S
C421   H423    1.105   .     S
C425   H426    1.109   .     S
C425   H428    1.105   .     S
C425   H427    1.111   .     S
C429   H430    1.107   .     S
C429   H432    1.110   .     S
C429   H431    1.110   .     S
C433   H436    1.110   .     S
C433   H435    1.110   .     S
C433   H434    1.107   .     S
C437   H438    1.107   .     S
C437   H439    1.110   .     S
C437   H440    1.110   .     S
C441   H444    1.110   .     S
C441   H443    1.110   .     S
C441   H442    1.107   .     S
C445   C545    1.401   .     A
C445   H581    1.082   .     S
C445   C17     1.396   1_655 S
C446   H582    1.082   .     S
C446   C546    1.400   .     A
C447   C463    1.396   .     A
C447   C547    1.400   .     A
C447   H583    1.083   .     S
C448   C548    1.401   .     A
C448   H584    1.083   .     S
C448   C1352   1.396   .     S
C449   C541    1.401   .     A
C449   C461    1.396   .     A
C449   H585    1.083   .     S
C450   C542    1.401   .     A
C450   H586    1.083   .     S
C450   C462    1.396   .     A
C451   C543    1.401   .     A
C451   H587    1.083   .     S
C451   C1351   1.396   .     S
C452   C544    1.400   .     A
C452   C464    1.396   .     A
C452   H588    1.082   .     S
C453   C553    1.400   .     A
C453   H589    1.083   .     S
C453   C1353   1.396   1_545 S
C454   H590    1.083   .     S
C454   C466    1.396   .     A
C454   C554    1.401   .     A
C455   C467    1.396   .     A
C455   H591    1.083   .     S
C455   C555    1.401   .     A
C456   C556    1.400   .     A
C456   C468    1.396   .     A
C456   H592    1.082   .     S
C457   C465    1.396   .     A
C457   C549    1.401   .     A
C457   H593    1.083   .     S
C458   C550    1.401   .     A
C458   H594    1.083   .     S
C458   C1354   1.396   1_545 S
C459   H595    1.083   .     S
C459   C551    1.400   .     A
C460   H596    1.082   .     S
C460   C552    1.400   .     A
C460   C24     1.396   1_655 S
C461   C487    1.464   .     S
C462   C488    1.464   .     S
C462   C2      1.396   1_655 S
C463   C485    1.463   .     S
C463   C1339   1.396   1_545 S
C464   C1336   1.396   1_545 S
C464   C486    1.463   .     S
C465   C491    1.464   .     S
C465   C1341   1.396   .     S
C466   C1346   1.396   .     S
C466   C1380   1.464   .     S
C467   C489    1.463   .     S
C467   C15     1.396   1_655 S
C468   C490    1.463   .     S
C469   C541    1.414   .     A
C469   C474    1.412   .     A
C469   N665    1.428   .     S
C470   N671    1.428   .     S
C470   C542    1.414   .     A
C470   C473    1.412   .     A
C471   C543    1.414   .     A
C471   C476    1.415   .     A
C471   N677    1.427   .     S
C472   N683    1.427   .     S
C472   C475    1.411   .     A
C472   C544    1.413   .     A
C473   C545    1.413   .     A
C473   N689    1.427   .     S
C474   C546    1.413   .     A
C474   N695    1.427   .     S
C475   N701    1.428   .     S
C475   C547    1.414   .     A
C476   C548    1.416   .     A
C476   N707    1.430   .     S
C477   C549    1.414   .     A
C477   N713    1.428   .     S
C477   C482    1.412   1_556 S
C478   N719    1.427   .     S
C478   C550    1.413   .     A
C478   C481    1.412   1_554 S
C479   C551    1.414   .     A
C479   N725    1.428   .     S
C479   C484    1.412   1_556 S
C480   C552    1.413   .     A
C480   N731    1.427   .     S
C480   C483    1.412   1_554 S
C481   C553    1.413   .     A
C481   N737    1.427   .     S
C481   C478    1.412   1_556 S
C482   C554    1.413   .     A
C482   N743    1.427   .     S
C482   C477    1.412   1_554 S
C483   N749    1.428   .     S
C483   C555    1.414   .     A
C483   C480    1.412   1_556 S
C484   C556    1.413   .     A
C484   N755    1.427   .     S
C484   C479    1.412   1_554 S
C485   O605    1.278   .     A
C485   O1489   1.278   1_545 S
C486   O1494   1.278   1_545 A
C486   O602    1.278   .     S
C487   O603    1.280   .     A
C488   O604    1.280   .     A
C488   O164    1.279   1_655 S
C489   O165    1.278   1_655 S
C489   O169    1.278   1_655 S
C490   O614    1.278   .     A
C490   O610    1.278   .     S
C491   O1499   1.280   .     S
C491   O1503   1.279   .     S
C492   O616    1.280   .     A
C492   O612    1.280   .     A
C492   C1354   1.464   1_545 S
C493   O617    1.276   .     A
C493   C559    1.451   .     S
C493   O643    1.276   .     A
C494   O644    1.276   .     A
C494   O618    1.276   .     A
C494   C560    1.451   .     S
C495   O641    1.276   .     A
C495   O619    1.279   .     A
C495   C561    1.453   .     S
C496   O642    1.276   .     A
C496   C562    1.453   .     S
C496   O620    1.279   .     A
C497   O621    1.276   .     A
C497   O647    1.279   .     A
C497   C563    1.451   .     S
C498   O622    1.276   .     A
C498   O648    1.279   .     A
C498   C564    1.451   .     S
C499   O645    1.278   .     A
C499   O623    1.276   .     A
C499   C557    1.453   .     S
C500   O624    1.276   .     A
C500   O646    1.278   .     A
C500   C558    1.453   .     S
C501   C567    1.453   .     S
C501   O635    1.279   .     A
C501   O625    1.276   .     A
C502   O636    1.279   .     A
C502   O626    1.276   .     A
C502   C568    1.453   .     S
C503   O627    1.276   .     A
C503   C569    1.451   .     S
C503   O633    1.276   .     A
C504   O628    1.276   .     A
C504   O634    1.276   .     A
C504   C570    1.451   .     S
C505   C571    1.453   .     S
C505   O629    1.278   .     A
C505   O639    1.276   .     A
C506   O640    1.276   .     A
C506   O630    1.278   .     A
C506   C572    1.453   .     S
C507   O631    1.279   .     A
C507   C565    1.451   .     S
C507   O637    1.276   .     A
C508   O638    1.276   .     A
C508   O632    1.279   .     A
C508   C566    1.451   .     S
C509   C761    1.524   .     S
C509   C572    1.414   .     A
C509   C524    1.410   .     A
C510   C523    1.410   .     A
C510   C765    1.524   .     S
C510   C571    1.414   .     A
C511   C769    1.522   .     S
C511   C570    1.413   .     A
C511   C522    1.409   .     A
C512   C521    1.409   .     A
C512   C569    1.413   .     A
C512   C773    1.522   .     S
C513   C568    1.414   .     A
C513   C777    1.521   .     S
C513   C520    1.409   .     A
C514   C781    1.521   .     S
C514   C567    1.414   .     A
C514   C519    1.409   .     A
C515   C566    1.413   .     A
C515   C785    1.523   .     S
C515   C518    1.409   .     A
C516   C517    1.409   .     A
C516   C565    1.413   .     A
C516   C789    1.523   .     S
C517   C564    1.414   .     A
C517   C793    1.521   .     S
C518   C797    1.521   .     S
C518   C563    1.414   .     A
C519   C562    1.414   .     A
C519   C801    1.522   .     S
C520   C805    1.522   .     S
C520   C561    1.414   .     A
C521   C809    1.521   .     S
C521   C560    1.414   .     A
C522   C559    1.414   .     A
C522   C813    1.521   .     S
C523   C817    1.521   .     S
C523   C558    1.415   .     A
C524   C557    1.415   .     A
C524   C821    1.521   .     S
C525   C825    1.524   .     S
C525   C558    1.414   .     A
C525   C540    1.410   .     A
C526   C829    1.524   .     S
C526   C539    1.410   .     A
C526   C557    1.414   .     A
C527   C833    1.522   .     S
C527   C538    1.409   .     A
C527   C560    1.413   .     A
C528   C537    1.409   .     A
C528   C837    1.522   .     S
C528   C559    1.413   .     A
C529   C562    1.414   .     A
C529   C536    1.409   .     A
C529   C841    1.521   .     S
C530   C561    1.414   .     A
C530   C535    1.409   .     A
C530   C845    1.521   .     S
C531   C849    1.523   .     S
C531   C534    1.409   .     A
C531   C564    1.413   .     A
C532   C563    1.413   .     A
C532   C533    1.409   .     A
C532   C853    1.523   .     S
C533   C566    1.414   .     A
C533   C857    1.521   .     S
C534   C565    1.414   .     A
C534   C861    1.521   .     S
C535   C865    1.522   .     S
C535   C568    1.414   .     A
C536   C869    1.522   .     S
C536   C567    1.414   .     A
C537   C570    1.414   .     A
C537   C873    1.521   .     S
C538   C569    1.414   .     A
C538   C877    1.521   .     S
C539   C572    1.415   .     A
C539   C881    1.521   .     S
C540   C571    1.415   .     A
C540   C885    1.521   .     S
C541   C573    1.417   .     A
C542   C130    1.417   1_655 S
C543   C1463   1.417   .     S
C544   C576    1.417   .     A
C545   C129    1.417   1_655 S
C546   C574    1.417   .     A
C547   C575    1.418   .     A
C548   C1464   1.417   .     S
C549   C577    1.417   .     A
C550   C1466   1.417   1_545 S
C552   C136    1.417   1_655 S
C553   C1465   1.417   1_545 S
C554   C578    1.417   .     A
C555   C579    1.417   .     A
C556   C580    1.417   .     A
C573   C574    1.403   .     A
C575   C576    1.402   .     A
C575   C1431   1.417   1_545 S
C576   C1436   1.417   1_545 S
C577   C1441   1.417   .     S
C577   C578    1.403   1_556 S
C578   C1438   1.417   .     S
C578   C577    1.403   1_554 S
C579   C107    1.417   1_655 S
C579   C136    1.403   1_656 S
C580   C135    1.403   1_554 S
O597   Zn649   1.945   .     S
O597   Zn653   1.948   .     S
O597   Zn660   1.943   .     S
O597   Zn1552  1.944   1_545 S
O598   Zn654   1.948   .     S
O598   Zn663   1.944   .     S
O598   Zn650   1.945   .     S
O598   Zn1547  1.943   1_545 S
O599   Zn651   1.943   .     S
O599   Zn655   1.944   .     S
O599   Zn658   1.945   .     S
O600   Zn652   1.943   .     S
O600   Zn661   1.948   .     S
O600   Zn656   1.944   .     S
O601   Zn664   1.952   .     S
O601   C1373   1.278   .     S
O602   Zn663   1.952   .     S
O603   Zn658   1.953   .     S
O604   Zn657   1.953   .     S
O605   Zn660   1.952   .     S
O606   C1374   1.278   .     A
O606   Zn659   1.952   .     S
O607   Zn662   1.952   .     S
O607   C43     1.279   1_655 S
O608   Zn661   1.952   .     S
O609   Zn656   1.952   .     S
O610   Zn655   1.952   .     S
O611   Zn650   1.953   .     S
O611   C1379   1.280   1_545 S
O612   Zn649   1.953   .     S
O613   Zn652   1.952   .     S
O614   Zn651   1.952   .     S
O615   Zn654   1.952   .     S
O615   C1379   1.279   1_545 S
O616   Zn653   1.952   .     S
O617   Zn660   1.929   .     S
O618   Zn659   1.929   .     S
O619   Zn662   1.930   .     S
O620   Zn661   1.930   .     S
O621   Zn664   1.929   .     S
O622   Zn663   1.929   .     S
O623   Zn658   1.931   .     S
O624   Zn657   1.931   .     S
O625   Zn659   1.932   .     S
O626   Zn660   1.932   .     S
O627   Zn657   1.928   .     S
O628   Zn658   1.928   .     S
O629   Zn663   1.931   .     S
O630   Zn664   1.931   .     S
O631   Zn661   1.928   .     S
O632   Zn662   1.928   .     S
O633   Zn208   1.929   1_655 S
O634   Zn651   1.929   .     S
O635   Zn1542  1.930   .     S
O636   Zn653   1.930   .     S
O637   Zn656   1.929   .     S
O638   Zn211   1.929   1_655 S
O639   Zn650   1.931   .     S
O640   Zn1537  1.931   .     S
O641   Zn207   1.932   1_655 S
O642   Zn652   1.932   .     S
O643   Zn649   1.928   .     S
O644   Zn1538  1.928   .     S
O645   Zn655   1.931   .     S
O646   Zn212   1.931   1_655 S
O647   Zn1541  1.928   .     S
O648   Zn654   1.928   .     S
Zn649  O1528   1.931   1_545 S
Zn650  O1532   1.928   1_545 S
Zn653  O1535   1.928   1_545 S
Zn654  O1523   1.930   1_545 S
Zn657  O156    1.945   1_655 S
Zn659  O1486   1.943   .     S
Zn662  O155    1.948   1_655 S
Zn664  O1485   1.944   .     S
N665   C667    1.448   .     S
N665   H666    1.029   .     S
C667   H668    1.109   .     S
C667   H670    1.111   .     S
C667   H669    1.110   .     S
N671   H672    1.029   .     S
N671   C673    1.448   .     S
C673   H674    1.109   .     S
C673   H676    1.110   .     S
C673   H675    1.111   .     S
N677   H678    1.030   .     S
N677   C679    1.447   .     S
C679   H682    1.110   .     S
C679   H680    1.108   .     S
C679   H681    1.112   .     S
N683   C685    1.448   .     S
N683   H684    1.030   .     S
C685   H686    1.110   .     S
C685   H688    1.113   .     S
C685   H687    1.110   .     S
N689   H690    1.030   .     S
N689   C691    1.448   .     S
C691   H694    1.113   .     S
C691   H693    1.110   .     S
C691   H692    1.110   .     S
N695   H696    1.030   .     S
N695   C697    1.448   .     S
C697   H698    1.110   .     S
C697   H700    1.110   .     S
C697   H699    1.113   .     S
N701   C703    1.448   .     S
N701   H702    1.029   .     S
C703   H705    1.111   .     S
C703   H706    1.110   .     S
C703   H704    1.109   .     S
N707   C709    1.449   .     S
N707   H708    1.029   .     S
C709   H711    1.110   .     S
C709   H710    1.109   .     S
C709   H712    1.110   .     S
N713   C715    1.448   .     S
N713   H714    1.029   .     S
C715   H716    1.109   .     S
C715   H718    1.111   .     S
C715   H717    1.110   .     S
N719   C721    1.448   .     S
N719   H720    1.030   .     S
C721   H722    1.111   .     S
C721   H724    1.110   .     S
C721   H723    1.111   .     S
N725   C727    1.448   .     S
N725   H726    1.029   .     S
C727   H730    1.110   .     S
C727   H728    1.109   .     S
C727   H729    1.111   .     S
N731   C733    1.448   .     S
N731   H732    1.030   .     S
C733   H734    1.110   .     S
C733   H736    1.113   .     S
C733   H735    1.110   .     S
N737   H738    1.030   .     S
N737   C1627   1.447   1_545 S
C739   H741    1.111   .     S
C739   H740    1.111   .     S
C739   H742    1.110   .     S
C739   N1625   1.447   .     S
N743   C745    1.448   .     S
N743   H744    1.030   .     S
C745   H746    1.110   .     S
C745   H748    1.110   .     S
C745   H747    1.113   .     S
N749   H750    1.029   .     S
N749   C751    1.448   .     S
C751   H753    1.111   .     S
C751   H752    1.109   .     S
C751   H754    1.110   .     S
N755   C757    1.449   .     S
N755   H756    1.030   .     S
C757   H759    1.110   .     S
C757   H758    1.111   .     S
C757   H760    1.113   .     S
C761   H764    1.111   .     S
C761   H763    1.105   .     S
C761   H762    1.110   .     S
C765   H766    1.110   .     S
C765   H768    1.105   .     S
C765   H767    1.111   .     S
C769   H771    1.105   .     S
C769   H770    1.109   .     S
C769   H772    1.111   .     S
C773   H775    1.111   .     S
C773   H774    1.109   .     S
C773   H776    1.105   .     S
C777   H778    1.106   .     S
C777   H780    1.110   .     S
C777   H779    1.110   .     S
C781   H782    1.106   .     S
C781   H784    1.110   .     S
C781   H783    1.110   .     S
C785   H787    1.105   .     S
C785   H786    1.110   .     S
C785   H788    1.111   .     S
C789   H792    1.105   .     S
C789   H791    1.111   .     S
C789   H790    1.110   .     S
C793   H796    1.110   .     S
C793   H794    1.106   .     S
C793   H795    1.110   .     S
C797   H799    1.110   .     S
C797   H798    1.106   .     S
C797   H800    1.110   .     S
C801   H802    1.109   .     S
C801   H804    1.111   .     S
C801   H803    1.105   .     S
C805   H808    1.105   .     S
C805   H807    1.111   .     S
C805   H806    1.109   .     S
C809   H810    1.107   .     S
C809   H811    1.110   .     S
C809   H812    1.110   .     S
C813   H816    1.110   .     S
C813   H815    1.110   .     S
C813   H814    1.107   .     S
C817   H820    1.110   .     S
C817   H819    1.110   .     S
C817   H818    1.107   .     S
C821   H824    1.110   .     S
C821   H823    1.110   .     S
C821   H822    1.107   .     S
C825   H828    1.111   .     S
C825   H827    1.105   .     S
C825   H826    1.110   .     S
C829   H831    1.111   .     S
C829   H830    1.110   .     S
C829   H832    1.105   .     S
C833   H834    1.109   .     S
C833   H835    1.105   .     S
C833   H836    1.111   .     S
C837   H838    1.109   .     S
C837   H840    1.105   .     S
C837   H839    1.111   .     S
C841   H843    1.110   .     S
C841   H842    1.106   .     S
C841   H844    1.110   .     S
C845   H846    1.106   .     S
C845   H848    1.110   .     S
C845   H847    1.110   .     S
C849   H850    1.110   .     S
C849   H852    1.111   .     S
C849   H851    1.105   .     S
C853   H854    1.110   .     S
C853   H856    1.105   .     S
C853   H855    1.111   .     S
C857   H859    1.110   .     S
C857   H858    1.106   .     S
C857   H860    1.110   .     S
C861   H863    1.110   .     S
C861   H862    1.106   .     S
C861   H864    1.110   .     S
C865   H866    1.109   .     S
C865   H868    1.111   .     S
C865   H867    1.105   .     S
C869   H870    1.109   .     S
C869   H872    1.105   .     S
C869   H871    1.111   .     S
C873   H874    1.107   .     S
C873   H876    1.110   .     S
C873   H875    1.110   .     S
C877   H880    1.110   .     S
C877   H879    1.110   .     S
C877   H878    1.107   .     S
C881   H882    1.107   .     S
C881   H883    1.110   .     S
C881   H884    1.110   .     S
C885   H888    1.110   .     S
C885   H887    1.110   .     S
C885   H886    1.107   .     S
C889   C989    1.401   .     A
C889   H1025   1.082   .     S
C889   C1349   1.396   .     S
C890   H1026   1.082   .     S
C890   C990    1.400   .     A
C890   C1350   1.396   1_455 S
C891   C907    1.396   .     A
C891   C991    1.400   .     A
C891   H1027   1.083   .     S
C892   C992    1.401   .     A
C892   H1028   1.083   .     S
C892   C20     1.396   1_565 S
C893   C985    1.401   .     A
C893   C905    1.396   .     A
C893   H1029   1.083   .     S
C894   C986    1.401   .     A
C894   H1030   1.083   .     S
C894   C906    1.396   .     A
C895   C987    1.401   .     A
C895   H1031   1.083   .     S
C895   C19     1.396   1_565 S
C896   C988    1.400   .     A
C896   C908    1.396   .     A
C896   H1032   1.082   .     S
C897   C997    1.400   .     A
C897   H1033   1.083   .     S
C898   H1034   1.083   .     S
C898   C910    1.396   .     A
C898   C998    1.401   .     A
C899   C911    1.396   .     A
C899   H1035   1.083   .     S
C899   C999    1.401   .     A
C900   C1000   1.400   .     A
C900   C912    1.396   .     A
C900   H1036   1.082   .     S
C901   C909    1.396   .     A
C901   C993    1.401   .     A
C901   H1037   1.083   .     S
C902   C994    1.401   .     A
C902   H1038   1.083   .     S
C903   H1039   1.083   .     S
C903   C995    1.400   .     A
C903   C1355   1.396   1_455 S
C904   H1040   1.082   .     S
C904   C996    1.400   .     A
C904   C1356   1.396   .     S
C905   C931    1.464   .     S
C905   C1333   1.396   1_455 S
C906   C932    1.464   .     S
C906   C1334   1.396   .     S
C907   C929    1.463   .     S
C908   C930    1.463   .     S
C909   C935    1.464   .     S
C909   C9      1.396   1_565 S
C910   C14     1.396   1_565 S
C910   C48     1.464   1_565 S
C911   C933    1.463   .     S
C911   C1347   1.396   .     S
C912   C934    1.463   .     S
C912   C1348   1.396   1_455 S
C913   C985    1.414   .     A
C913   C918    1.412   .     A
C913   N1109   1.428   .     S
C914   N1115   1.428   .     S
C914   C986    1.414   .     A
C914   C917    1.412   .     A
C915   C987    1.414   .     A
C915   C920    1.415   .     A
C915   N1121   1.427   .     S
C916   N1127   1.427   .     S
C916   C919    1.411   .     A
C916   C988    1.413   .     A
C917   C989    1.413   .     A
C917   N1133   1.427   .     S
C918   C990    1.413   .     A
C918   N1139   1.427   .     S
C919   N1145   1.428   .     S
C919   C991    1.414   .     A
C920   C992    1.416   .     A
C920   N1151   1.430   .     S
C921   C993    1.414   .     A
C921   N1157   1.428   .     S
C921   C926    1.412   1_556 S
C922   N1163   1.427   .     S
C922   C994    1.413   .     A
C922   C925    1.412   1_554 S
C923   C995    1.414   .     A
C923   N1169   1.428   .     S
C923   C928    1.412   1_556 S
C924   C996    1.413   .     A
C924   N1175   1.427   .     S
C924   C927    1.412   1_554 S
C925   C997    1.413   .     A
C925   N1181   1.427   .     S
C925   C922    1.412   1_556 S
C926   C998    1.413   .     A
C926   N1187   1.427   .     S
C926   C921    1.412   1_554 S
C927   N1193   1.428   .     S
C927   C999    1.414   .     A
C927   C924    1.412   1_556 S
C928   C1000   1.413   .     A
C928   N1199   1.427   .     S
C928   C923    1.412   1_554 S
C929   O1049   1.278   .     A
C930   O1046   1.278   .     S
C931   O1047   1.280   .     A
C931   O1495   1.279   1_455 S
C932   O1048   1.280   .     A
C932   O1496   1.279   .     S
C933   O1497   1.278   .     S
C933   O1501   1.278   .     S
C934   O1058   1.278   .     A
C934   O1054   1.278   .     S
C935   O167    1.280   1_565 S
C935   O171    1.279   1_565 S
C936   O1060   1.280   .     A
C936   O1056   1.280   .     A
C937   O1061   1.276   .     A
C937   C1003   1.451   .     S
C937   O1087   1.276   .     A
C938   O1088   1.276   .     A
C938   O1062   1.276   .     A
C938   C1004   1.451   .     S
C939   O1085   1.276   .     A
C939   O1063   1.279   .     A
C939   C1005   1.453   .     S
C940   O1086   1.276   .     A
C940   C1006   1.453   .     S
C940   O1064   1.279   .     A
C941   O1065   1.276   .     A
C941   O1091   1.279   .     A
C941   C1007   1.451   .     S
C942   O1066   1.276   .     A
C942   O1092   1.279   .     A
C942   C1008   1.451   .     S
C943   O1089   1.278   .     A
C943   O1067   1.276   .     A
C943   C1001   1.453   .     S
C944   O1068   1.276   .     A
C944   O1090   1.278   .     A
C944   C1002   1.453   .     S
C945   C1011   1.453   .     S
C945   O1079   1.279   .     A
C945   O1069   1.276   .     A
C946   O1080   1.279   .     A
C946   O1070   1.276   .     A
C946   C1012   1.453   .     S
C947   O1071   1.276   .     A
C947   C1013   1.451   .     S
C947   O1077   1.276   .     A
C948   O1072   1.276   .     A
C948   O1078   1.276   .     A
C948   C1014   1.451   .     S
C949   C1015   1.453   .     S
C949   O1073   1.278   .     A
C949   O1083   1.276   .     A
C950   O1084   1.276   .     A
C950   O1074   1.278   .     A
C950   C1016   1.453   .     S
C951   O1075   1.279   .     A
C951   C1009   1.451   .     S
C951   O1081   1.276   .     A
C952   O1082   1.276   .     A
C952   O1076   1.279   .     A
C952   C1010   1.451   .     S
C953   C1205   1.524   .     S
C953   C1016   1.414   .     A
C953   C968    1.410   .     A
C954   C967    1.410   .     A
C954   C1209   1.524   .     S
C954   C1015   1.414   .     A
C955   C1213   1.522   .     S
C955   C1014   1.413   .     A
C955   C966    1.409   .     A
C956   C965    1.409   .     A
C956   C1013   1.413   .     A
C956   C1217   1.522   .     S
C957   C1012   1.414   .     A
C957   C1221   1.521   .     S
C957   C964    1.409   .     A
C958   C1225   1.521   .     S
C958   C1011   1.414   .     A
C958   C963    1.409   .     A
C959   C1010   1.413   .     A
C959   C1229   1.523   .     S
C959   C962    1.409   .     A
C960   C961    1.409   .     A
C960   C1009   1.413   .     A
C960   C1233   1.523   .     S
C961   C1008   1.414   .     A
C961   C1237   1.521   .     S
C962   C1241   1.521   .     S
C962   C1007   1.414   .     A
C963   C1006   1.414   .     A
C963   C1245   1.522   .     S
C964   C1249   1.522   .     S
C964   C1005   1.414   .     A
C965   C1253   1.521   .     S
C965   C1004   1.414   .     A
C966   C1003   1.414   .     A
C966   C1257   1.521   .     S
C967   C1261   1.521   .     S
C967   C1002   1.415   .     A
C968   C1001   1.415   .     A
C968   C1265   1.521   .     S
C969   C1269   1.524   .     S
C969   C1002   1.414   .     A
C969   C984    1.410   .     A
C970   C1273   1.524   .     S
C970   C983    1.410   .     A
C970   C1001   1.414   .     A
C971   C1277   1.522   .     S
C971   C982    1.409   .     A
C971   C1004   1.413   .     A
C972   C981    1.409   .     A
C972   C1281   1.522   .     S
C972   C1003   1.413   .     A
C973   C1006   1.414   .     A
C973   C980    1.409   .     A
C973   C1285   1.521   .     S
C974   C1005   1.414   .     A
C974   C979    1.409   .     A
C974   C1289   1.521   .     S
C975   C1293   1.523   .     S
C975   C978    1.409   .     A
C975   C1008   1.413   .     A
C976   C1007   1.413   .     A
C976   C977    1.409   .     A
C976   C1297   1.523   .     S
C977   C1010   1.414   .     A
C977   C1301   1.521   .     S
C978   C1009   1.414   .     A
C978   C1305   1.521   .     S
C979   C1309   1.522   .     S
C979   C1012   1.414   .     A
C980   C1313   1.522   .     S
C980   C1011   1.414   .     A
C981   C1014   1.414   .     A
C981   C1317   1.521   .     S
C982   C1013   1.414   .     A
C982   C1321   1.521   .     S
C983   C1016   1.415   .     A
C983   C1325   1.521   .     S
C984   C1015   1.415   .     A
C984   C1329   1.521   .     S
C985   C1017   1.417   .     A
C986   C1462   1.417   .     S
C987   C131    1.417   1_565 S
C988   C1020   1.417   .     A
C989   C1461   1.417   .     S
C990   C1018   1.417   .     A
C991   C1019   1.418   .     A
C992   C132    1.417   1_565 S
C993   C1021   1.417   .     A
C995   C1467   1.417   1_455 S
C996   C1468   1.417   .     S
C998   C1022   1.417   .     A
C999   C1023   1.417   .     A
C1000  C1024   1.417   .     A
C1017  C1018   1.403   .     A
C1017  C1433   1.417   1_455 S
C1018  C1430   1.417   1_455 S
C1019  C1020   1.402   .     A
C1021  C109    1.417   1_565 S
C1021  C1022   1.403   1_556 S
C1022  C106    1.417   1_565 S
C1022  C1021   1.403   1_554 S
C1023  C1439   1.417   .     S
C1023  C1468   1.403   1_556 S
C1024  C1440   1.417   1_455 S
C1024  C1467   1.403   1_454 S
O1041  Zn1093  1.945   .     S
O1041  Zn1097  1.948   .     S
O1041  Zn1104  1.943   .     S
O1042  Zn1098  1.948   .     S
O1042  Zn1107  1.944   .     S
O1042  Zn1094  1.945   .     S
O1043  Zn1095  1.943   .     S
O1043  Zn1099  1.944   .     S
O1043  Zn1102  1.945   .     S
O1043  Zn1550  1.948   1_455 S
O1044  Zn1096  1.943   .     S
O1044  Zn1105  1.948   .     S
O1044  Zn1100  1.944   .     S
O1044  Zn1545  1.945   1_455 S
O1045  Zn1108  1.952   .     S
O1045  C41     1.278   1_565 S
O1046  Zn1107  1.952   .     S
O1047  Zn1102  1.953   .     S
O1048  Zn1101  1.953   .     S
O1049  Zn1104  1.952   .     S
O1050  C42     1.278   1_565 A
O1050  Zn1103  1.952   .     S
O1051  Zn1106  1.952   .     S
O1051  C1375   1.279   .     S
O1052  Zn1105  1.952   .     S
O1052  C1376   1.279   1_455 S
O1053  Zn1100  1.952   .     S
O1053  C1377   1.278   1_455 S
O1054  Zn1099  1.952   .     S
O1055  Zn1094  1.953   .     S
O1056  Zn1093  1.953   .     S
O1057  Zn1096  1.952   .     S
O1057  C1377   1.278   1_455 S
O1058  Zn1095  1.952   .     S
O1059  Zn1098  1.952   .     S
O1060  Zn1097  1.952   .     S
O1061  Zn1104  1.929   .     S
O1062  Zn1103  1.929   .     S
O1063  Zn1106  1.930   .     S
O1064  Zn1105  1.930   .     S
O1065  Zn1108  1.929   .     S
O1066  Zn1107  1.929   .     S
O1067  Zn1102  1.931   .     S
O1068  Zn1101  1.931   .     S
O1069  Zn1103  1.932   .     S
O1070  Zn1104  1.932   .     S
O1071  Zn1101  1.928   .     S
O1072  Zn1102  1.928   .     S
O1073  Zn1107  1.931   .     S
O1074  Zn1108  1.931   .     S
O1075  Zn1105  1.928   .     S
O1076  Zn1106  1.928   .     S
O1077  Zn1540  1.929   .     S
O1078  Zn1095  1.929   .     S
O1079  Zn210   1.930   1_565 S
O1080  Zn1097  1.930   .     S
O1081  Zn1100  1.929   .     S
O1082  Zn1543  1.929   .     S
O1083  Zn1094  1.931   .     S
O1084  Zn205   1.931   1_565 S
O1085  Zn1539  1.932   .     S
O1086  Zn1096  1.932   .     S
O1087  Zn1093  1.928   .     S
O1088  Zn206   1.928   1_565 S
O1089  Zn1099  1.931   .     S
O1090  Zn1544  1.931   .     S
O1091  Zn209   1.928   1_565 S
O1092  Zn1098  1.928   .     S
Zn1095 O1529   1.932   1_455 S
Zn1096 O1521   1.929   1_455 S
Zn1099 O1526   1.929   1_455 S
Zn1100 O1534   1.931   1_455 S
Zn1101 O1488   1.945   .     S
Zn1103 O154    1.943   1_565 S
Zn1106 O1487   1.948   .     S
Zn1108 O153    1.944   1_565 S
N1109  C1111   1.448   .     S
N1109  H1110   1.029   .     S
C1111  H1112   1.109   .     S
C1111  H1114   1.111   .     S
C1111  H1113   1.110   .     S
N1115  H1116   1.029   .     S
N1115  C1117   1.448   .     S
C1117  H1118   1.109   .     S
C1117  H1120   1.110   .     S
C1117  H1119   1.111   .     S
N1121  H1122   1.030   .     S
N1121  C1123   1.447   .     S
C1123  H1126   1.110   .     S
C1123  H1124   1.108   .     S
C1123  H1125   1.112   .     S
N1127  C1129   1.448   .     S
N1127  H1128   1.030   .     S
C1129  H1130   1.110   .     S
C1129  H1132   1.113   .     S
C1129  H1131   1.110   .     S
N1133  H1134   1.030   .     S
N1133  C1135   1.448   .     S
C1135  H1138   1.113   .     S
C1135  H1137   1.110   .     S
C1135  H1136   1.110   .     S
N1139  H1140   1.030   .     S
N1139  C1141   1.448   .     S
C1141  H1142   1.110   .     S
C1141  H1144   1.110   .     S
C1141  H1143   1.113   .     S
N1145  C1147   1.448   .     S
N1145  H1146   1.029   .     S
C1147  H1149   1.111   .     S
C1147  H1150   1.110   .     S
C1147  H1148   1.109   .     S
N1151  C1153   1.449   .     S
N1151  H1152   1.029   .     S
C1153  H1155   1.110   .     S
C1153  H1154   1.109   .     S
C1153  H1156   1.110   .     S
N1157  C1159   1.448   .     S
N1157  H1158   1.029   .     S
C1159  H1160   1.109   .     S
C1159  H1162   1.111   .     S
C1159  H1161   1.110   .     S
N1163  C1165   1.448   .     S
N1163  H1164   1.030   .     S
C1165  H1166   1.111   .     S
C1165  H1168   1.110   .     S
C1165  H1167   1.111   .     S
N1169  C1171   1.448   .     S
N1169  H1170   1.029   .     S
C1171  H1174   1.110   .     S
C1171  H1172   1.109   .     S
C1171  H1173   1.111   .     S
N1175  C1177   1.448   .     S
N1175  H1176   1.030   .     S
C1177  H1178   1.110   .     S
C1177  H1180   1.113   .     S
C1177  H1179   1.110   .     S
N1181  H1182   1.030   .     S
C1183  H1185   1.111   .     S
C1183  H1184   1.111   .     S
C1183  H1186   1.110   .     S
C1183  N293    1.447   1_565 S
N1187  C1189   1.448   .     S
N1187  H1188   1.030   .     S
C1189  H1190   1.110   .     S
C1189  H1192   1.110   .     S
C1189  H1191   1.113   .     S
N1193  H1194   1.029   .     S
N1193  C1195   1.448   .     S
C1195  H1197   1.111   .     S
C1195  H1196   1.109   .     S
C1195  H1198   1.110   .     S
N1199  C1201   1.449   .     S
N1199  H1200   1.030   .     S
C1201  H1203   1.110   .     S
C1201  H1202   1.111   .     S
C1201  H1204   1.113   .     S
C1205  H1208   1.111   .     S
C1205  H1207   1.105   .     S
C1205  H1206   1.110   .     S
C1209  H1210   1.110   .     S
C1209  H1212   1.105   .     S
C1209  H1211   1.111   .     S
C1213  H1215   1.105   .     S
C1213  H1214   1.109   .     S
C1213  H1216   1.111   .     S
C1217  H1219   1.111   .     S
C1217  H1218   1.109   .     S
C1217  H1220   1.105   .     S
C1221  H1222   1.106   .     S
C1221  H1224   1.110   .     S
C1221  H1223   1.110   .     S
C1225  H1226   1.106   .     S
C1225  H1228   1.110   .     S
C1225  H1227   1.110   .     S
C1229  H1231   1.105   .     S
C1229  H1230   1.110   .     S
C1229  H1232   1.111   .     S
C1233  H1236   1.105   .     S
C1233  H1235   1.111   .     S
C1233  H1234   1.110   .     S
C1237  H1240   1.110   .     S
C1237  H1238   1.106   .     S
C1237  H1239   1.110   .     S
C1241  H1243   1.110   .     S
C1241  H1242   1.106   .     S
C1241  H1244   1.110   .     S
C1245  H1246   1.109   .     S
C1245  H1248   1.111   .     S
C1245  H1247   1.105   .     S
C1249  H1252   1.105   .     S
C1249  H1251   1.111   .     S
C1249  H1250   1.109   .     S
C1253  H1254   1.107   .     S
C1253  H1255   1.110   .     S
C1253  H1256   1.110   .     S
C1257  H1260   1.110   .     S
C1257  H1259   1.110   .     S
C1257  H1258   1.107   .     S
C1261  H1264   1.110   .     S
C1261  H1263   1.110   .     S
C1261  H1262   1.107   .     S
C1265  H1268   1.110   .     S
C1265  H1267   1.110   .     S
C1265  H1266   1.107   .     S
C1269  H1272   1.111   .     S
C1269  H1271   1.105   .     S
C1269  H1270   1.110   .     S
C1273  H1275   1.111   .     S
C1273  H1274   1.110   .     S
C1273  H1276   1.105   .     S
C1277  H1278   1.109   .     S
C1277  H1279   1.105   .     S
C1277  H1280   1.111   .     S
C1281  H1282   1.109   .     S
C1281  H1284   1.105   .     S
C1281  H1283   1.111   .     S
C1285  H1287   1.110   .     S
C1285  H1286   1.106   .     S
C1285  H1288   1.110   .     S
C1289  H1290   1.106   .     S
C1289  H1292   1.110   .     S
C1289  H1291   1.110   .     S
C1293  H1294   1.110   .     S
C1293  H1296   1.111   .     S
C1293  H1295   1.105   .     S
C1297  H1298   1.110   .     S
C1297  H1300   1.105   .     S
C1297  H1299   1.111   .     S
C1301  H1303   1.110   .     S
C1301  H1302   1.106   .     S
C1301  H1304   1.110   .     S
C1305  H1307   1.110   .     S
C1305  H1306   1.106   .     S
C1305  H1308   1.110   .     S
C1309  H1310   1.109   .     S
C1309  H1312   1.111   .     S
C1309  H1311   1.105   .     S
C1313  H1314   1.109   .     S
C1313  H1316   1.105   .     S
C1313  H1315   1.111   .     S
C1317  H1318   1.107   .     S
C1317  H1320   1.110   .     S
C1317  H1319   1.110   .     S
C1321  H1324   1.110   .     S
C1321  H1323   1.110   .     S
C1321  H1322   1.107   .     S
C1325  H1326   1.107   .     S
C1325  H1327   1.110   .     S
C1325  H1328   1.110   .     S
C1329  H1332   1.110   .     S
C1329  H1331   1.110   .     S
C1329  H1330   1.107   .     S
C1333  C1433   1.401   .     A
C1333  H1469   1.082   .     S
C1333  C905    1.396   1_655 S
C1334  H1470   1.082   .     S
C1334  C1434   1.400   .     A
C1335  C1351   1.396   .     A
C1335  C1435   1.400   .     A
C1335  H1471   1.083   .     S
C1336  C1436   1.401   .     A
C1336  H1472   1.083   .     S
C1336  C464    1.396   1_565 S
C1337  C1429   1.401   .     A
C1337  C1349   1.396   .     A
C1337  H1473   1.083   .     S
C1338  C1430   1.401   .     A
C1338  H1474   1.083   .     S
C1338  C1350   1.396   .     A
C1339  C1431   1.401   .     A
C1339  H1475   1.083   .     S
C1339  C463    1.396   1_565 S
C1340  C1432   1.400   .     A
C1340  C1352   1.396   .     A
C1340  H1476   1.082   .     S
C1341  C1441   1.400   .     A
C1341  H1477   1.083   .     S
C1342  H1478   1.083   .     S
C1342  C1354   1.396   .     A
C1342  C1442   1.401   .     A
C1343  C1355   1.396   .     A
C1343  H1479   1.083   .     S
C1343  C1443   1.401   .     A
C1344  C1444   1.400   .     A
C1344  C1356   1.396   .     A
C1344  H1480   1.082   .     S
C1345  C1353   1.396   .     A
C1345  C1437   1.401   .     A
C1345  H1481   1.083   .     S
C1346  C1438   1.401   .     A
C1346  H1482   1.083   .     S
C1347  H1483   1.083   .     S
C1347  C1439   1.400   .     A
C1348  H1484   1.082   .     S
C1348  C1440   1.400   .     A
C1348  C912    1.396   1_655 S
C1349  C1375   1.464   .     S
C1350  C1376   1.464   .     S
C1350  C890    1.396   1_655 S
C1351  C1373   1.463   .     S
C1352  C1374   1.463   .     S
C1353  C1379   1.464   .     S
C1353  C453    1.396   1_565 S
C1354  C458    1.396   1_565 S
C1354  C492    1.464   1_565 S
C1355  C1377   1.463   .     S
C1355  C903    1.396   1_655 S
C1356  C1378   1.463   .     S
C1357  C1429   1.414   .     A
C1357  C1362   1.412   .     A
C1357  N1553   1.428   .     S
C1358  N1559   1.428   .     S
C1358  C1430   1.414   .     A
C1358  C1361   1.412   .     A
C1359  C1431   1.414   .     A
C1359  C1364   1.415   .     A
C1359  N1565   1.427   .     S
C1360  N1571   1.427   .     S
C1360  C1363   1.411   .     A
C1360  C1432   1.413   .     A
C1361  C1433   1.413   .     A
C1361  N1577   1.427   .     S
C1362  C1434   1.413   .     A
C1362  N1583   1.427   .     S
C1363  N1589   1.428   .     S
C1363  C1435   1.414   .     A
C1364  C1436   1.416   .     A
C1364  N1595   1.430   .     S
C1365  C1437   1.414   .     A
C1365  N1601   1.428   .     S
C1365  C1370   1.412   1_556 S
C1366  N1607   1.427   .     S
C1366  C1438   1.413   .     A
C1366  C1369   1.412   1_554 S
C1367  C1439   1.414   .     A
C1367  N1613   1.428   .     S
C1367  C1372   1.412   1_556 S
C1368  C1440   1.413   .     A
C1368  N1619   1.427   .     S
C1368  C1371   1.412   1_554 S
C1369  C1441   1.413   .     A
C1369  N1625   1.427   .     S
C1369  C1366   1.412   1_556 S
C1370  C1442   1.413   .     A
C1370  N1631   1.427   .     S
C1370  C1365   1.412   1_554 S
C1371  N1637   1.428   .     S
C1371  C1443   1.414   .     A
C1371  C1368   1.412   1_556 S
C1372  C1444   1.413   .     A
C1372  N1643   1.427   .     S
C1372  C1367   1.412   1_554 S
C1373  O1493   1.278   .     A
C1374  O1490   1.278   .     S
C1375  O1491   1.280   .     A
C1376  O1492   1.280   .     A
C1376  O1052   1.279   1_655 S
C1377  O1053   1.278   1_655 S
C1377  O1057   1.278   1_655 S
C1378  O1502   1.278   .     A
C1378  O1498   1.278   .     S
C1379  O611    1.280   1_565 S
C1379  O615    1.279   1_565 S
C1380  O1504   1.280   .     A
C1380  O1500   1.280   .     A
C1381  O1505   1.276   .     A
C1381  C1447   1.451   .     S
C1381  O1531   1.276   .     A
C1382  O1532   1.276   .     A
C1382  O1506   1.276   .     A
C1382  C1448   1.451   .     S
C1383  O1529   1.276   .     A
C1383  O1507   1.279   .     A
C1383  C1449   1.453   .     S
C1384  O1530   1.276   .     A
C1384  C1450   1.453   .     S
C1384  O1508   1.279   .     A
C1385  O1509   1.276   .     A
C1385  O1535   1.279   .     A
C1385  C1451   1.451   .     S
C1386  O1510   1.276   .     A
C1386  O1536   1.279   .     A
C1386  C1452   1.451   .     S
C1387  O1533   1.278   .     A
C1387  O1511   1.276   .     A
C1387  C1445   1.453   .     S
C1388  O1512   1.276   .     A
C1388  O1534   1.278   .     A
C1388  C1446   1.453   .     S
C1389  C1455   1.453   .     S
C1389  O1523   1.279   .     A
C1389  O1513   1.276   .     A
C1390  O1524   1.279   .     A
C1390  O1514   1.276   .     A
C1390  C1456   1.453   .     S
C1391  O1515   1.276   .     A
C1391  C1457   1.451   .     S
C1391  O1521   1.276   .     A
C1392  O1516   1.276   .     A
C1392  O1522   1.276   .     A
C1392  C1458   1.451   .     S
C1393  C1459   1.453   .     S
C1393  O1517   1.278   .     A
C1393  O1527   1.276   .     A
C1394  O1528   1.276   .     A
C1394  O1518   1.278   .     A
C1394  C1460   1.453   .     S
C1395  O1519   1.279   .     A
C1395  C1453   1.451   .     S
C1395  O1525   1.276   .     A
C1396  O1526   1.276   .     A
C1396  O1520   1.279   .     A
C1396  C1454   1.451   .     S
C1397  C1649   1.524   .     S
C1397  C1460   1.414   .     A
C1397  C1412   1.410   .     A
C1398  C1411   1.410   .     A
C1398  C1653   1.524   .     S
C1398  C1459   1.414   .     A
C1399  C1657   1.522   .     S
C1399  C1458   1.413   .     A
C1399  C1410   1.409   .     A
C1400  C1409   1.409   .     A
C1400  C1457   1.413   .     A
C1400  C1661   1.522   .     S
C1401  C1456   1.414   .     A
C1401  C1665   1.521   .     S
C1401  C1408   1.409   .     A
C1402  C1669   1.521   .     S
C1402  C1455   1.414   .     A
C1402  C1407   1.409   .     A
C1403  C1454   1.413   .     A
C1403  C1673   1.523   .     S
C1403  C1406   1.409   .     A
C1404  C1405   1.409   .     A
C1404  C1453   1.413   .     A
C1404  C1677   1.523   .     S
C1405  C1452   1.414   .     A
C1405  C1681   1.521   .     S
C1406  C1685   1.521   .     S
C1406  C1451   1.414   .     A
C1407  C1450   1.414   .     A
C1407  C1689   1.522   .     S
C1408  C1693   1.522   .     S
C1408  C1449   1.414   .     A
C1409  C1697   1.521   .     S
C1409  C1448   1.414   .     A
C1410  C1447   1.414   .     A
C1410  C1701   1.521   .     S
C1411  C1705   1.521   .     S
C1411  C1446   1.415   .     A
C1412  C1445   1.415   .     A
C1412  C1709   1.521   .     S
C1413  C1713   1.524   .     S
C1413  C1446   1.414   .     A
C1413  C1428   1.410   .     A
C1414  C1717   1.524   .     S
C1414  C1427   1.410   .     A
C1414  C1445   1.414   .     A
C1415  C1721   1.522   .     S
C1415  C1426   1.409   .     A
C1415  C1448   1.413   .     A
C1416  C1425   1.409   .     A
C1416  C1725   1.522   .     S
C1416  C1447   1.413   .     A
C1417  C1450   1.414   .     A
C1417  C1424   1.409   .     A
C1417  C1729   1.521   .     S
C1418  C1449   1.414   .     A
C1418  C1423   1.409   .     A
C1418  C1733   1.521   .     S
C1419  C1737   1.523   .     S
C1419  C1422   1.409   .     A
C1419  C1452   1.413   .     A
C1420  C1451   1.413   .     A
C1420  C1421   1.409   .     A
C1420  C1741   1.523   .     S
C1421  C1454   1.414   .     A
C1421  C1745   1.521   .     S
C1422  C1453   1.414   .     A
C1422  C1749   1.521   .     S
C1423  C1753   1.522   .     S
C1423  C1456   1.414   .     A
C1424  C1757   1.522   .     S
C1424  C1455   1.414   .     A
C1425  C1458   1.414   .     A
C1425  C1761   1.521   .     S
C1426  C1457   1.414   .     A
C1426  C1765   1.521   .     S
C1427  C1460   1.415   .     A
C1427  C1769   1.521   .     S
C1428  C1459   1.415   .     A
C1428  C1773   1.521   .     S
C1429  C1461   1.417   .     A
C1430  C1018   1.417   1_655 S
C1431  C575    1.417   1_565 S
C1432  C1464   1.417   .     A
C1433  C1017   1.417   1_655 S
C1434  C1462   1.417   .     A
C1435  C1463   1.418   .     A
C1436  C576    1.417   1_565 S
C1437  C1465   1.417   .     A
C1440  C1024   1.417   1_655 S
C1442  C1466   1.417   .     A
C1443  C1467   1.417   .     A
C1444  C1468   1.417   .     A
C1461  C1462   1.403   .     A
C1463  C1464   1.402   .     A
C1465  C553    1.417   1_565 S
C1465  C1466   1.403   1_556 S
C1466  C550    1.417   1_565 S
C1466  C1465   1.403   1_554 S
C1467  C995    1.417   1_655 S
C1467  C1024   1.403   1_656 S
C1468  C1023   1.403   1_554 S
O1485  Zn1537  1.945   .     S
O1485  Zn1541  1.948   .     S
O1485  Zn1548  1.943   .     S
O1486  Zn1542  1.948   .     S
O1486  Zn1551  1.944   .     S
O1486  Zn1538  1.945   .     S
O1487  Zn1539  1.943   .     S
O1487  Zn1543  1.944   .     S
O1487  Zn1546  1.945   .     S
O1488  Zn1540  1.943   .     S
O1488  Zn1549  1.948   .     S
O1488  Zn1544  1.944   .     S
O1489  Zn1552  1.952   .     S
O1489  C485    1.278   1_565 S
O1490  Zn1551  1.952   .     S
O1491  Zn1546  1.953   .     S
O1492  Zn1545  1.953   .     S
O1493  Zn1548  1.952   .     S
O1494  C486    1.278   1_565 A
O1494  Zn1547  1.952   .     S
O1495  Zn1550  1.952   .     S
O1495  C931    1.279   1_655 S
O1496  Zn1549  1.952   .     S
O1497  Zn1544  1.952   .     S
O1498  Zn1543  1.952   .     S
O1499  Zn1538  1.953   .     S
O1500  Zn1537  1.953   .     S
O1501  Zn1540  1.952   .     S
O1502  Zn1539  1.952   .     S
O1503  Zn1542  1.952   .     S
O1504  Zn1541  1.952   .     S
O1505  Zn1548  1.929   .     S
O1506  Zn1547  1.929   .     S
O1507  Zn1550  1.930   .     S
O1508  Zn1549  1.930   .     S
O1509  Zn1552  1.929   .     S
O1510  Zn1551  1.929   .     S
O1511  Zn1546  1.931   .     S
O1512  Zn1545  1.931   .     S
O1513  Zn1547  1.932   .     S
O1514  Zn1548  1.932   .     S
O1515  Zn1545  1.928   .     S
O1516  Zn1546  1.928   .     S
O1517  Zn1551  1.931   .     S
O1518  Zn1552  1.931   .     S
O1519  Zn1549  1.928   .     S
O1520  Zn1550  1.928   .     S
O1521  Zn1096  1.929   1_655 S
O1522  Zn1539  1.929   .     S
O1523  Zn654   1.930   1_565 S
O1524  Zn1541  1.930   .     S
O1525  Zn1544  1.929   .     S
O1526  Zn1099  1.929   1_655 S
O1527  Zn1538  1.931   .     S
O1528  Zn649   1.931   1_565 S
O1529  Zn1095  1.932   1_655 S
O1530  Zn1540  1.932   .     S
O1531  Zn1537  1.928   .     S
O1532  Zn650   1.928   1_565 S
O1533  Zn1543  1.931   .     S
O1534  Zn1100  1.931   1_655 S
O1535  Zn653   1.928   1_565 S
O1536  Zn1542  1.928   .     S
Zn1545 O1044   1.945   1_655 S
Zn1547 O598    1.943   1_565 S
Zn1550 O1043   1.948   1_655 S
Zn1552 O597    1.944   1_565 S
N1553  C1555   1.448   .     S
N1553  H1554   1.029   .     S
C1555  H1556   1.109   .     S
C1555  H1558   1.111   .     S
C1555  H1557   1.110   .     S
N1559  H1560   1.029   .     S
N1559  C1561   1.448   .     S
C1561  H1562   1.109   .     S
C1561  H1564   1.110   .     S
C1561  H1563   1.111   .     S
N1565  H1566   1.030   .     S
N1565  C1567   1.447   .     S
C1567  H1570   1.110   .     S
C1567  H1568   1.108   .     S
C1567  H1569   1.112   .     S
N1571  C1573   1.448   .     S
N1571  H1572   1.030   .     S
C1573  H1574   1.110   .     S
C1573  H1576   1.113   .     S
C1573  H1575   1.110   .     S
N1577  H1578   1.030   .     S
N1577  C1579   1.448   .     S
C1579  H1582   1.113   .     S
C1579  H1581   1.110   .     S
C1579  H1580   1.110   .     S
N1583  H1584   1.030   .     S
N1583  C1585   1.448   .     S
C1585  H1586   1.110   .     S
C1585  H1588   1.110   .     S
C1585  H1587   1.113   .     S
N1589  C1591   1.448   .     S
N1589  H1590   1.029   .     S
C1591  H1593   1.111   .     S
C1591  H1594   1.110   .     S
C1591  H1592   1.109   .     S
N1595  C1597   1.449   .     S
N1595  H1596   1.029   .     S
C1597  H1599   1.110   .     S
C1597  H1598   1.109   .     S
C1597  H1600   1.110   .     S
N1601  C1603   1.448   .     S
N1601  H1602   1.029   .     S
C1603  H1604   1.109   .     S
C1603  H1606   1.111   .     S
C1603  H1605   1.110   .     S
N1607  C1609   1.448   .     S
N1607  H1608   1.030   .     S
C1609  H1610   1.111   .     S
C1609  H1612   1.110   .     S
C1609  H1611   1.111   .     S
N1613  C1615   1.448   .     S
N1613  H1614   1.029   .     S
C1615  H1618   1.110   .     S
C1615  H1616   1.109   .     S
C1615  H1617   1.111   .     S
N1619  C1621   1.448   .     S
N1619  H1620   1.030   .     S
C1621  H1622   1.110   .     S
C1621  H1624   1.113   .     S
C1621  H1623   1.110   .     S
N1625  H1626   1.030   .     S
C1627  H1629   1.111   .     S
C1627  H1628   1.111   .     S
C1627  H1630   1.110   .     S
C1627  N737    1.447   1_565 S
N1631  C1633   1.448   .     S
N1631  H1632   1.030   .     S
C1633  H1634   1.110   .     S
C1633  H1636   1.110   .     S
C1633  H1635   1.113   .     S
N1637  H1638   1.029   .     S
N1637  C1639   1.448   .     S
C1639  H1641   1.111   .     S
C1639  H1640   1.109   .     S
C1639  H1642   1.110   .     S
N1643  C1645   1.449   .     S
N1643  H1644   1.030   .     S
C1645  H1647   1.110   .     S
C1645  H1646   1.111   .     S
C1645  H1648   1.113   .     S
C1649  H1652   1.111   .     S
C1649  H1651   1.105   .     S
C1649  H1650   1.110   .     S
C1653  H1654   1.110   .     S
C1653  H1656   1.105   .     S
C1653  H1655   1.111   .     S
C1657  H1659   1.105   .     S
C1657  H1658   1.109   .     S
C1657  H1660   1.111   .     S
C1661  H1663   1.111   .     S
C1661  H1662   1.109   .     S
C1661  H1664   1.105   .     S
C1665  H1666   1.106   .     S
C1665  H1668   1.110   .     S
C1665  H1667   1.110   .     S
C1669  H1670   1.106   .     S
C1669  H1672   1.110   .     S
C1669  H1671   1.110   .     S
C1673  H1675   1.105   .     S
C1673  H1674   1.110   .     S
C1673  H1676   1.111   .     S
C1677  H1680   1.105   .     S
C1677  H1679   1.111   .     S
C1677  H1678   1.110   .     S
C1681  H1684   1.110   .     S
C1681  H1682   1.106   .     S
C1681  H1683   1.110   .     S
C1685  H1687   1.110   .     S
C1685  H1686   1.106   .     S
C1685  H1688   1.110   .     S
C1689  H1690   1.109   .     S
C1689  H1692   1.111   .     S
C1689  H1691   1.105   .     S
C1693  H1696   1.105   .     S
C1693  H1695   1.111   .     S
C1693  H1694   1.109   .     S
C1697  H1698   1.107   .     S
C1697  H1699   1.110   .     S
C1697  H1700   1.110   .     S
C1701  H1704   1.110   .     S
C1701  H1703   1.110   .     S
C1701  H1702   1.107   .     S
C1705  H1708   1.110   .     S
C1705  H1707   1.110   .     S
C1705  H1706   1.107   .     S
C1709  H1712   1.110   .     S
C1709  H1711   1.110   .     S
C1709  H1710   1.107   .     S
C1713  H1716   1.111   .     S
C1713  H1715   1.105   .     S
C1713  H1714   1.110   .     S
C1717  H1719   1.111   .     S
C1717  H1718   1.110   .     S
C1717  H1720   1.105   .     S
C1721  H1722   1.109   .     S
C1721  H1723   1.105   .     S
C1721  H1724   1.111   .     S
C1725  H1726   1.109   .     S
C1725  H1728   1.105   .     S
C1725  H1727   1.111   .     S
C1729  H1731   1.110   .     S
C1729  H1730   1.106   .     S
C1729  H1732   1.110   .     S
C1733  H1734   1.106   .     S
C1733  H1736   1.110   .     S
C1733  H1735   1.110   .     S
C1737  H1738   1.110   .     S
C1737  H1740   1.111   .     S
C1737  H1739   1.105   .     S
C1741  H1742   1.110   .     S
C1741  H1744   1.105   .     S
C1741  H1743   1.111   .     S
C1745  H1747   1.110   .     S
C1745  H1746   1.106   .     S
C1745  H1748   1.110   .     S
C1749  H1751   1.110   .     S
C1749  H1750   1.106   .     S
C1749  H1752   1.110   .     S
C1753  H1754   1.109   .     S
C1753  H1756   1.111   .     S
C1753  H1755   1.105   .     S
C1757  H1758   1.109   .     S
C1757  H1760   1.105   .     S
C1757  H1759   1.111   .     S
C1761  H1762   1.107   .     S
C1761  H1764   1.110   .     S
C1761  H1763   1.110   .     S
C1765  H1768   1.110   .     S
C1765  H1767   1.110   .     S
C1765  H1766   1.107   .     S
C1769  H1770   1.107   .     S
C1769  H1771   1.110   .     S
C1769  H1772   1.110   .     S
C1773  H1776   1.110   .     S
C1773  H1775   1.110   .     S
C1773  H1774   1.107   .     S
