data_str_m1_o5_o17_pcu_sym.83
_audit_creation_date              2020-01-03
_audit_creation_method            'Materials Studio'
_symmetry_space_group_name_H-M    'P1'
_symmetry_Int_Tables_number       1
_symmetry_cell_setting            triclinic
loop_
_symmetry_equiv_pos_as_xyz
  x,y,z
_cell_length_a                    31.7600
_cell_length_b                    31.7601
_cell_length_c                    34.5558
_cell_angle_alpha                 90.0000
_cell_angle_beta                  90.0000
_cell_angle_gamma                 89.9756
loop_
_atom_site_label
_atom_site_type_symbol
_atom_site_fract_x
_atom_site_fract_y
_atom_site_fract_z
_atom_site_U_iso_or_equiv
_atom_site_adp_type
_atom_site_occupancy
Br1    Br    0.12856   0.22643   0.45253   0.00000  Uiso   1.00
Br2    Br    0.12154   0.02406   0.04747   0.00000  Uiso   1.00
Br3    Br    0.02415   0.12155   0.95253   0.00000  Uiso   1.00
Br4    Br    0.47585   0.37845   0.04747   0.00000  Uiso   1.00
Br5    Br    0.12153   0.02405   0.95253   0.00000  Uiso   1.00
Br6    Br    0.37847   0.47595   0.04747   0.00000  Uiso   1.00
Br7    Br    0.47585   0.37845   0.95253   0.00000  Uiso   1.00
Br8    Br    0.02415   0.12155   0.04747   0.00000  Uiso   1.00
Br9    Br    0.37144   0.27357   0.54747   0.00000  Uiso   1.00
Br10   Br    0.27386   0.37150   0.45253   0.00000  Uiso   1.00
Br11   Br    0.22614   0.12850   0.54747   0.00000  Uiso   1.00
Br12   Br    0.37144   0.27358   0.45253   0.00000  Uiso   1.00
Br13   Br    0.12855   0.22642   0.54747   0.00000  Uiso   1.00
Br14   Br    0.22614   0.12850   0.45253   0.00000  Uiso   1.00
Br15   Br    0.27386   0.37150   0.54747   0.00000  Uiso   1.00
Br16   Br    0.37846   0.47594   0.95253   0.00000  Uiso   1.00
C17    C     0.25000  -0.00000   0.35606   0.00000  Uiso   1.00
C18    C     0.33001   0.41999   0.75000   0.00000  Uiso   1.00
C19    C     0.48589   0.32603   0.02033   0.00000  Uiso   1.00
C20    C     0.17396   0.01405   0.97967   0.00000  Uiso   1.00
C21    C     0.32604   0.48595   0.02033   0.00000  Uiso   1.00
C22    C     0.48589   0.32603   0.97967   0.00000  Uiso   1.00
C23    C     0.01411   0.17397   0.02033   0.00000  Uiso   1.00
C24    C     0.41998   0.16998   0.25000   0.00000  Uiso   1.00
C25    C     0.08001   0.33001   0.75000   0.00000  Uiso   1.00
C26    C     0.33001   0.41999   0.25000   0.00000  Uiso   1.00
C27    C     0.16999   0.08001   0.75000   0.00000  Uiso   1.00
C28    C     0.08001   0.33001   0.25000   0.00000  Uiso   1.00
C29    C     0.41998   0.16998   0.75000   0.00000  Uiso   1.00
C30    C     0.16998   0.41998   0.75000   0.00000  Uiso   1.00
C31    C     0.33002   0.08001   0.25000   0.00000  Uiso   1.00
C32    C     0.41999   0.33001   0.75000   0.00000  Uiso   1.00
C33    C     0.25000  -0.00000   0.64394   0.00000  Uiso   1.00
C34    C     0.08001   0.16999   0.25000   0.00000  Uiso   1.00
C35    C     0.33001   0.08001   0.75000   0.00000  Uiso   1.00
C36    C     0.16998   0.41998   0.25000   0.00000  Uiso   1.00
C37    C     0.08001   0.16999   0.75000   0.00000  Uiso   1.00
C38    C     0.41999   0.33001   0.25000   0.00000  Uiso   1.00
C39    C     0.13833   0.38833   0.25000   0.00000  Uiso   1.00
C40    C     0.36167   0.11167   0.75000   0.00000  Uiso   1.00
C41    C     0.11166   0.13834   0.25000   0.00000  Uiso   1.00
C42    C     0.38834   0.36166   0.75000   0.00000  Uiso   1.00
C43    C     0.36167   0.11167   0.25000   0.00000  Uiso   1.00
C44    C    -0.00000   0.25000   0.35606   0.00000  Uiso   1.00
C45    C     0.13833   0.38833   0.75000   0.00000  Uiso   1.00
C46    C     0.38834   0.36166   0.25000   0.00000  Uiso   1.00
C47    C     0.11166   0.13834   0.75000   0.00000  Uiso   1.00
C48    C     0.13834   0.11166   0.75000   0.00000  Uiso   1.00
C49    C     0.36166   0.38834   0.25000   0.00000  Uiso   1.00
C50    C     0.11167   0.36167   0.75000   0.00000  Uiso   1.00
C51    C     0.38833   0.13833   0.25000   0.00000  Uiso   1.00
C52    C     0.36166   0.38834   0.75000   0.00000  Uiso   1.00
C53    C     0.13834   0.11166   0.25000   0.00000  Uiso   1.00
C54    C     0.38833   0.13833   0.75000   0.00000  Uiso   1.00
C55    C     0.00000   0.25000   0.64394   0.00000  Uiso   1.00
C56    C     0.11167   0.36167   0.25000   0.00000  Uiso   1.00
C57    C     0.46250   0.25652   0.41872   0.00000  Uiso   1.00
C58    C     0.03750   0.24348   0.58128   0.00000  Uiso   1.00
C59    C     0.24339   0.03749   0.41872   0.00000  Uiso   1.00
C60    C     0.25660   0.46251   0.58128   0.00000  Uiso   1.00
C61    C     0.03750   0.24348   0.41872   0.00000  Uiso   1.00
C62    C     0.46250   0.25652   0.58128   0.00000  Uiso   1.00
C63    C     0.25661   0.46251   0.41872   0.00000  Uiso   1.00
C64    C     0.24339   0.03749   0.58128   0.00000  Uiso   1.00
C65    C     0.21252   0.00665   0.91872   0.00000  Uiso   1.00
C66    C     0.00000   0.25000   0.85606   0.00000  Uiso   1.00
C67    C     0.28748   0.49335   0.08128   0.00000  Uiso   1.00
C68    C     0.49332   0.28748   0.91872   0.00000  Uiso   1.00
C69    C     0.00668   0.21252   0.08128   0.00000  Uiso   1.00
C70    C     0.28748   0.49335   0.91872   0.00000  Uiso   1.00
C71    C     0.21252   0.00665   0.08128   0.00000  Uiso   1.00
C72    C     0.00668   0.21252   0.91872   0.00000  Uiso   1.00
C73    C     0.49332   0.28748   0.08128   0.00000  Uiso   1.00
C74    C     0.00000   0.25000   0.39852   0.00000  Uiso   1.00
C75    C    -0.00000   0.25000   0.60148   0.00000  Uiso   1.00
C76    C     0.25000  -0.00000   0.39852   0.00000  Uiso   1.00
C77    C    -0.00000   0.25000   0.14394   0.00000  Uiso   1.00
C78    C     0.25000  -0.00000   0.60148   0.00000  Uiso   1.00
C79    C     0.25000  -0.00000   0.89852   0.00000  Uiso   1.00
C80    C     0.25000   0.00000   0.10148   0.00000  Uiso   1.00
C81    C     0.00000   0.25000   0.89852   0.00000  Uiso   1.00
C82    C    -0.00000   0.25000   0.10148   0.00000  Uiso   1.00
C83    C     0.03817   0.24320   0.45927   0.00000  Uiso   1.00
C84    C     0.46183   0.25680   0.54073   0.00000  Uiso   1.00
C85    C     0.25689   0.46185   0.45927   0.00000  Uiso   1.00
C86    C     0.24311   0.03815   0.54074   0.00000  Uiso   1.00
C87    C     0.46183   0.25680   0.45927   0.00000  Uiso   1.00
C88    C     0.25000  -0.00000   0.85606   0.00000  Uiso   1.00
C89    C     0.03817   0.24320   0.54073   0.00000  Uiso   1.00
C90    C     0.24311   0.03815   0.45927   0.00000  Uiso   1.00
C91    C     0.25689   0.46185   0.54074   0.00000  Uiso   1.00
C92    C     0.28814   0.49306   0.95927   0.00000  Uiso   1.00
C93    C     0.21185   0.00694   0.04074   0.00000  Uiso   1.00
C94    C     0.00697   0.21186   0.95926   0.00000  Uiso   1.00
C95    C     0.49303   0.28814   0.04074   0.00000  Uiso   1.00
C96    C     0.21185   0.00694   0.95926   0.00000  Uiso   1.00
C97    C     0.28815   0.49306   0.04074   0.00000  Uiso   1.00
C98    C     0.49303   0.28814   0.95927   0.00000  Uiso   1.00
C99    C     0.25000  -0.00000   0.14394   0.00000  Uiso   1.00
C100   C     0.00697   0.21186   0.04074   0.00000  Uiso   1.00
C101   C     0.00000   0.25000   0.47966   0.00000  Uiso   1.00
C102   C    -0.00000   0.25000   0.52034   0.00000  Uiso   1.00
C103   C     0.25000  -0.00000   0.47966   0.00000  Uiso   1.00
C104   C     0.25000  -0.00000   0.52034   0.00000  Uiso   1.00
C105   C     0.25000  -0.00000   0.97966   0.00000  Uiso   1.00
C106   C     0.25000   0.00000   0.02034   0.00000  Uiso   1.00
C107   C     0.00000   0.25000   0.97966   0.00000  Uiso   1.00
C108   C    -0.00000   0.25000   0.02034   0.00000  Uiso   1.00
C109   C     0.07609   0.23623   0.47967   0.00000  Uiso   1.00
C110   C     0.16999   0.08001   0.25000   0.00000  Uiso   1.00
C111   C     0.42390   0.26377   0.52033   0.00000  Uiso   1.00
C112   C     0.26394   0.42394   0.47967   0.00000  Uiso   1.00
C113   C     0.23606   0.07606   0.52033   0.00000  Uiso   1.00
C114   C     0.42391   0.26377   0.47967   0.00000  Uiso   1.00
C115   C     0.07609   0.23623   0.52033   0.00000  Uiso   1.00
C116   C     0.23606   0.07606   0.47967   0.00000  Uiso   1.00
C117   C     0.26394   0.42394   0.52033   0.00000  Uiso   1.00
C118   C     0.32604   0.48595   0.97967   0.00000  Uiso   1.00
C119   C     0.17396   0.01405   0.02033   0.00000  Uiso   1.00
C120   C     0.01411   0.17397   0.97967   0.00000  Uiso   1.00
H121   H     0.43400   0.26162   0.40232   0.00000  Uiso   1.00
H122   H     0.31596   0.48816   0.09768   0.00000  Uiso   1.00
H123   H     0.48809   0.31595   0.90232   0.00000  Uiso   1.00
H124   H     0.01190   0.18405   0.09768   0.00000  Uiso   1.00
H125   H     0.31596   0.48815   0.90232   0.00000  Uiso   1.00
H126   H     0.18404   0.01185   0.09768   0.00000  Uiso   1.00
H127   H     0.01191   0.18405   0.90232   0.00000  Uiso   1.00
H128   H     0.48809   0.31595   0.09768   0.00000  Uiso   1.00
H129   H     0.06600   0.23838   0.59768   0.00000  Uiso   1.00
H130   H     0.23823   0.06598   0.40232   0.00000  Uiso   1.00
H131   H     0.26177   0.43402   0.59768   0.00000  Uiso   1.00
H132   H     0.06600   0.23838   0.40232   0.00000  Uiso   1.00
H133   H     0.43400   0.26162   0.59768   0.00000  Uiso   1.00
H134   H     0.26177   0.43402   0.40232   0.00000  Uiso   1.00
H135   H     0.23823   0.06598   0.59768   0.00000  Uiso   1.00
H136   H     0.18404   0.01184   0.90232   0.00000  Uiso   1.00
O137   O     0.25000  -0.00000   0.25000   0.00000  Uiso   1.00
O138   O     0.25000   0.46538   0.66251   0.00000  Uiso   1.00
O139   O     0.46538   0.25000   0.33749   0.00000  Uiso   1.00
O140   O     0.03461   0.25000   0.66251   0.00000  Uiso   1.00
O141   O     0.00000   0.21538   0.83749   0.00000  Uiso   1.00
O142   O    -0.00000   0.28461   0.16251   0.00000  Uiso   1.00
O143   O     0.28461  -0.00000   0.83749   0.00000  Uiso   1.00
O144   O     0.21538  -0.00000   0.16251   0.00000  Uiso   1.00
O145   O     0.00000   0.28461   0.83749   0.00000  Uiso   1.00
O146   O    -0.00000   0.21538   0.16251   0.00000  Uiso   1.00
O147   O     0.21538  -0.00000   0.83749   0.00000  Uiso   1.00
O148   O     0.25000  -0.00000   0.75000   0.00000  Uiso   1.00
O149   O     0.28461  -0.00000   0.16251   0.00000  Uiso   1.00
O150   O     0.20126   0.08332   0.27298   0.00000  Uiso   1.00
O151   O     0.29873   0.41668   0.72702   0.00000  Uiso   1.00
O152   O     0.41668   0.20126   0.27298   0.00000  Uiso   1.00
O153   O     0.08332   0.29873   0.72702   0.00000  Uiso   1.00
O154   O     0.29873   0.41668   0.27298   0.00000  Uiso   1.00
O155   O     0.20126   0.08332   0.72702   0.00000  Uiso   1.00
O156   O     0.08332   0.29873   0.27298   0.00000  Uiso   1.00
O157   O     0.41668   0.20126   0.72702   0.00000  Uiso   1.00
O158   O     0.20126   0.41668   0.72702   0.00000  Uiso   1.00
O159   O    -0.00000   0.25000   0.25000   0.00000  Uiso   1.00
O160   O     0.29873   0.08332   0.27298   0.00000  Uiso   1.00
O161   O     0.41668   0.29873   0.72702   0.00000  Uiso   1.00
O162   O     0.08332   0.20126   0.27298   0.00000  Uiso   1.00
O163   O     0.29873   0.08332   0.72702   0.00000  Uiso   1.00
O164   O     0.20126   0.41668   0.27298   0.00000  Uiso   1.00
O165   O     0.08332   0.20126   0.72702   0.00000  Uiso   1.00
O166   O     0.41668   0.29873   0.27298   0.00000  Uiso   1.00
O167   O     0.45126   0.33332   0.77298   0.00000  Uiso   1.00
O168   O     0.04873   0.16668   0.22702   0.00000  Uiso   1.00
O169   O     0.16668   0.45126   0.77298   0.00000  Uiso   1.00
O170   O     0.00000   0.25000   0.75000   0.00000  Uiso   1.00
O171   O     0.33332   0.04873   0.22702   0.00000  Uiso   1.00
O172   O     0.04873   0.16668   0.77298   0.00000  Uiso   1.00
O173   O     0.45126   0.33332   0.22702   0.00000  Uiso   1.00
O174   O     0.33332   0.04873   0.77298   0.00000  Uiso   1.00
O175   O     0.16668   0.45126   0.22702   0.00000  Uiso   1.00
O176   O     0.45126   0.16668   0.22702   0.00000  Uiso   1.00
O177   O     0.04873   0.33332   0.77298   0.00000  Uiso   1.00
O178   O     0.16668   0.04873   0.22702   0.00000  Uiso   1.00
O179   O     0.33332   0.45126   0.77298   0.00000  Uiso   1.00
O180   O     0.04873   0.33332   0.22702   0.00000  Uiso   1.00
O181   O     0.25000   0.46538   0.33749   0.00000  Uiso   1.00
O182   O     0.45126   0.16668   0.77298   0.00000  Uiso   1.00
O183   O     0.33332   0.45126   0.22702   0.00000  Uiso   1.00
O184   O     0.16668   0.04873   0.77298   0.00000  Uiso   1.00
O185   O     0.25000   0.03461   0.66251   0.00000  Uiso   1.00
O186   O     0.03461   0.25000   0.33749   0.00000  Uiso   1.00
O187   O     0.46538   0.25000   0.66251   0.00000  Uiso   1.00
O188   O     0.25000   0.03461   0.33749   0.00000  Uiso   1.00
Zn189  Zn    0.20052  -0.00000   0.21730   0.00000  Uiso   1.00
Zn190  Zn    0.04947   0.25000   0.28270   0.00000  Uiso   1.00
Zn191  Zn    0.25000   0.45052   0.71730   0.00000  Uiso   1.00
Zn192  Zn    0.25000   0.04947   0.28270   0.00000  Uiso   1.00
Zn193  Zn    0.04947   0.25000   0.71730   0.00000  Uiso   1.00
Zn194  Zn    0.45052   0.25000   0.28270   0.00000  Uiso   1.00
Zn195  Zn    0.25000   0.04947   0.71730   0.00000  Uiso   1.00
Zn196  Zn    0.25000   0.45052   0.28270   0.00000  Uiso   1.00
Zn197  Zn    0.29947  -0.00000   0.78270   0.00000  Uiso   1.00
Zn198  Zn    0.00000   0.20052   0.21730   0.00000  Uiso   1.00
Zn199  Zn   -0.00000   0.29947   0.78270   0.00000  Uiso   1.00
Zn200  Zn    0.29947  -0.00000   0.21730   0.00000  Uiso   1.00
Zn201  Zn    0.20052  -0.00000   0.78270   0.00000  Uiso   1.00
Zn202  Zn    0.00000   0.29947   0.21730   0.00000  Uiso   1.00
Zn203  Zn   -0.00000   0.20052   0.78270   0.00000  Uiso   1.00
Zn204  Zn    0.45052   0.25000   0.71730   0.00000  Uiso   1.00
Br205  Br    0.62856   0.22643   0.45253   0.00000  Uiso   1.00
Br206  Br    0.62154   0.02406   0.04747   0.00000  Uiso   1.00
Br207  Br    0.52415   0.12155   0.95253   0.00000  Uiso   1.00
Br208  Br    0.97585   0.37845   0.04747   0.00000  Uiso   1.00
Br209  Br    0.62153   0.02405   0.95253   0.00000  Uiso   1.00
Br210  Br    0.87847   0.47595   0.04747   0.00000  Uiso   1.00
Br211  Br    0.97585   0.37845   0.95253   0.00000  Uiso   1.00
Br212  Br    0.52415   0.12155   0.04747   0.00000  Uiso   1.00
Br213  Br    0.87144   0.27357   0.54747   0.00000  Uiso   1.00
Br214  Br    0.77386   0.37150   0.45253   0.00000  Uiso   1.00
Br215  Br    0.72614   0.12850   0.54747   0.00000  Uiso   1.00
Br216  Br    0.87144   0.27358   0.45253   0.00000  Uiso   1.00
Br217  Br    0.62855   0.22642   0.54747   0.00000  Uiso   1.00
Br218  Br    0.72614   0.12850   0.45253   0.00000  Uiso   1.00
Br219  Br    0.77386   0.37150   0.54747   0.00000  Uiso   1.00
Br220  Br    0.87846   0.47594   0.95253   0.00000  Uiso   1.00
C221   C     0.75000  -0.00000   0.35606   0.00000  Uiso   1.00
C222   C     0.83001   0.41999   0.75000   0.00000  Uiso   1.00
C223   C     0.98589   0.32603   0.02033   0.00000  Uiso   1.00
C224   C     0.67396   0.01405   0.97967   0.00000  Uiso   1.00
C225   C     0.82604   0.48595   0.02033   0.00000  Uiso   1.00
C226   C     0.98589   0.32603   0.97967   0.00000  Uiso   1.00
C227   C     0.51411   0.17397   0.02033   0.00000  Uiso   1.00
C228   C     0.91998   0.16998   0.25000   0.00000  Uiso   1.00
C229   C     0.58001   0.33001   0.75000   0.00000  Uiso   1.00
C230   C     0.83001   0.41999   0.25000   0.00000  Uiso   1.00
C231   C     0.66999   0.08001   0.75000   0.00000  Uiso   1.00
C232   C     0.58001   0.33001   0.25000   0.00000  Uiso   1.00
C233   C     0.91998   0.16998   0.75000   0.00000  Uiso   1.00
C234   C     0.66998   0.41998   0.75000   0.00000  Uiso   1.00
C235   C     0.83002   0.08001   0.25000   0.00000  Uiso   1.00
C236   C     0.91999   0.33001   0.75000   0.00000  Uiso   1.00
C237   C     0.75000  -0.00000   0.64394   0.00000  Uiso   1.00
C238   C     0.58001   0.16999   0.25000   0.00000  Uiso   1.00
C239   C     0.83001   0.08001   0.75000   0.00000  Uiso   1.00
C240   C     0.66998   0.41998   0.25000   0.00000  Uiso   1.00
C241   C     0.58001   0.16999   0.75000   0.00000  Uiso   1.00
C242   C     0.91999   0.33001   0.25000   0.00000  Uiso   1.00
C243   C     0.63833   0.38833   0.25000   0.00000  Uiso   1.00
C244   C     0.86167   0.11167   0.75000   0.00000  Uiso   1.00
C245   C     0.61166   0.13834   0.25000   0.00000  Uiso   1.00
C246   C     0.88834   0.36166   0.75000   0.00000  Uiso   1.00
C247   C     0.86167   0.11167   0.25000   0.00000  Uiso   1.00
C248   C     0.50000   0.25000   0.35606   0.00000  Uiso   1.00
C249   C     0.63833   0.38833   0.75000   0.00000  Uiso   1.00
C250   C     0.88834   0.36166   0.25000   0.00000  Uiso   1.00
C251   C     0.61166   0.13834   0.75000   0.00000  Uiso   1.00
C252   C     0.63834   0.11166   0.75000   0.00000  Uiso   1.00
C253   C     0.86166   0.38834   0.25000   0.00000  Uiso   1.00
C254   C     0.61167   0.36167   0.75000   0.00000  Uiso   1.00
C255   C     0.88833   0.13833   0.25000   0.00000  Uiso   1.00
C256   C     0.86166   0.38834   0.75000   0.00000  Uiso   1.00
C257   C     0.63834   0.11166   0.25000   0.00000  Uiso   1.00
C258   C     0.88833   0.13833   0.75000   0.00000  Uiso   1.00
C259   C     0.50000   0.25000   0.64394   0.00000  Uiso   1.00
C260   C     0.61167   0.36167   0.25000   0.00000  Uiso   1.00
C261   C     0.96250   0.25652   0.41872   0.00000  Uiso   1.00
C262   C     0.53750   0.24348   0.58128   0.00000  Uiso   1.00
C263   C     0.74339   0.03749   0.41872   0.00000  Uiso   1.00
C264   C     0.75660   0.46251   0.58128   0.00000  Uiso   1.00
C265   C     0.53750   0.24348   0.41872   0.00000  Uiso   1.00
C266   C     0.96250   0.25652   0.58128   0.00000  Uiso   1.00
C267   C     0.75661   0.46251   0.41872   0.00000  Uiso   1.00
C268   C     0.74339   0.03749   0.58128   0.00000  Uiso   1.00
C269   C     0.71252   0.00665   0.91872   0.00000  Uiso   1.00
C270   C     0.50000   0.25000   0.85606   0.00000  Uiso   1.00
C271   C     0.78748   0.49335   0.08128   0.00000  Uiso   1.00
C272   C     0.99332   0.28748   0.91872   0.00000  Uiso   1.00
C273   C     0.50668   0.21252   0.08128   0.00000  Uiso   1.00
C274   C     0.78748   0.49335   0.91872   0.00000  Uiso   1.00
C275   C     0.71252   0.00665   0.08128   0.00000  Uiso   1.00
C276   C     0.50668   0.21252   0.91872   0.00000  Uiso   1.00
C277   C     0.99332   0.28748   0.08128   0.00000  Uiso   1.00
C278   C     0.50000   0.25000   0.39852   0.00000  Uiso   1.00
C279   C     0.50000   0.25000   0.60148   0.00000  Uiso   1.00
C280   C     0.75000  -0.00000   0.39852   0.00000  Uiso   1.00
C281   C     0.50000   0.25000   0.14394   0.00000  Uiso   1.00
C282   C     0.75000  -0.00000   0.60148   0.00000  Uiso   1.00
C283   C     0.75000  -0.00000   0.89852   0.00000  Uiso   1.00
C284   C     0.75000   0.00000   0.10148   0.00000  Uiso   1.00
C285   C     0.50000   0.25000   0.89852   0.00000  Uiso   1.00
C286   C     0.50000   0.25000   0.10148   0.00000  Uiso   1.00
C287   C     0.53817   0.24320   0.45927   0.00000  Uiso   1.00
C288   C     0.96183   0.25680   0.54073   0.00000  Uiso   1.00
C289   C     0.75689   0.46185   0.45927   0.00000  Uiso   1.00
C290   C     0.74311   0.03815   0.54074   0.00000  Uiso   1.00
C291   C     0.96183   0.25680   0.45927   0.00000  Uiso   1.00
C292   C     0.75000  -0.00000   0.85606   0.00000  Uiso   1.00
C293   C     0.53817   0.24320   0.54073   0.00000  Uiso   1.00
C294   C     0.74311   0.03815   0.45927   0.00000  Uiso   1.00
C295   C     0.75689   0.46185   0.54074   0.00000  Uiso   1.00
C296   C     0.78814   0.49306   0.95927   0.00000  Uiso   1.00
C297   C     0.71185   0.00694   0.04074   0.00000  Uiso   1.00
C298   C     0.50697   0.21186   0.95926   0.00000  Uiso   1.00
C299   C     0.99303   0.28814   0.04074   0.00000  Uiso   1.00
C300   C     0.71185   0.00694   0.95926   0.00000  Uiso   1.00
C301   C     0.78815   0.49306   0.04074   0.00000  Uiso   1.00
C302   C     0.99303   0.28814   0.95927   0.00000  Uiso   1.00
C303   C     0.75000  -0.00000   0.14394   0.00000  Uiso   1.00
C304   C     0.50697   0.21186   0.04074   0.00000  Uiso   1.00
C305   C     0.50000   0.25000   0.47966   0.00000  Uiso   1.00
C306   C     0.50000   0.25000   0.52034   0.00000  Uiso   1.00
C307   C     0.75000  -0.00000   0.47966   0.00000  Uiso   1.00
C308   C     0.75000  -0.00000   0.52034   0.00000  Uiso   1.00
C309   C     0.75000  -0.00000   0.97966   0.00000  Uiso   1.00
C310   C     0.75000   0.00000   0.02034   0.00000  Uiso   1.00
C311   C     0.50000   0.25000   0.97966   0.00000  Uiso   1.00
C312   C     0.50000   0.25000   0.02034   0.00000  Uiso   1.00
C313   C     0.57609   0.23623   0.47967   0.00000  Uiso   1.00
C314   C     0.66999   0.08001   0.25000   0.00000  Uiso   1.00
C315   C     0.92390   0.26377   0.52033   0.00000  Uiso   1.00
C316   C     0.76394   0.42394   0.47967   0.00000  Uiso   1.00
C317   C     0.73606   0.07606   0.52033   0.00000  Uiso   1.00
C318   C     0.92391   0.26377   0.47967   0.00000  Uiso   1.00
C319   C     0.57609   0.23623   0.52033   0.00000  Uiso   1.00
C320   C     0.73606   0.07606   0.47967   0.00000  Uiso   1.00
C321   C     0.76394   0.42394   0.52033   0.00000  Uiso   1.00
C322   C     0.82604   0.48595   0.97967   0.00000  Uiso   1.00
C323   C     0.67396   0.01405   0.02033   0.00000  Uiso   1.00
C324   C     0.51411   0.17397   0.97967   0.00000  Uiso   1.00
H325   H     0.93400   0.26162   0.40232   0.00000  Uiso   1.00
H326   H     0.81596   0.48816   0.09768   0.00000  Uiso   1.00
H327   H     0.98809   0.31595   0.90232   0.00000  Uiso   1.00
H328   H     0.51190   0.18405   0.09768   0.00000  Uiso   1.00
H329   H     0.81596   0.48815   0.90232   0.00000  Uiso   1.00
H330   H     0.68404   0.01185   0.09768   0.00000  Uiso   1.00
H331   H     0.51191   0.18405   0.90232   0.00000  Uiso   1.00
H332   H     0.98809   0.31595   0.09768   0.00000  Uiso   1.00
H333   H     0.56600   0.23838   0.59768   0.00000  Uiso   1.00
H334   H     0.73823   0.06598   0.40232   0.00000  Uiso   1.00
H335   H     0.76177   0.43402   0.59768   0.00000  Uiso   1.00
H336   H     0.56600   0.23838   0.40232   0.00000  Uiso   1.00
H337   H     0.93400   0.26162   0.59768   0.00000  Uiso   1.00
H338   H     0.76177   0.43402   0.40232   0.00000  Uiso   1.00
H339   H     0.73823   0.06598   0.59768   0.00000  Uiso   1.00
H340   H     0.68404   0.01184   0.90232   0.00000  Uiso   1.00
O341   O     0.75000  -0.00000   0.25000   0.00000  Uiso   1.00
O342   O     0.75000   0.46538   0.66251   0.00000  Uiso   1.00
O343   O     0.96538   0.25000   0.33749   0.00000  Uiso   1.00
O344   O     0.53461   0.25000   0.66251   0.00000  Uiso   1.00
O345   O     0.50000   0.21538   0.83749   0.00000  Uiso   1.00
O346   O     0.50000   0.28461   0.16251   0.00000  Uiso   1.00
O347   O     0.78461  -0.00000   0.83749   0.00000  Uiso   1.00
O348   O     0.71538  -0.00000   0.16251   0.00000  Uiso   1.00
O349   O     0.50000   0.28461   0.83749   0.00000  Uiso   1.00
O350   O     0.50000   0.21538   0.16251   0.00000  Uiso   1.00
O351   O     0.71538  -0.00000   0.83749   0.00000  Uiso   1.00
O352   O     0.75000  -0.00000   0.75000   0.00000  Uiso   1.00
O353   O     0.78461  -0.00000   0.16251   0.00000  Uiso   1.00
O354   O     0.70126   0.08332   0.27298   0.00000  Uiso   1.00
O355   O     0.79873   0.41668   0.72702   0.00000  Uiso   1.00
O356   O     0.91668   0.20126   0.27298   0.00000  Uiso   1.00
O357   O     0.58332   0.29873   0.72702   0.00000  Uiso   1.00
O358   O     0.79873   0.41668   0.27298   0.00000  Uiso   1.00
O359   O     0.70126   0.08332   0.72702   0.00000  Uiso   1.00
O360   O     0.58332   0.29873   0.27298   0.00000  Uiso   1.00
O361   O     0.91668   0.20126   0.72702   0.00000  Uiso   1.00
O362   O     0.70126   0.41668   0.72702   0.00000  Uiso   1.00
O363   O     0.50000   0.25000   0.25000   0.00000  Uiso   1.00
O364   O     0.79873   0.08332   0.27298   0.00000  Uiso   1.00
O365   O     0.91668   0.29873   0.72702   0.00000  Uiso   1.00
O366   O     0.58332   0.20126   0.27298   0.00000  Uiso   1.00
O367   O     0.79873   0.08332   0.72702   0.00000  Uiso   1.00
O368   O     0.70126   0.41668   0.27298   0.00000  Uiso   1.00
O369   O     0.58332   0.20126   0.72702   0.00000  Uiso   1.00
O370   O     0.91668   0.29873   0.27298   0.00000  Uiso   1.00
O371   O     0.95126   0.33332   0.77298   0.00000  Uiso   1.00
O372   O     0.54873   0.16668   0.22702   0.00000  Uiso   1.00
O373   O     0.66668   0.45126   0.77298   0.00000  Uiso   1.00
O374   O     0.50000   0.25000   0.75000   0.00000  Uiso   1.00
O375   O     0.83332   0.04873   0.22702   0.00000  Uiso   1.00
O376   O     0.54873   0.16668   0.77298   0.00000  Uiso   1.00
O377   O     0.95126   0.33332   0.22702   0.00000  Uiso   1.00
O378   O     0.83332   0.04873   0.77298   0.00000  Uiso   1.00
O379   O     0.66668   0.45126   0.22702   0.00000  Uiso   1.00
O380   O     0.95126   0.16668   0.22702   0.00000  Uiso   1.00
O381   O     0.54873   0.33332   0.77298   0.00000  Uiso   1.00
O382   O     0.66668   0.04873   0.22702   0.00000  Uiso   1.00
O383   O     0.83332   0.45126   0.77298   0.00000  Uiso   1.00
O384   O     0.54873   0.33332   0.22702   0.00000  Uiso   1.00
O385   O     0.75000   0.46538   0.33749   0.00000  Uiso   1.00
O386   O     0.95126   0.16668   0.77298   0.00000  Uiso   1.00
O387   O     0.83332   0.45126   0.22702   0.00000  Uiso   1.00
O388   O     0.66668   0.04873   0.77298   0.00000  Uiso   1.00
O389   O     0.75000   0.03461   0.66251   0.00000  Uiso   1.00
O390   O     0.53461   0.25000   0.33749   0.00000  Uiso   1.00
O391   O     0.96538   0.25000   0.66251   0.00000  Uiso   1.00
O392   O     0.75000   0.03461   0.33749   0.00000  Uiso   1.00
Zn393  Zn    0.70052  -0.00000   0.21730   0.00000  Uiso   1.00
Zn394  Zn    0.54947   0.25000   0.28270   0.00000  Uiso   1.00
Zn395  Zn    0.75000   0.45052   0.71730   0.00000  Uiso   1.00
Zn396  Zn    0.75000   0.04947   0.28270   0.00000  Uiso   1.00
Zn397  Zn    0.54947   0.25000   0.71730   0.00000  Uiso   1.00
Zn398  Zn    0.95052   0.25000   0.28270   0.00000  Uiso   1.00
Zn399  Zn    0.75000   0.04947   0.71730   0.00000  Uiso   1.00
Zn400  Zn    0.75000   0.45052   0.28270   0.00000  Uiso   1.00
Zn401  Zn    0.79947  -0.00000   0.78270   0.00000  Uiso   1.00
Zn402  Zn    0.50000   0.20052   0.21730   0.00000  Uiso   1.00
Zn403  Zn    0.50000   0.29947   0.78270   0.00000  Uiso   1.00
Zn404  Zn    0.79947  -0.00000   0.21730   0.00000  Uiso   1.00
Zn405  Zn    0.70052  -0.00000   0.78270   0.00000  Uiso   1.00
Zn406  Zn    0.50000   0.29947   0.21730   0.00000  Uiso   1.00
Zn407  Zn    0.50000   0.20052   0.78270   0.00000  Uiso   1.00
Zn408  Zn    0.95052   0.25000   0.71730   0.00000  Uiso   1.00
Br409  Br    0.12856   0.72643   0.45253   0.00000  Uiso   1.00
Br410  Br    0.12154   0.52406   0.04747   0.00000  Uiso   1.00
Br411  Br    0.02415   0.62155   0.95253   0.00000  Uiso   1.00
Br412  Br    0.47585   0.87845   0.04747   0.00000  Uiso   1.00
Br413  Br    0.12153   0.52405   0.95253   0.00000  Uiso   1.00
Br414  Br    0.37847   0.97595   0.04747   0.00000  Uiso   1.00
Br415  Br    0.47585   0.87845   0.95253   0.00000  Uiso   1.00
Br416  Br    0.02415   0.62155   0.04747   0.00000  Uiso   1.00
Br417  Br    0.37144   0.77357   0.54747   0.00000  Uiso   1.00
Br418  Br    0.27386   0.87150   0.45253   0.00000  Uiso   1.00
Br419  Br    0.22614   0.62850   0.54747   0.00000  Uiso   1.00
Br420  Br    0.37144   0.77358   0.45253   0.00000  Uiso   1.00
Br421  Br    0.12855   0.72642   0.54747   0.00000  Uiso   1.00
Br422  Br    0.22614   0.62850   0.45253   0.00000  Uiso   1.00
Br423  Br    0.27386   0.87150   0.54747   0.00000  Uiso   1.00
Br424  Br    0.37846   0.97594   0.95253   0.00000  Uiso   1.00
C425   C     0.25000   0.50000   0.35606   0.00000  Uiso   1.00
C426   C     0.33001   0.91999   0.75000   0.00000  Uiso   1.00
C427   C     0.48589   0.82603   0.02033   0.00000  Uiso   1.00
C428   C     0.17396   0.51405   0.97967   0.00000  Uiso   1.00
C429   C     0.32604   0.98595   0.02033   0.00000  Uiso   1.00
C430   C     0.48589   0.82603   0.97967   0.00000  Uiso   1.00
C431   C     0.01411   0.67397   0.02033   0.00000  Uiso   1.00
C432   C     0.41998   0.66998   0.25000   0.00000  Uiso   1.00
C433   C     0.08001   0.83001   0.75000   0.00000  Uiso   1.00
C434   C     0.33001   0.91999   0.25000   0.00000  Uiso   1.00
C435   C     0.16999   0.58001   0.75000   0.00000  Uiso   1.00
C436   C     0.08001   0.83001   0.25000   0.00000  Uiso   1.00
C437   C     0.41998   0.66998   0.75000   0.00000  Uiso   1.00
C438   C     0.16998   0.91998   0.75000   0.00000  Uiso   1.00
C439   C     0.33002   0.58001   0.25000   0.00000  Uiso   1.00
C440   C     0.41999   0.83001   0.75000   0.00000  Uiso   1.00
C441   C     0.25000   0.50000   0.64394   0.00000  Uiso   1.00
C442   C     0.08001   0.66999   0.25000   0.00000  Uiso   1.00
C443   C     0.33001   0.58001   0.75000   0.00000  Uiso   1.00
C444   C     0.16998   0.91998   0.25000   0.00000  Uiso   1.00
C445   C     0.08001   0.66999   0.75000   0.00000  Uiso   1.00
C446   C     0.41999   0.83001   0.25000   0.00000  Uiso   1.00
C447   C     0.13833   0.88833   0.25000   0.00000  Uiso   1.00
C448   C     0.36167   0.61167   0.75000   0.00000  Uiso   1.00
C449   C     0.11166   0.63834   0.25000   0.00000  Uiso   1.00
C450   C     0.38834   0.86166   0.75000   0.00000  Uiso   1.00
C451   C     0.36167   0.61167   0.25000   0.00000  Uiso   1.00
C452   C    -0.00000   0.75000   0.35606   0.00000  Uiso   1.00
C453   C     0.13833   0.88833   0.75000   0.00000  Uiso   1.00
C454   C     0.38834   0.86166   0.25000   0.00000  Uiso   1.00
C455   C     0.11166   0.63834   0.75000   0.00000  Uiso   1.00
C456   C     0.13834   0.61166   0.75000   0.00000  Uiso   1.00
C457   C     0.36166   0.88834   0.25000   0.00000  Uiso   1.00
C458   C     0.11167   0.86167   0.75000   0.00000  Uiso   1.00
C459   C     0.38833   0.63833   0.25000   0.00000  Uiso   1.00
C460   C     0.36166   0.88834   0.75000   0.00000  Uiso   1.00
C461   C     0.13834   0.61166   0.25000   0.00000  Uiso   1.00
C462   C     0.38833   0.63833   0.75000   0.00000  Uiso   1.00
C463   C     0.00000   0.75000   0.64394   0.00000  Uiso   1.00
C464   C     0.11167   0.86167   0.25000   0.00000  Uiso   1.00
C465   C     0.46250   0.75652   0.41872   0.00000  Uiso   1.00
C466   C     0.03750   0.74348   0.58128   0.00000  Uiso   1.00
C467   C     0.24339   0.53749   0.41872   0.00000  Uiso   1.00
C468   C     0.25660   0.96251   0.58128   0.00000  Uiso   1.00
C469   C     0.03750   0.74348   0.41872   0.00000  Uiso   1.00
C470   C     0.46250   0.75652   0.58128   0.00000  Uiso   1.00
C471   C     0.25661   0.96251   0.41872   0.00000  Uiso   1.00
C472   C     0.24339   0.53749   0.58128   0.00000  Uiso   1.00
C473   C     0.21252   0.50665   0.91872   0.00000  Uiso   1.00
C474   C     0.00000   0.75000   0.85606   0.00000  Uiso   1.00
C475   C     0.28748   0.99335   0.08128   0.00000  Uiso   1.00
C476   C     0.49332   0.78748   0.91872   0.00000  Uiso   1.00
C477   C     0.00668   0.71252   0.08128   0.00000  Uiso   1.00
C478   C     0.28748   0.99335   0.91872   0.00000  Uiso   1.00
C479   C     0.21252   0.50665   0.08128   0.00000  Uiso   1.00
C480   C     0.00668   0.71252   0.91872   0.00000  Uiso   1.00
C481   C     0.49332   0.78748   0.08128   0.00000  Uiso   1.00
C482   C     0.00000   0.75000   0.39852   0.00000  Uiso   1.00
C483   C    -0.00000   0.75000   0.60148   0.00000  Uiso   1.00
C484   C     0.25000   0.50000   0.39852   0.00000  Uiso   1.00
C485   C    -0.00000   0.75000   0.14394   0.00000  Uiso   1.00
C486   C     0.25000   0.50000   0.60148   0.00000  Uiso   1.00
C487   C     0.25000   0.50000   0.89852   0.00000  Uiso   1.00
C488   C     0.25000   0.50000   0.10148   0.00000  Uiso   1.00
C489   C     0.00000   0.75000   0.89852   0.00000  Uiso   1.00
C490   C    -0.00000   0.75000   0.10148   0.00000  Uiso   1.00
C491   C     0.03817   0.74320   0.45927   0.00000  Uiso   1.00
C492   C     0.46183   0.75680   0.54073   0.00000  Uiso   1.00
C493   C     0.25689   0.96185   0.45927   0.00000  Uiso   1.00
C494   C     0.24311   0.53815   0.54074   0.00000  Uiso   1.00
C495   C     0.46183   0.75680   0.45927   0.00000  Uiso   1.00
C496   C     0.25000   0.50000   0.85606   0.00000  Uiso   1.00
C497   C     0.03817   0.74320   0.54073   0.00000  Uiso   1.00
C498   C     0.24311   0.53815   0.45927   0.00000  Uiso   1.00
C499   C     0.25689   0.96185   0.54074   0.00000  Uiso   1.00
C500   C     0.28814   0.99306   0.95927   0.00000  Uiso   1.00
C501   C     0.21185   0.50694   0.04074   0.00000  Uiso   1.00
C502   C     0.00697   0.71186   0.95926   0.00000  Uiso   1.00
C503   C     0.49303   0.78814   0.04074   0.00000  Uiso   1.00
C504   C     0.21185   0.50694   0.95926   0.00000  Uiso   1.00
C505   C     0.28815   0.99306   0.04074   0.00000  Uiso   1.00
C506   C     0.49303   0.78814   0.95927   0.00000  Uiso   1.00
C507   C     0.25000   0.50000   0.14394   0.00000  Uiso   1.00
C508   C     0.00697   0.71186   0.04074   0.00000  Uiso   1.00
C509   C     0.00000   0.75000   0.47966   0.00000  Uiso   1.00
C510   C    -0.00000   0.75000   0.52034   0.00000  Uiso   1.00
C511   C     0.25000   0.50000   0.47966   0.00000  Uiso   1.00
C512   C     0.25000   0.50000   0.52034   0.00000  Uiso   1.00
C513   C     0.25000   0.50000   0.97966   0.00000  Uiso   1.00
C514   C     0.25000   0.50000   0.02034   0.00000  Uiso   1.00
C515   C     0.00000   0.75000   0.97966   0.00000  Uiso   1.00
C516   C    -0.00000   0.75000   0.02034   0.00000  Uiso   1.00
C517   C     0.07609   0.73623   0.47967   0.00000  Uiso   1.00
C518   C     0.16999   0.58001   0.25000   0.00000  Uiso   1.00
C519   C     0.42390   0.76377   0.52033   0.00000  Uiso   1.00
C520   C     0.26394   0.92394   0.47967   0.00000  Uiso   1.00
C521   C     0.23606   0.57606   0.52033   0.00000  Uiso   1.00
C522   C     0.42391   0.76377   0.47967   0.00000  Uiso   1.00
C523   C     0.07609   0.73623   0.52033   0.00000  Uiso   1.00
C524   C     0.23606   0.57606   0.47967   0.00000  Uiso   1.00
C525   C     0.26394   0.92394   0.52033   0.00000  Uiso   1.00
C526   C     0.32604   0.98595   0.97967   0.00000  Uiso   1.00
C527   C     0.17396   0.51405   0.02033   0.00000  Uiso   1.00
C528   C     0.01411   0.67397   0.97967   0.00000  Uiso   1.00
H529   H     0.43400   0.76162   0.40232   0.00000  Uiso   1.00
H530   H     0.31596   0.98816   0.09768   0.00000  Uiso   1.00
H531   H     0.48809   0.81595   0.90232   0.00000  Uiso   1.00
H532   H     0.01190   0.68405   0.09768   0.00000  Uiso   1.00
H533   H     0.31596   0.98815   0.90232   0.00000  Uiso   1.00
H534   H     0.18404   0.51185   0.09768   0.00000  Uiso   1.00
H535   H     0.01191   0.68405   0.90232   0.00000  Uiso   1.00
H536   H     0.48809   0.81595   0.09768   0.00000  Uiso   1.00
H537   H     0.06600   0.73838   0.59768   0.00000  Uiso   1.00
H538   H     0.23823   0.56598   0.40232   0.00000  Uiso   1.00
H539   H     0.26177   0.93402   0.59768   0.00000  Uiso   1.00
H540   H     0.06600   0.73838   0.40232   0.00000  Uiso   1.00
H541   H     0.43400   0.76162   0.59768   0.00000  Uiso   1.00
H542   H     0.26177   0.93402   0.40232   0.00000  Uiso   1.00
H543   H     0.23823   0.56598   0.59768   0.00000  Uiso   1.00
H544   H     0.18404   0.51184   0.90232   0.00000  Uiso   1.00
O545   O     0.25000   0.50000   0.25000   0.00000  Uiso   1.00
O546   O     0.25000   0.96538   0.66251   0.00000  Uiso   1.00
O547   O     0.46538   0.75000   0.33749   0.00000  Uiso   1.00
O548   O     0.03461   0.75000   0.66251   0.00000  Uiso   1.00
O549   O     0.00000   0.71538   0.83749   0.00000  Uiso   1.00
O550   O    -0.00000   0.78461   0.16251   0.00000  Uiso   1.00
O551   O     0.28461   0.50000   0.83749   0.00000  Uiso   1.00
O552   O     0.21538   0.50000   0.16251   0.00000  Uiso   1.00
O553   O     0.00000   0.78461   0.83749   0.00000  Uiso   1.00
O554   O    -0.00000   0.71538   0.16251   0.00000  Uiso   1.00
O555   O     0.21538   0.50000   0.83749   0.00000  Uiso   1.00
O556   O     0.25000   0.50000   0.75000   0.00000  Uiso   1.00
O557   O     0.28461   0.50000   0.16251   0.00000  Uiso   1.00
O558   O     0.20126   0.58332   0.27298   0.00000  Uiso   1.00
O559   O     0.29873   0.91668   0.72702   0.00000  Uiso   1.00
O560   O     0.41668   0.70126   0.27298   0.00000  Uiso   1.00
O561   O     0.08332   0.79873   0.72702   0.00000  Uiso   1.00
O562   O     0.29873   0.91668   0.27298   0.00000  Uiso   1.00
O563   O     0.20126   0.58332   0.72702   0.00000  Uiso   1.00
O564   O     0.08332   0.79873   0.27298   0.00000  Uiso   1.00
O565   O     0.41668   0.70126   0.72702   0.00000  Uiso   1.00
O566   O     0.20126   0.91668   0.72702   0.00000  Uiso   1.00
O567   O    -0.00000   0.75000   0.25000   0.00000  Uiso   1.00
O568   O     0.29873   0.58332   0.27298   0.00000  Uiso   1.00
O569   O     0.41668   0.79873   0.72702   0.00000  Uiso   1.00
O570   O     0.08332   0.70126   0.27298   0.00000  Uiso   1.00
O571   O     0.29873   0.58332   0.72702   0.00000  Uiso   1.00
O572   O     0.20126   0.91668   0.27298   0.00000  Uiso   1.00
O573   O     0.08332   0.70126   0.72702   0.00000  Uiso   1.00
O574   O     0.41668   0.79873   0.27298   0.00000  Uiso   1.00
O575   O     0.45126   0.83332   0.77298   0.00000  Uiso   1.00
O576   O     0.04873   0.66668   0.22702   0.00000  Uiso   1.00
O577   O     0.16668   0.95126   0.77298   0.00000  Uiso   1.00
O578   O     0.00000   0.75000   0.75000   0.00000  Uiso   1.00
O579   O     0.33332   0.54873   0.22702   0.00000  Uiso   1.00
O580   O     0.04873   0.66668   0.77298   0.00000  Uiso   1.00
O581   O     0.45126   0.83332   0.22702   0.00000  Uiso   1.00
O582   O     0.33332   0.54873   0.77298   0.00000  Uiso   1.00
O583   O     0.16668   0.95126   0.22702   0.00000  Uiso   1.00
O584   O     0.45126   0.66668   0.22702   0.00000  Uiso   1.00
O585   O     0.04873   0.83332   0.77298   0.00000  Uiso   1.00
O586   O     0.16668   0.54873   0.22702   0.00000  Uiso   1.00
O587   O     0.33332   0.95126   0.77298   0.00000  Uiso   1.00
O588   O     0.04873   0.83332   0.22702   0.00000  Uiso   1.00
O589   O     0.25000   0.96538   0.33749   0.00000  Uiso   1.00
O590   O     0.45126   0.66668   0.77298   0.00000  Uiso   1.00
O591   O     0.33332   0.95126   0.22702   0.00000  Uiso   1.00
O592   O     0.16668   0.54873   0.77298   0.00000  Uiso   1.00
O593   O     0.25000   0.53461   0.66251   0.00000  Uiso   1.00
O594   O     0.03461   0.75000   0.33749   0.00000  Uiso   1.00
O595   O     0.46538   0.75000   0.66251   0.00000  Uiso   1.00
O596   O     0.25000   0.53461   0.33749   0.00000  Uiso   1.00
Zn597  Zn    0.20052   0.50000   0.21730   0.00000  Uiso   1.00
Zn598  Zn    0.04947   0.75000   0.28270   0.00000  Uiso   1.00
Zn599  Zn    0.25000   0.95052   0.71730   0.00000  Uiso   1.00
Zn600  Zn    0.25000   0.54947   0.28270   0.00000  Uiso   1.00
Zn601  Zn    0.04947   0.75000   0.71730   0.00000  Uiso   1.00
Zn602  Zn    0.45052   0.75000   0.28270   0.00000  Uiso   1.00
Zn603  Zn    0.25000   0.54947   0.71730   0.00000  Uiso   1.00
Zn604  Zn    0.25000   0.95052   0.28270   0.00000  Uiso   1.00
Zn605  Zn    0.29947   0.50000   0.78270   0.00000  Uiso   1.00
Zn606  Zn    0.00000   0.70052   0.21730   0.00000  Uiso   1.00
Zn607  Zn   -0.00000   0.79947   0.78270   0.00000  Uiso   1.00
Zn608  Zn    0.29947   0.50000   0.21730   0.00000  Uiso   1.00
Zn609  Zn    0.20052   0.50000   0.78270   0.00000  Uiso   1.00
Zn610  Zn    0.00000   0.79947   0.21730   0.00000  Uiso   1.00
Zn611  Zn   -0.00000   0.70052   0.78270   0.00000  Uiso   1.00
Zn612  Zn    0.45052   0.75000   0.71730   0.00000  Uiso   1.00
Br613  Br    0.62856   0.72643   0.45253   0.00000  Uiso   1.00
Br614  Br    0.62154   0.52406   0.04747   0.00000  Uiso   1.00
Br615  Br    0.52415   0.62155   0.95253   0.00000  Uiso   1.00
Br616  Br    0.97585   0.87845   0.04747   0.00000  Uiso   1.00
Br617  Br    0.62153   0.52405   0.95253   0.00000  Uiso   1.00
Br618  Br    0.87847   0.97595   0.04747   0.00000  Uiso   1.00
Br619  Br    0.97585   0.87845   0.95253   0.00000  Uiso   1.00
Br620  Br    0.52415   0.62155   0.04747   0.00000  Uiso   1.00
Br621  Br    0.87144   0.77357   0.54747   0.00000  Uiso   1.00
Br622  Br    0.77386   0.87150   0.45253   0.00000  Uiso   1.00
Br623  Br    0.72614   0.62850   0.54747   0.00000  Uiso   1.00
Br624  Br    0.87144   0.77358   0.45253   0.00000  Uiso   1.00
Br625  Br    0.62855   0.72642   0.54747   0.00000  Uiso   1.00
Br626  Br    0.72614   0.62850   0.45253   0.00000  Uiso   1.00
Br627  Br    0.77386   0.87150   0.54747   0.00000  Uiso   1.00
Br628  Br    0.87846   0.97594   0.95253   0.00000  Uiso   1.00
C629   C     0.75000   0.50000   0.35606   0.00000  Uiso   1.00
C630   C     0.83001   0.91999   0.75000   0.00000  Uiso   1.00
C631   C     0.98589   0.82603   0.02033   0.00000  Uiso   1.00
C632   C     0.67396   0.51405   0.97967   0.00000  Uiso   1.00
C633   C     0.82604   0.98595   0.02033   0.00000  Uiso   1.00
C634   C     0.98589   0.82603   0.97967   0.00000  Uiso   1.00
C635   C     0.51411   0.67397   0.02033   0.00000  Uiso   1.00
C636   C     0.91998   0.66998   0.25000   0.00000  Uiso   1.00
C637   C     0.58001   0.83001   0.75000   0.00000  Uiso   1.00
C638   C     0.83001   0.91999   0.25000   0.00000  Uiso   1.00
C639   C     0.66999   0.58001   0.75000   0.00000  Uiso   1.00
C640   C     0.58001   0.83001   0.25000   0.00000  Uiso   1.00
C641   C     0.91998   0.66998   0.75000   0.00000  Uiso   1.00
C642   C     0.66998   0.91998   0.75000   0.00000  Uiso   1.00
C643   C     0.83002   0.58001   0.25000   0.00000  Uiso   1.00
C644   C     0.91999   0.83001   0.75000   0.00000  Uiso   1.00
C645   C     0.75000   0.50000   0.64394   0.00000  Uiso   1.00
C646   C     0.58001   0.66999   0.25000   0.00000  Uiso   1.00
C647   C     0.83001   0.58001   0.75000   0.00000  Uiso   1.00
C648   C     0.66998   0.91998   0.25000   0.00000  Uiso   1.00
C649   C     0.58001   0.66999   0.75000   0.00000  Uiso   1.00
C650   C     0.91999   0.83001   0.25000   0.00000  Uiso   1.00
C651   C     0.63833   0.88833   0.25000   0.00000  Uiso   1.00
C652   C     0.86167   0.61167   0.75000   0.00000  Uiso   1.00
C653   C     0.61166   0.63834   0.25000   0.00000  Uiso   1.00
C654   C     0.88834   0.86166   0.75000   0.00000  Uiso   1.00
C655   C     0.86167   0.61167   0.25000   0.00000  Uiso   1.00
C656   C     0.50000   0.75000   0.35606   0.00000  Uiso   1.00
C657   C     0.63833   0.88833   0.75000   0.00000  Uiso   1.00
C658   C     0.88834   0.86166   0.25000   0.00000  Uiso   1.00
C659   C     0.61166   0.63834   0.75000   0.00000  Uiso   1.00
C660   C     0.63834   0.61166   0.75000   0.00000  Uiso   1.00
C661   C     0.86166   0.88834   0.25000   0.00000  Uiso   1.00
C662   C     0.61167   0.86167   0.75000   0.00000  Uiso   1.00
C663   C     0.88833   0.63833   0.25000   0.00000  Uiso   1.00
C664   C     0.86166   0.88834   0.75000   0.00000  Uiso   1.00
C665   C     0.63834   0.61166   0.25000   0.00000  Uiso   1.00
C666   C     0.88833   0.63833   0.75000   0.00000  Uiso   1.00
C667   C     0.50000   0.75000   0.64394   0.00000  Uiso   1.00
C668   C     0.61167   0.86167   0.25000   0.00000  Uiso   1.00
C669   C     0.96250   0.75652   0.41872   0.00000  Uiso   1.00
C670   C     0.53750   0.74348   0.58128   0.00000  Uiso   1.00
C671   C     0.74339   0.53749   0.41872   0.00000  Uiso   1.00
C672   C     0.75660   0.96251   0.58128   0.00000  Uiso   1.00
C673   C     0.53750   0.74348   0.41872   0.00000  Uiso   1.00
C674   C     0.96250   0.75652   0.58128   0.00000  Uiso   1.00
C675   C     0.75661   0.96251   0.41872   0.00000  Uiso   1.00
C676   C     0.74339   0.53749   0.58128   0.00000  Uiso   1.00
C677   C     0.71252   0.50665   0.91872   0.00000  Uiso   1.00
C678   C     0.50000   0.75000   0.85606   0.00000  Uiso   1.00
C679   C     0.78748   0.99335   0.08128   0.00000  Uiso   1.00
C680   C     0.99332   0.78748   0.91872   0.00000  Uiso   1.00
C681   C     0.50668   0.71252   0.08128   0.00000  Uiso   1.00
C682   C     0.78748   0.99335   0.91872   0.00000  Uiso   1.00
C683   C     0.71252   0.50665   0.08128   0.00000  Uiso   1.00
C684   C     0.50668   0.71252   0.91872   0.00000  Uiso   1.00
C685   C     0.99332   0.78748   0.08128   0.00000  Uiso   1.00
C686   C     0.50000   0.75000   0.39852   0.00000  Uiso   1.00
C687   C     0.50000   0.75000   0.60148   0.00000  Uiso   1.00
C688   C     0.75000   0.50000   0.39852   0.00000  Uiso   1.00
C689   C     0.50000   0.75000   0.14394   0.00000  Uiso   1.00
C690   C     0.75000   0.50000   0.60148   0.00000  Uiso   1.00
C691   C     0.75000   0.50000   0.89852   0.00000  Uiso   1.00
C692   C     0.75000   0.50000   0.10148   0.00000  Uiso   1.00
C693   C     0.50000   0.75000   0.89852   0.00000  Uiso   1.00
C694   C     0.50000   0.75000   0.10148   0.00000  Uiso   1.00
C695   C     0.53817   0.74320   0.45927   0.00000  Uiso   1.00
C696   C     0.96183   0.75680   0.54073   0.00000  Uiso   1.00
C697   C     0.75689   0.96185   0.45927   0.00000  Uiso   1.00
C698   C     0.74311   0.53815   0.54074   0.00000  Uiso   1.00
C699   C     0.96183   0.75680   0.45927   0.00000  Uiso   1.00
C700   C     0.75000   0.50000   0.85606   0.00000  Uiso   1.00
C701   C     0.53817   0.74320   0.54073   0.00000  Uiso   1.00
C702   C     0.74311   0.53815   0.45927   0.00000  Uiso   1.00
C703   C     0.75689   0.96185   0.54074   0.00000  Uiso   1.00
C704   C     0.78814   0.99306   0.95927   0.00000  Uiso   1.00
C705   C     0.71185   0.50694   0.04074   0.00000  Uiso   1.00
C706   C     0.50697   0.71186   0.95926   0.00000  Uiso   1.00
C707   C     0.99303   0.78814   0.04074   0.00000  Uiso   1.00
C708   C     0.71185   0.50694   0.95926   0.00000  Uiso   1.00
C709   C     0.78815   0.99306   0.04074   0.00000  Uiso   1.00
C710   C     0.99303   0.78814   0.95927   0.00000  Uiso   1.00
C711   C     0.75000   0.50000   0.14394   0.00000  Uiso   1.00
C712   C     0.50697   0.71186   0.04074   0.00000  Uiso   1.00
C713   C     0.50000   0.75000   0.47966   0.00000  Uiso   1.00
C714   C     0.50000   0.75000   0.52034   0.00000  Uiso   1.00
C715   C     0.75000   0.50000   0.47966   0.00000  Uiso   1.00
C716   C     0.75000   0.50000   0.52034   0.00000  Uiso   1.00
C717   C     0.75000   0.50000   0.97966   0.00000  Uiso   1.00
C718   C     0.75000   0.50000   0.02034   0.00000  Uiso   1.00
C719   C     0.50000   0.75000   0.97966   0.00000  Uiso   1.00
C720   C     0.50000   0.75000   0.02034   0.00000  Uiso   1.00
C721   C     0.57609   0.73623   0.47967   0.00000  Uiso   1.00
C722   C     0.66999   0.58001   0.25000   0.00000  Uiso   1.00
C723   C     0.92390   0.76377   0.52033   0.00000  Uiso   1.00
C724   C     0.76394   0.92394   0.47967   0.00000  Uiso   1.00
C725   C     0.73606   0.57606   0.52033   0.00000  Uiso   1.00
C726   C     0.92391   0.76377   0.47967   0.00000  Uiso   1.00
C727   C     0.57609   0.73623   0.52033   0.00000  Uiso   1.00
C728   C     0.73606   0.57606   0.47967   0.00000  Uiso   1.00
C729   C     0.76394   0.92394   0.52033   0.00000  Uiso   1.00
C730   C     0.82604   0.98595   0.97967   0.00000  Uiso   1.00
C731   C     0.67396   0.51405   0.02033   0.00000  Uiso   1.00
C732   C     0.51411   0.67397   0.97967   0.00000  Uiso   1.00
H733   H     0.93400   0.76162   0.40232   0.00000  Uiso   1.00
H734   H     0.81596   0.98816   0.09768   0.00000  Uiso   1.00
H735   H     0.98809   0.81595   0.90232   0.00000  Uiso   1.00
H736   H     0.51190   0.68405   0.09768   0.00000  Uiso   1.00
H737   H     0.81596   0.98815   0.90232   0.00000  Uiso   1.00
H738   H     0.68404   0.51185   0.09768   0.00000  Uiso   1.00
H739   H     0.51191   0.68405   0.90232   0.00000  Uiso   1.00
H740   H     0.98809   0.81595   0.09768   0.00000  Uiso   1.00
H741   H     0.56600   0.73838   0.59768   0.00000  Uiso   1.00
H742   H     0.73823   0.56598   0.40232   0.00000  Uiso   1.00
H743   H     0.76177   0.93402   0.59768   0.00000  Uiso   1.00
H744   H     0.56600   0.73838   0.40232   0.00000  Uiso   1.00
H745   H     0.93400   0.76162   0.59768   0.00000  Uiso   1.00
H746   H     0.76177   0.93402   0.40232   0.00000  Uiso   1.00
H747   H     0.73823   0.56598   0.59768   0.00000  Uiso   1.00
H748   H     0.68404   0.51184   0.90232   0.00000  Uiso   1.00
O749   O     0.75000   0.50000   0.25000   0.00000  Uiso   1.00
O750   O     0.75000   0.96538   0.66251   0.00000  Uiso   1.00
O751   O     0.96538   0.75000   0.33749   0.00000  Uiso   1.00
O752   O     0.53461   0.75000   0.66251   0.00000  Uiso   1.00
O753   O     0.50000   0.71538   0.83749   0.00000  Uiso   1.00
O754   O     0.50000   0.78461   0.16251   0.00000  Uiso   1.00
O755   O     0.78461   0.50000   0.83749   0.00000  Uiso   1.00
O756   O     0.71538   0.50000   0.16251   0.00000  Uiso   1.00
O757   O     0.50000   0.78461   0.83749   0.00000  Uiso   1.00
O758   O     0.50000   0.71538   0.16251   0.00000  Uiso   1.00
O759   O     0.71538   0.50000   0.83749   0.00000  Uiso   1.00
O760   O     0.75000   0.50000   0.75000   0.00000  Uiso   1.00
O761   O     0.78461   0.50000   0.16251   0.00000  Uiso   1.00
O762   O     0.70126   0.58332   0.27298   0.00000  Uiso   1.00
O763   O     0.79873   0.91668   0.72702   0.00000  Uiso   1.00
O764   O     0.91668   0.70126   0.27298   0.00000  Uiso   1.00
O765   O     0.58332   0.79873   0.72702   0.00000  Uiso   1.00
O766   O     0.79873   0.91668   0.27298   0.00000  Uiso   1.00
O767   O     0.70126   0.58332   0.72702   0.00000  Uiso   1.00
O768   O     0.58332   0.79873   0.27298   0.00000  Uiso   1.00
O769   O     0.91668   0.70126   0.72702   0.00000  Uiso   1.00
O770   O     0.70126   0.91668   0.72702   0.00000  Uiso   1.00
O771   O     0.50000   0.75000   0.25000   0.00000  Uiso   1.00
O772   O     0.79873   0.58332   0.27298   0.00000  Uiso   1.00
O773   O     0.91668   0.79873   0.72702   0.00000  Uiso   1.00
O774   O     0.58332   0.70126   0.27298   0.00000  Uiso   1.00
O775   O     0.79873   0.58332   0.72702   0.00000  Uiso   1.00
O776   O     0.70126   0.91668   0.27298   0.00000  Uiso   1.00
O777   O     0.58332   0.70126   0.72702   0.00000  Uiso   1.00
O778   O     0.91668   0.79873   0.27298   0.00000  Uiso   1.00
O779   O     0.95126   0.83332   0.77298   0.00000  Uiso   1.00
O780   O     0.54873   0.66668   0.22702   0.00000  Uiso   1.00
O781   O     0.66668   0.95126   0.77298   0.00000  Uiso   1.00
O782   O     0.50000   0.75000   0.75000   0.00000  Uiso   1.00
O783   O     0.83332   0.54873   0.22702   0.00000  Uiso   1.00
O784   O     0.54873   0.66668   0.77298   0.00000  Uiso   1.00
O785   O     0.95126   0.83332   0.22702   0.00000  Uiso   1.00
O786   O     0.83332   0.54873   0.77298   0.00000  Uiso   1.00
O787   O     0.66668   0.95126   0.22702   0.00000  Uiso   1.00
O788   O     0.95126   0.66668   0.22702   0.00000  Uiso   1.00
O789   O     0.54873   0.83332   0.77298   0.00000  Uiso   1.00
O790   O     0.66668   0.54873   0.22702   0.00000  Uiso   1.00
O791   O     0.83332   0.95126   0.77298   0.00000  Uiso   1.00
O792   O     0.54873   0.83332   0.22702   0.00000  Uiso   1.00
O793   O     0.75000   0.96538   0.33749   0.00000  Uiso   1.00
O794   O     0.95126   0.66668   0.77298   0.00000  Uiso   1.00
O795   O     0.83332   0.95126   0.22702   0.00000  Uiso   1.00
O796   O     0.66668   0.54873   0.77298   0.00000  Uiso   1.00
O797   O     0.75000   0.53461   0.66251   0.00000  Uiso   1.00
O798   O     0.53461   0.75000   0.33749   0.00000  Uiso   1.00
O799   O     0.96538   0.75000   0.66251   0.00000  Uiso   1.00
O800   O     0.75000   0.53461   0.33749   0.00000  Uiso   1.00
Zn801  Zn    0.70052   0.50000   0.21730   0.00000  Uiso   1.00
Zn802  Zn    0.54947   0.75000   0.28270   0.00000  Uiso   1.00
Zn803  Zn    0.75000   0.95052   0.71730   0.00000  Uiso   1.00
Zn804  Zn    0.75000   0.54947   0.28270   0.00000  Uiso   1.00
Zn805  Zn    0.54947   0.75000   0.71730   0.00000  Uiso   1.00
Zn806  Zn    0.95052   0.75000   0.28270   0.00000  Uiso   1.00
Zn807  Zn    0.75000   0.54947   0.71730   0.00000  Uiso   1.00
Zn808  Zn    0.75000   0.95052   0.28270   0.00000  Uiso   1.00
Zn809  Zn    0.79947   0.50000   0.78270   0.00000  Uiso   1.00
Zn810  Zn    0.50000   0.70052   0.21730   0.00000  Uiso   1.00
Zn811  Zn    0.50000   0.79947   0.78270   0.00000  Uiso   1.00
Zn812  Zn    0.79947   0.50000   0.21730   0.00000  Uiso   1.00
Zn813  Zn    0.70052   0.50000   0.78270   0.00000  Uiso   1.00
Zn814  Zn    0.50000   0.79947   0.21730   0.00000  Uiso   1.00
Zn815  Zn    0.50000   0.70052   0.78270   0.00000  Uiso   1.00
Zn816  Zn    0.95052   0.75000   0.71730   0.00000  Uiso   1.00
loop_
_geom_bond_atom_site_label_1
_geom_bond_atom_site_label_2
_geom_bond_distance
_geom_bond_site_symmetry_2
_ccdc_geom_bond_type
Br1    C109    1.937   .     S
Br2    C119    1.937   .     S
Br3    C120    1.937   .     S
Br4    C19     1.937   .     S
Br5    C20     1.937   .     S
Br6    C21     1.937   .     S
Br7    C22     1.937   .     S
Br8    C23     1.937   .     S
Br9    C111    1.937   .     S
Br10   C112    1.937   .     S
Br11   C113    1.937   .     S
Br12   C114    1.937   .     S
Br13   C115    1.937   .     S
Br14   C116    1.937   .     S
Br15   C117    1.937   .     S
Br16   C118    1.937   .     S
C17    C76     1.467   .     S
C17    O589    1.273   1_545 A
C17    O188    1.273   .     S
C18    C52     1.421   .     S
C18    O179    1.276   .     A
C18    O151    1.276   .     A
C19    C95     1.413   .     A
C19    C22     1.405   1_554 S
C20    C96     1.413   .     A
C20    C119    1.405   1_556 S
C21    C97     1.413   .     A
C21    C118    1.405   1_554 S
C22    C98     1.413   .     A
C22    C19     1.405   1_556 S
C23    C100    1.413   .     A
C23    C120    1.405   1_554 S
C24    O152    1.276   .     A
C24    C51     1.422   .     S
C24    O176    1.276   .     A
C25    O177    1.276   .     A
C25    O153    1.276   .     A
C25    C50     1.422   .     S
C26    O183    1.276   .     A
C26    C49     1.421   .     S
C26    O154    1.276   .     A
C27    O184    1.276   .     A
C27    O155    1.276   .     A
C27    C48     1.421   .     S
C28    C56     1.422   .     S
C28    O180    1.276   .     A
C28    O156    1.276   .     A
C29    O182    1.276   .     A
C29    O157    1.276   .     A
C29    C54     1.422   .     S
C30    C45     1.422   .     S
C30    O169    1.276   .     A
C30    O158    1.276   .     A
C31    C43     1.422   .     S
C31    O160    1.276   .     A
C31    O171    1.276   .     A
C32    O161    1.276   .     A
C32    C42     1.421   .     S
C32    O167    1.276   .     A
C33    C78     1.467   .     S
C33    O185    1.273   .     A
C33    O546    1.273   1_545 S
C34    C41     1.421   .     S
C34    O168    1.276   .     A
C34    O162    1.276   .     A
C35    O163    1.276   .     A
C35    O174    1.276   .     A
C35    C40     1.422   .     S
C36    O164    1.276   .     A
C36    C39     1.422   .     S
C36    O175    1.276   .     A
C37    O172    1.276   .     A
C37    C47     1.421   .     S
C37    O165    1.276   .     A
C38    O166    1.276   .     A
C38    C46     1.421   .     S
C38    O173    1.276   .     A
C39    C56     1.198   .     T
C40    C54     1.198   .     T
C41    C53     1.198   .     T
C42    C52     1.198   .     T
C43    C51     1.198   .     T
C44    O343    1.273   1_455 A
C44    C74     1.467   .     S
C44    O186    1.273   .     S
C45    C50     1.198   .     T
C46    C49     1.198   .     T
C47    C48     1.198   .     T
C53    C110    1.421   .     S
C55    O140    1.273   .     A
C55    C75     1.467   .     S
C55    O391    1.273   1_455 S
C57    C87     1.401   .     A
C57    H121    1.080   .     S
C57    C278    1.396   .     S
C58    H129    1.080   .     S
C58    C89     1.401   .     A
C58    C75     1.396   .     S
C59    H130    1.080   .     S
C59    C90     1.401   .     A
C59    C76     1.396   .     S
C60    H131    1.080   .     S
C60    C91     1.401   .     A
C60    C486    1.396   .     S
C61    H132    1.080   .     S
C61    C83     1.401   .     A
C61    C74     1.396   .     A
C62    H133    1.080   .     S
C62    C279    1.396   .     A
C62    C84     1.401   .     A
C63    C484    1.396   .     A
C63    C85     1.401   .     A
C63    H134    1.080   .     S
C64    H135    1.080   .     S
C64    C86     1.401   .     A
C64    C78     1.396   .     A
C65    C96     1.401   .     A
C65    H136    1.080   .     S
C65    C79     1.396   .     S
C66    O141    1.273   .     A
C66    O145    1.273   .     A
C66    C81     1.467   .     S
C67    H122    1.080   .     S
C67    C97     1.401   .     A
C67    C488    1.396   .     S
C68    H123    1.080   .     S
C68    C98     1.401   .     A
C68    C285    1.396   .     S
C69    H124    1.080   .     S
C69    C100    1.401   .     A
C69    C82     1.396   .     S
C70    H125    1.080   .     S
C70    C487    1.396   .     A
C70    C92     1.401   .     A
C71    C80     1.396   .     A
C71    H126    1.080   .     S
C71    C93     1.401   .     A
C72    C81     1.396   .     A
C72    H127    1.080   .     S
C72    C94     1.401   .     A
C73    C95     1.401   .     A
C73    C286    1.396   .     A
C73    H128    1.080   .     S
C74    C261    1.396   1_455 S
C75    C266    1.396   1_455 A
C76    C471    1.396   1_545 A
C77    C82     1.467   .     S
C77    O142    1.273   .     A
C77    O146    1.273   .     A
C78    C468    1.396   1_545 S
C79    C88     1.467   .     S
C79    C478    1.396   1_545 A
C80    C99     1.467   .     S
C80    C475    1.396   1_545 S
C81    C272    1.396   1_455 S
C82    C277    1.396   1_455 A
C83    C109    1.413   .     A
C83    C101    1.419   .     A
C84    C306    1.419   .     A
C84    C111    1.413   .     A
C85    C112    1.413   .     A
C85    C511    1.419   .     A
C86    C104    1.419   .     A
C86    C113    1.413   .     A
C87    C114    1.413   .     A
C87    C305    1.419   .     S
C88    O143    1.273   .     S
C88    O147    1.273   .     S
C89    C115    1.413   .     A
C89    C102    1.419   .     S
C90    C116    1.413   .     A
C90    C103    1.419   .     S
C91    C117    1.413   .     A
C91    C512    1.419   .     S
C92    C118    1.413   .     A
C92    C513    1.419   .     A
C93    C106    1.419   .     A
C93    C119    1.413   .     A
C94    C120    1.413   .     A
C94    C107    1.419   .     A
C95    C312    1.419   .     A
C96    C105    1.419   .     S
C97    C514    1.419   .     S
C98    C311    1.419   .     S
C99    O149    1.273   .     A
C99    O144    1.273   .     A
C100   C108    1.419   .     S
C101   C291    1.419   1_455 S
C101   C102    1.406   .     S
C102   C288    1.419   1_455 A
C103   C493    1.419   1_545 A
C103   C104    1.406   .     S
C104   C499    1.419   1_545 S
C105   C500    1.419   1_545 A
C105   C106    1.406   1_556 S
C106   C505    1.419   1_545 S
C106   C105    1.406   1_554 S
C107   C302    1.419   1_455 S
C107   C108    1.406   1_556 S
C108   C299    1.419   1_455 A
C108   C107    1.406   1_554 S
C109   C115    1.405   .     A
C110   O178    1.276   .     A
C110   O150    1.276   .     A
C111   C114    1.405   .     A
C112   C117    1.405   .     A
C113   C116    1.405   .     A
C118   C21     1.405   1_556 S
C119   C20     1.405   1_554 S
C120   C23     1.405   1_556 S
O137   Zn192   1.935   .     S
O137   Zn200   1.935   .     S
O137   Zn189   1.935   .     S
O137   Zn604   1.935   1_545 S
O138   Zn191   1.951   .     S
O138   C441    1.273   .     S
O139   Zn194   1.951   .     S
O139   C248    1.273   .     A
O140   Zn193   1.951   .     S
O141   Zn203   1.951   .     S
O142   Zn202   1.951   .     S
O143   Zn197   1.951   .     S
O144   Zn189   1.951   .     S
O145   Zn199   1.951   .     S
O146   Zn198   1.951   .     S
O147   Zn201   1.951   .     S
O148   Zn197   1.935   .     S
O148   Zn201   1.935   .     S
O148   Zn195   1.935   .     S
O148   Zn599   1.935   1_545 S
O149   Zn200   1.951   .     S
O150   Zn192   1.914   .     S
O151   Zn191   1.914   .     S
O152   Zn194   1.915   .     S
O153   Zn193   1.915   .     S
O154   Zn196   1.914   .     S
O155   Zn195   1.914   .     S
O156   Zn190   1.915   .     S
O157   Zn204   1.915   .     S
O158   Zn191   1.915   .     S
O159   Zn398   1.935   1_455 S
O159   Zn190   1.935   .     S
O159   Zn198   1.935   .     S
O159   Zn202   1.935   .     S
O160   Zn192   1.915   .     S
O161   Zn204   1.914   .     S
O162   Zn190   1.914   .     S
O163   Zn195   1.915   .     S
O164   Zn196   1.915   .     S
O165   Zn193   1.914   .     S
O166   Zn194   1.914   .     S
O167   Zn403   1.914   .     S
O168   Zn198   1.914   .     S
O169   Zn609   1.915   .     S
O170   Zn193   1.935   .     S
O170   Zn199   1.935   .     S
O170   Zn203   1.935   .     S
O170   Zn408   1.935   1_455 S
O171   Zn200   1.915   .     S
O172   Zn203   1.914   .     S
O173   Zn406   1.914   .     S
O174   Zn197   1.915   .     S
O175   Zn597   1.915   .     S
O176   Zn402   1.915   .     S
O177   Zn199   1.915   .     S
O178   Zn189   1.914   .     S
O179   Zn605   1.914   .     S
O180   Zn202   1.915   .     S
O181   Zn196   1.951   .     S
O181   C425    1.273   .     A
O182   Zn407   1.915   .     S
O183   Zn608   1.914   .     S
O184   Zn201   1.914   .     S
O185   Zn195   1.951   .     S
O186   Zn190   1.951   .     S
O187   Zn204   1.951   .     S
O187   C259    1.273   .     S
O188   Zn192   1.951   .     S
Zn189  O583    1.915   1_545 S
Zn191  O556    1.935   .     S
Zn194  O363    1.935   .     S
Zn196  O545    1.935   .     S
Zn197  O587    1.914   1_545 S
Zn198  O380    1.915   1_455 S
Zn199  O371    1.914   1_455 S
Zn200  O591    1.914   1_545 S
Zn201  O577    1.915   1_545 S
Zn202  O377    1.914   1_455 S
Zn203  O386    1.915   1_455 S
Zn204  O374    1.935   .     S
Br205  C313    1.937   .     S
Br206  C323    1.937   .     S
Br207  C324    1.937   .     S
Br208  C223    1.937   .     S
Br209  C224    1.937   .     S
Br210  C225    1.937   .     S
Br211  C226    1.937   .     S
Br212  C227    1.937   .     S
Br213  C315    1.937   .     S
Br214  C316    1.937   .     S
Br215  C317    1.937   .     S
Br216  C318    1.937   .     S
Br217  C319    1.937   .     S
Br218  C320    1.937   .     S
Br219  C321    1.937   .     S
Br220  C322    1.937   .     S
C221   C280    1.467   .     S
C221   O793    1.273   1_545 A
C221   O392    1.273   .     S
C222   C256    1.421   .     S
C222   O383    1.276   .     A
C222   O355    1.276   .     A
C223   C299    1.413   .     A
C223   C226    1.405   1_554 S
C224   C300    1.413   .     A
C224   C323    1.405   1_556 S
C225   C301    1.413   .     A
C225   C322    1.405   1_554 S
C226   C302    1.413   .     A
C226   C223    1.405   1_556 S
C227   C304    1.413   .     A
C227   C324    1.405   1_554 S
C228   O356    1.276   .     A
C228   C255    1.422   .     S
C228   O380    1.276   .     A
C229   O381    1.276   .     A
C229   O357    1.276   .     A
C229   C254    1.422   .     S
C230   O387    1.276   .     A
C230   C253    1.421   .     S
C230   O358    1.276   .     A
C231   O388    1.276   .     A
C231   O359    1.276   .     A
C231   C252    1.421   .     S
C232   C260    1.422   .     S
C232   O384    1.276   .     A
C232   O360    1.276   .     A
C233   O386    1.276   .     A
C233   O361    1.276   .     A
C233   C258    1.422   .     S
C234   C249    1.422   .     S
C234   O373    1.276   .     A
C234   O362    1.276   .     A
C235   C247    1.422   .     S
C235   O364    1.276   .     A
C235   O375    1.276   .     A
C236   O365    1.276   .     A
C236   C246    1.421   .     S
C236   O371    1.276   .     A
C237   C282    1.467   .     S
C237   O389    1.273   .     A
C237   O750    1.273   1_545 S
C238   C245    1.421   .     S
C238   O372    1.276   .     A
C238   O366    1.276   .     A
C239   O367    1.276   .     A
C239   O378    1.276   .     A
C239   C244    1.422   .     S
C240   O368    1.276   .     A
C240   C243    1.422   .     S
C240   O379    1.276   .     A
C241   O376    1.276   .     A
C241   C251    1.421   .     S
C241   O369    1.276   .     A
C242   O370    1.276   .     A
C242   C250    1.421   .     S
C242   O377    1.276   .     A
C243   C260    1.198   .     T
C244   C258    1.198   .     T
C245   C257    1.198   .     T
C246   C256    1.198   .     T
C247   C255    1.198   .     T
C248   C278    1.467   .     S
C248   O390    1.273   .     S
C249   C254    1.198   .     T
C250   C253    1.198   .     T
C251   C252    1.198   .     T
C257   C314    1.421   .     S
C259   O344    1.273   .     A
C259   C279    1.467   .     S
C261   C291    1.401   .     A
C261   H325    1.080   .     S
C261   C74     1.396   1_655 S
C262   H333    1.080   .     S
C262   C293    1.401   .     A
C262   C279    1.396   .     S
C263   H334    1.080   .     S
C263   C294    1.401   .     A
C263   C280    1.396   .     S
C264   H335    1.080   .     S
C264   C295    1.401   .     A
C264   C690    1.396   .     S
C265   H336    1.080   .     S
C265   C287    1.401   .     A
C265   C278    1.396   .     A
C266   H337    1.080   .     S
C266   C75     1.396   1_655 A
C266   C288    1.401   .     A
C267   C688    1.396   .     A
C267   C289    1.401   .     A
C267   H338    1.080   .     S
C268   H339    1.080   .     S
C268   C290    1.401   .     A
C268   C282    1.396   .     A
C269   C300    1.401   .     A
C269   H340    1.080   .     S
C269   C283    1.396   .     S
C270   O345    1.273   .     A
C270   O349    1.273   .     A
C270   C285    1.467   .     S
C271   H326    1.080   .     S
C271   C301    1.401   .     A
C271   C692    1.396   .     S
C272   H327    1.080   .     S
C272   C302    1.401   .     A
C272   C81     1.396   1_655 S
C273   H328    1.080   .     S
C273   C304    1.401   .     A
C273   C286    1.396   .     S
C274   H329    1.080   .     S
C274   C691    1.396   .     A
C274   C296    1.401   .     A
C275   C284    1.396   .     A
C275   H330    1.080   .     S
C275   C297    1.401   .     A
C276   C285    1.396   .     A
C276   H331    1.080   .     S
C276   C298    1.401   .     A
C277   C299    1.401   .     A
C277   C82     1.396   1_655 A
C277   H332    1.080   .     S
C280   C675    1.396   1_545 A
C281   C286    1.467   .     S
C281   O346    1.273   .     A
C281   O350    1.273   .     A
C282   C672    1.396   1_545 S
C283   C292    1.467   .     S
C283   C682    1.396   1_545 A
C284   C303    1.467   .     S
C284   C679    1.396   1_545 S
C287   C313    1.413   .     A
C287   C305    1.419   .     A
C288   C102    1.419   1_655 A
C288   C315    1.413   .     A
C289   C316    1.413   .     A
C289   C715    1.419   .     A
C290   C308    1.419   .     A
C290   C317    1.413   .     A
C291   C318    1.413   .     A
C291   C101    1.419   1_655 S
C292   O347    1.273   .     S
C292   O351    1.273   .     S
C293   C319    1.413   .     A
C293   C306    1.419   .     S
C294   C320    1.413   .     A
C294   C307    1.419   .     S
C295   C321    1.413   .     A
C295   C716    1.419   .     S
C296   C322    1.413   .     A
C296   C717    1.419   .     A
C297   C310    1.419   .     A
C297   C323    1.413   .     A
C298   C324    1.413   .     A
C298   C311    1.419   .     A
C299   C108    1.419   1_655 A
C300   C309    1.419   .     S
C301   C718    1.419   .     S
C302   C107    1.419   1_655 S
C303   O353    1.273   .     A
C303   O348    1.273   .     A
C304   C312    1.419   .     S
C305   C306    1.406   .     S
C307   C697    1.419   1_545 A
C307   C308    1.406   .     S
C308   C703    1.419   1_545 S
C309   C704    1.419   1_545 A
C309   C310    1.406   1_556 S
C310   C709    1.419   1_545 S
C310   C309    1.406   1_554 S
C311   C312    1.406   1_556 S
C312   C311    1.406   1_554 S
C313   C319    1.405   .     A
C314   O382    1.276   .     A
C314   O354    1.276   .     A
C315   C318    1.405   .     A
C316   C321    1.405   .     A
C317   C320    1.405   .     A
C322   C225    1.405   1_556 S
C323   C224    1.405   1_554 S
C324   C227    1.405   1_556 S
O341   Zn396   1.935   .     S
O341   Zn404   1.935   .     S
O341   Zn393   1.935   .     S
O341   Zn808   1.935   1_545 S
O342   Zn395   1.951   .     S
O342   C645    1.273   .     S
O343   Zn398   1.951   .     S
O343   C44     1.273   1_655 A
O344   Zn397   1.951   .     S
O345   Zn407   1.951   .     S
O346   Zn406   1.951   .     S
O347   Zn401   1.951   .     S
O348   Zn393   1.951   .     S
O349   Zn403   1.951   .     S
O350   Zn402   1.951   .     S
O351   Zn405   1.951   .     S
O352   Zn401   1.935   .     S
O352   Zn405   1.935   .     S
O352   Zn399   1.935   .     S
O352   Zn803   1.935   1_545 S
O353   Zn404   1.951   .     S
O354   Zn396   1.914   .     S
O355   Zn395   1.914   .     S
O356   Zn398   1.915   .     S
O357   Zn397   1.915   .     S
O358   Zn400   1.914   .     S
O359   Zn399   1.914   .     S
O360   Zn394   1.915   .     S
O361   Zn408   1.915   .     S
O362   Zn395   1.915   .     S
O363   Zn394   1.935   .     S
O363   Zn402   1.935   .     S
O363   Zn406   1.935   .     S
O364   Zn396   1.915   .     S
O365   Zn408   1.914   .     S
O366   Zn394   1.914   .     S
O367   Zn399   1.915   .     S
O368   Zn400   1.915   .     S
O369   Zn397   1.914   .     S
O370   Zn398   1.914   .     S
O371   Zn199   1.914   1_655 S
O372   Zn402   1.914   .     S
O373   Zn813   1.915   .     S
O374   Zn397   1.935   .     S
O374   Zn403   1.935   .     S
O374   Zn407   1.935   .     S
O375   Zn404   1.915   .     S
O376   Zn407   1.914   .     S
O377   Zn202   1.914   1_655 S
O378   Zn401   1.915   .     S
O379   Zn801   1.915   .     S
O380   Zn198   1.915   1_655 S
O381   Zn403   1.915   .     S
O382   Zn393   1.914   .     S
O383   Zn809   1.914   .     S
O384   Zn406   1.915   .     S
O385   Zn400   1.951   .     S
O385   C629    1.273   .     A
O386   Zn203   1.915   1_655 S
O387   Zn812   1.914   .     S
O388   Zn405   1.914   .     S
O389   Zn399   1.951   .     S
O390   Zn394   1.951   .     S
O391   Zn408   1.951   .     S
O391   C55     1.273   1_655 S
O392   Zn396   1.951   .     S
Zn393  O787    1.915   1_545 S
Zn395  O760    1.935   .     S
Zn398  O159    1.935   1_655 S
Zn400  O749    1.935   .     S
Zn401  O791    1.914   1_545 S
Zn404  O795    1.914   1_545 S
Zn405  O781    1.915   1_545 S
Zn408  O170    1.935   1_655 S
Br409  C517    1.937   .     S
Br410  C527    1.937   .     S
Br411  C528    1.937   .     S
Br412  C427    1.937   .     S
Br413  C428    1.937   .     S
Br414  C429    1.937   .     S
Br415  C430    1.937   .     S
Br416  C431    1.937   .     S
Br417  C519    1.937   .     S
Br418  C520    1.937   .     S
Br419  C521    1.937   .     S
Br420  C522    1.937   .     S
Br421  C523    1.937   .     S
Br422  C524    1.937   .     S
Br423  C525    1.937   .     S
Br424  C526    1.937   .     S
C425   C484    1.467   .     S
C425   O596    1.273   .     S
C426   C460    1.421   .     S
C426   O587    1.276   .     A
C426   O559    1.276   .     A
C427   C503    1.413   .     A
C427   C430    1.405   1_554 S
C428   C504    1.413   .     A
C428   C527    1.405   1_556 S
C429   C505    1.413   .     A
C429   C526    1.405   1_554 S
C430   C506    1.413   .     A
C430   C427    1.405   1_556 S
C431   C508    1.413   .     A
C431   C528    1.405   1_554 S
C432   O560    1.276   .     A
C432   C459    1.422   .     S
C432   O584    1.276   .     A
C433   O585    1.276   .     A
C433   O561    1.276   .     A
C433   C458    1.422   .     S
C434   O591    1.276   .     A
C434   C457    1.421   .     S
C434   O562    1.276   .     A
C435   O592    1.276   .     A
C435   O563    1.276   .     A
C435   C456    1.421   .     S
C436   C464    1.422   .     S
C436   O588    1.276   .     A
C436   O564    1.276   .     A
C437   O590    1.276   .     A
C437   O565    1.276   .     A
C437   C462    1.422   .     S
C438   C453    1.422   .     S
C438   O577    1.276   .     A
C438   O566    1.276   .     A
C439   C451    1.422   .     S
C439   O568    1.276   .     A
C439   O579    1.276   .     A
C440   O569    1.276   .     A
C440   C450    1.421   .     S
C440   O575    1.276   .     A
C441   C486    1.467   .     S
C441   O593    1.273   .     A
C442   C449    1.421   .     S
C442   O576    1.276   .     A
C442   O570    1.276   .     A
C443   O571    1.276   .     A
C443   O582    1.276   .     A
C443   C448    1.422   .     S
C444   O572    1.276   .     A
C444   C447    1.422   .     S
C444   O583    1.276   .     A
C445   O580    1.276   .     A
C445   C455    1.421   .     S
C445   O573    1.276   .     A
C446   O574    1.276   .     A
C446   C454    1.421   .     S
C446   O581    1.276   .     A
C447   C464    1.198   .     T
C448   C462    1.198   .     T
C449   C461    1.198   .     T
C450   C460    1.198   .     T
C451   C459    1.198   .     T
C452   O751    1.273   1_455 A
C452   C482    1.467   .     S
C452   O594    1.273   .     S
C453   C458    1.198   .     T
C454   C457    1.198   .     T
C455   C456    1.198   .     T
C461   C518    1.421   .     S
C463   O548    1.273   .     A
C463   C483    1.467   .     S
C463   O799    1.273   1_455 S
C465   C495    1.401   .     A
C465   H529    1.080   .     S
C465   C686    1.396   .     S
C466   H537    1.080   .     S
C466   C497    1.401   .     A
C466   C483    1.396   .     S
C467   H538    1.080   .     S
C467   C498    1.401   .     A
C467   C484    1.396   .     S
C468   H539    1.080   .     S
C468   C499    1.401   .     A
C468   C78     1.396   1_565 S
C469   H540    1.080   .     S
C469   C491    1.401   .     A
C469   C482    1.396   .     A
C470   H541    1.080   .     S
C470   C687    1.396   .     A
C470   C492    1.401   .     A
C471   C76     1.396   1_565 A
C471   C493    1.401   .     A
C471   H542    1.080   .     S
C472   H543    1.080   .     S
C472   C494    1.401   .     A
C472   C486    1.396   .     A
C473   C504    1.401   .     A
C473   H544    1.080   .     S
C473   C487    1.396   .     S
C474   O549    1.273   .     A
C474   O553    1.273   .     A
C474   C489    1.467   .     S
C475   H530    1.080   .     S
C475   C505    1.401   .     A
C475   C80     1.396   1_565 S
C476   H531    1.080   .     S
C476   C506    1.401   .     A
C476   C693    1.396   .     S
C477   H532    1.080   .     S
C477   C508    1.401   .     A
C477   C490    1.396   .     S
C478   H533    1.080   .     S
C478   C79     1.396   1_565 A
C478   C500    1.401   .     A
C479   C488    1.396   .     A
C479   H534    1.080   .     S
C479   C501    1.401   .     A
C480   C489    1.396   .     A
C480   H535    1.080   .     S
C480   C502    1.401   .     A
C481   C503    1.401   .     A
C481   C694    1.396   .     A
C481   H536    1.080   .     S
C482   C669    1.396   1_455 S
C483   C674    1.396   1_455 A
C485   C490    1.467   .     S
C485   O550    1.273   .     A
C485   O554    1.273   .     A
C487   C496    1.467   .     S
C488   C507    1.467   .     S
C489   C680    1.396   1_455 S
C490   C685    1.396   1_455 A
C491   C517    1.413   .     A
C491   C509    1.419   .     A
C492   C714    1.419   .     A
C492   C519    1.413   .     A
C493   C520    1.413   .     A
C493   C103    1.419   1_565 A
C494   C512    1.419   .     A
C494   C521    1.413   .     A
C495   C522    1.413   .     A
C495   C713    1.419   .     S
C496   O551    1.273   .     S
C496   O555    1.273   .     S
C497   C523    1.413   .     A
C497   C510    1.419   .     S
C498   C524    1.413   .     A
C498   C511    1.419   .     S
C499   C525    1.413   .     A
C499   C104    1.419   1_565 S
C500   C526    1.413   .     A
C500   C105    1.419   1_565 A
C501   C514    1.419   .     A
C501   C527    1.413   .     A
C502   C528    1.413   .     A
C502   C515    1.419   .     A
C503   C720    1.419   .     A
C504   C513    1.419   .     S
C505   C106    1.419   1_565 S
C506   C719    1.419   .     S
C507   O557    1.273   .     A
C507   O552    1.273   .     A
C508   C516    1.419   .     S
C509   C699    1.419   1_455 S
C509   C510    1.406   .     S
C510   C696    1.419   1_455 A
C511   C512    1.406   .     S
C513   C514    1.406   1_556 S
C514   C513    1.406   1_554 S
C515   C710    1.419   1_455 S
C515   C516    1.406   1_556 S
C516   C707    1.419   1_455 A
C516   C515    1.406   1_554 S
C517   C523    1.405   .     A
C518   O586    1.276   .     A
C518   O558    1.276   .     A
C519   C522    1.405   .     A
C520   C525    1.405   .     A
C521   C524    1.405   .     A
C526   C429    1.405   1_556 S
C527   C428    1.405   1_554 S
C528   C431    1.405   1_556 S
O545   Zn600   1.935   .     S
O545   Zn608   1.935   .     S
O545   Zn597   1.935   .     S
O546   Zn599   1.951   .     S
O546   C33     1.273   1_565 S
O547   Zn602   1.951   .     S
O547   C656    1.273   .     A
O548   Zn601   1.951   .     S
O549   Zn611   1.951   .     S
O550   Zn610   1.951   .     S
O551   Zn605   1.951   .     S
O552   Zn597   1.951   .     S
O553   Zn607   1.951   .     S
O554   Zn606   1.951   .     S
O555   Zn609   1.951   .     S
O556   Zn605   1.935   .     S
O556   Zn609   1.935   .     S
O556   Zn603   1.935   .     S
O557   Zn608   1.951   .     S
O558   Zn600   1.914   .     S
O559   Zn599   1.914   .     S
O560   Zn602   1.915   .     S
O561   Zn601   1.915   .     S
O562   Zn604   1.914   .     S
O563   Zn603   1.914   .     S
O564   Zn598   1.915   .     S
O565   Zn612   1.915   .     S
O566   Zn599   1.915   .     S
O567   Zn806   1.935   1_455 S
O567   Zn598   1.935   .     S
O567   Zn606   1.935   .     S
O567   Zn610   1.935   .     S
O568   Zn600   1.915   .     S
O569   Zn612   1.914   .     S
O570   Zn598   1.914   .     S
O571   Zn603   1.915   .     S
O572   Zn604   1.915   .     S
O573   Zn601   1.914   .     S
O574   Zn602   1.914   .     S
O575   Zn811   1.914   .     S
O576   Zn606   1.914   .     S
O577   Zn201   1.915   1_565 S
O578   Zn601   1.935   .     S
O578   Zn607   1.935   .     S
O578   Zn611   1.935   .     S
O578   Zn816   1.935   1_455 S
O579   Zn608   1.915   .     S
O580   Zn611   1.914   .     S
O581   Zn814   1.914   .     S
O582   Zn605   1.915   .     S
O583   Zn189   1.915   1_565 S
O584   Zn810   1.915   .     S
O585   Zn607   1.915   .     S
O586   Zn597   1.914   .     S
O587   Zn197   1.914   1_565 S
O588   Zn610   1.915   .     S
O589   Zn604   1.951   .     S
O589   C17     1.273   1_565 A
O590   Zn815   1.915   .     S
O591   Zn200   1.914   1_565 S
O592   Zn609   1.914   .     S
O593   Zn603   1.951   .     S
O594   Zn598   1.951   .     S
O595   Zn612   1.951   .     S
O595   C667    1.273   .     S
O596   Zn600   1.951   .     S
Zn599  O148    1.935   1_565 S
Zn602  O771    1.935   .     S
Zn604  O137    1.935   1_565 S
Zn606  O788    1.915   1_455 S
Zn607  O779    1.914   1_455 S
Zn610  O785    1.914   1_455 S
Zn611  O794    1.915   1_455 S
Zn612  O782    1.935   .     S
Br613  C721    1.937   .     S
Br614  C731    1.937   .     S
Br615  C732    1.937   .     S
Br616  C631    1.937   .     S
Br617  C632    1.937   .     S
Br618  C633    1.937   .     S
Br619  C634    1.937   .     S
Br620  C635    1.937   .     S
Br621  C723    1.937   .     S
Br622  C724    1.937   .     S
Br623  C725    1.937   .     S
Br624  C726    1.937   .     S
Br625  C727    1.937   .     S
Br626  C728    1.937   .     S
Br627  C729    1.937   .     S
Br628  C730    1.937   .     S
C629   C688    1.467   .     S
C629   O800    1.273   .     S
C630   C664    1.421   .     S
C630   O791    1.276   .     A
C630   O763    1.276   .     A
C631   C707    1.413   .     A
C631   C634    1.405   1_554 S
C632   C708    1.413   .     A
C632   C731    1.405   1_556 S
C633   C709    1.413   .     A
C633   C730    1.405   1_554 S
C634   C710    1.413   .     A
C634   C631    1.405   1_556 S
C635   C712    1.413   .     A
C635   C732    1.405   1_554 S
C636   O764    1.276   .     A
C636   C663    1.422   .     S
C636   O788    1.276   .     A
C637   O789    1.276   .     A
C637   O765    1.276   .     A
C637   C662    1.422   .     S
C638   O795    1.276   .     A
C638   C661    1.421   .     S
C638   O766    1.276   .     A
C639   O796    1.276   .     A
C639   O767    1.276   .     A
C639   C660    1.421   .     S
C640   C668    1.422   .     S
C640   O792    1.276   .     A
C640   O768    1.276   .     A
C641   O794    1.276   .     A
C641   O769    1.276   .     A
C641   C666    1.422   .     S
C642   C657    1.422   .     S
C642   O781    1.276   .     A
C642   O770    1.276   .     A
C643   C655    1.422   .     S
C643   O772    1.276   .     A
C643   O783    1.276   .     A
C644   O773    1.276   .     A
C644   C654    1.421   .     S
C644   O779    1.276   .     A
C645   C690    1.467   .     S
C645   O797    1.273   .     A
C646   C653    1.421   .     S
C646   O780    1.276   .     A
C646   O774    1.276   .     A
C647   O775    1.276   .     A
C647   O786    1.276   .     A
C647   C652    1.422   .     S
C648   O776    1.276   .     A
C648   C651    1.422   .     S
C648   O787    1.276   .     A
C649   O784    1.276   .     A
C649   C659    1.421   .     S
C649   O777    1.276   .     A
C650   O778    1.276   .     A
C650   C658    1.421   .     S
C650   O785    1.276   .     A
C651   C668    1.198   .     T
C652   C666    1.198   .     T
C653   C665    1.198   .     T
C654   C664    1.198   .     T
C655   C663    1.198   .     T
C656   C686    1.467   .     S
C656   O798    1.273   .     S
C657   C662    1.198   .     T
C658   C661    1.198   .     T
C659   C660    1.198   .     T
C665   C722    1.421   .     S
C667   O752    1.273   .     A
C667   C687    1.467   .     S
C669   C699    1.401   .     A
C669   H733    1.080   .     S
C669   C482    1.396   1_655 S
C670   H741    1.080   .     S
C670   C701    1.401   .     A
C670   C687    1.396   .     S
C671   H742    1.080   .     S
C671   C702    1.401   .     A
C671   C688    1.396   .     S
C672   H743    1.080   .     S
C672   C703    1.401   .     A
C672   C282    1.396   1_565 S
C673   H744    1.080   .     S
C673   C695    1.401   .     A
C673   C686    1.396   .     A
C674   H745    1.080   .     S
C674   C483    1.396   1_655 A
C674   C696    1.401   .     A
C675   C280    1.396   1_565 A
C675   C697    1.401   .     A
C675   H746    1.080   .     S
C676   H747    1.080   .     S
C676   C698    1.401   .     A
C676   C690    1.396   .     A
C677   C708    1.401   .     A
C677   H748    1.080   .     S
C677   C691    1.396   .     S
C678   O753    1.273   .     A
C678   O757    1.273   .     A
C678   C693    1.467   .     S
C679   H734    1.080   .     S
C679   C709    1.401   .     A
C679   C284    1.396   1_565 S
C680   H735    1.080   .     S
C680   C710    1.401   .     A
C680   C489    1.396   1_655 S
C681   H736    1.080   .     S
C681   C712    1.401   .     A
C681   C694    1.396   .     S
C682   H737    1.080   .     S
C682   C283    1.396   1_565 A
C682   C704    1.401   .     A
C683   C692    1.396   .     A
C683   H738    1.080   .     S
C683   C705    1.401   .     A
C684   C693    1.396   .     A
C684   H739    1.080   .     S
C684   C706    1.401   .     A
C685   C707    1.401   .     A
C685   C490    1.396   1_655 A
C685   H740    1.080   .     S
C689   C694    1.467   .     S
C689   O754    1.273   .     A
C689   O758    1.273   .     A
C691   C700    1.467   .     S
C692   C711    1.467   .     S
C695   C721    1.413   .     A
C695   C713    1.419   .     A
C696   C510    1.419   1_655 A
C696   C723    1.413   .     A
C697   C724    1.413   .     A
C697   C307    1.419   1_565 A
C698   C716    1.419   .     A
C698   C725    1.413   .     A
C699   C726    1.413   .     A
C699   C509    1.419   1_655 S
C700   O755    1.273   .     S
C700   O759    1.273   .     S
C701   C727    1.413   .     A
C701   C714    1.419   .     S
C702   C728    1.413   .     A
C702   C715    1.419   .     S
C703   C729    1.413   .     A
C703   C308    1.419   1_565 S
C704   C730    1.413   .     A
C704   C309    1.419   1_565 A
C705   C718    1.419   .     A
C705   C731    1.413   .     A
C706   C732    1.413   .     A
C706   C719    1.419   .     A
C707   C516    1.419   1_655 A
C708   C717    1.419   .     S
C709   C310    1.419   1_565 S
C710   C515    1.419   1_655 S
C711   O761    1.273   .     A
C711   O756    1.273   .     A
C712   C720    1.419   .     S
C713   C714    1.406   .     S
C715   C716    1.406   .     S
C717   C718    1.406   1_556 S
C718   C717    1.406   1_554 S
C719   C720    1.406   1_556 S
C720   C719    1.406   1_554 S
C721   C727    1.405   .     A
C722   O790    1.276   .     A
C722   O762    1.276   .     A
C723   C726    1.405   .     A
C724   C729    1.405   .     A
C725   C728    1.405   .     A
C730   C633    1.405   1_556 S
C731   C632    1.405   1_554 S
C732   C635    1.405   1_556 S
O749   Zn804   1.935   .     S
O749   Zn812   1.935   .     S
O749   Zn801   1.935   .     S
O750   Zn803   1.951   .     S
O750   C237    1.273   1_565 S
O751   Zn806   1.951   .     S
O751   C452    1.273   1_655 A
O752   Zn805   1.951   .     S
O753   Zn815   1.951   .     S
O754   Zn814   1.951   .     S
O755   Zn809   1.951   .     S
O756   Zn801   1.951   .     S
O757   Zn811   1.951   .     S
O758   Zn810   1.951   .     S
O759   Zn813   1.951   .     S
O760   Zn809   1.935   .     S
O760   Zn813   1.935   .     S
O760   Zn807   1.935   .     S
O761   Zn812   1.951   .     S
O762   Zn804   1.914   .     S
O763   Zn803   1.914   .     S
O764   Zn806   1.915   .     S
O765   Zn805   1.915   .     S
O766   Zn808   1.914   .     S
O767   Zn807   1.914   .     S
O768   Zn802   1.915   .     S
O769   Zn816   1.915   .     S
O770   Zn803   1.915   .     S
O771   Zn802   1.935   .     S
O771   Zn810   1.935   .     S
O771   Zn814   1.935   .     S
O772   Zn804   1.915   .     S
O773   Zn816   1.914   .     S
O774   Zn802   1.914   .     S
O775   Zn807   1.915   .     S
O776   Zn808   1.915   .     S
O777   Zn805   1.914   .     S
O778   Zn806   1.914   .     S
O779   Zn607   1.914   1_655 S
O780   Zn810   1.914   .     S
O781   Zn405   1.915   1_565 S
O782   Zn805   1.935   .     S
O782   Zn811   1.935   .     S
O782   Zn815   1.935   .     S
O783   Zn812   1.915   .     S
O784   Zn815   1.914   .     S
O785   Zn610   1.914   1_655 S
O786   Zn809   1.915   .     S
O787   Zn393   1.915   1_565 S
O788   Zn606   1.915   1_655 S
O789   Zn811   1.915   .     S
O790   Zn801   1.914   .     S
O791   Zn401   1.914   1_565 S
O792   Zn814   1.915   .     S
O793   Zn808   1.951   .     S
O793   C221    1.273   1_565 A
O794   Zn611   1.915   1_655 S
O795   Zn404   1.914   1_565 S
O796   Zn813   1.914   .     S
O797   Zn807   1.951   .     S
O798   Zn802   1.951   .     S
O799   Zn816   1.951   .     S
O799   C463    1.273   1_655 S
O800   Zn804   1.951   .     S
Zn803  O352    1.935   1_565 S
Zn806  O567    1.935   1_655 S
Zn808  O341    1.935   1_565 S
Zn816  O578    1.935   1_655 S
