data_str_m1_o10_o16_pcu_sym.30
_audit_creation_date              2020-01-03
_audit_creation_method            'Materials Studio'
_symmetry_space_group_name_H-M    'P1'
_symmetry_Int_Tables_number       1
_symmetry_cell_setting            triclinic
loop_
_symmetry_equiv_pos_as_xyz
  x,y,z
_cell_length_a                    32.7296
_cell_length_b                    32.4680
_cell_length_c                    30.9445
_cell_angle_alpha                 96.7964
_cell_angle_beta                  74.9590
_cell_angle_gamma                 98.3252
loop_
_atom_site_label
_atom_site_type_symbol
_atom_site_fract_x
_atom_site_fract_y
_atom_site_fract_z
_atom_site_U_iso_or_equiv
_atom_site_adp_type
_atom_site_occupancy
C1     C     0.05306   0.16005   0.25949   0.00000  Uiso   1.00
C2     C     0.17939   0.16611   0.05713   0.00000  Uiso   1.00
C3     C     0.19959   0.09848   0.06196   0.00000  Uiso   1.00
C4     C     0.28059   0.17360   0.24031   0.00000  Uiso   1.00
C5     C     0.14131   0.19455   0.42059   0.00000  Uiso   1.00
C6     C     0.32606   0.17534   0.23699   0.00000  Uiso   1.00
C7     C     0.00800   0.15662   0.26518   0.00000  Uiso   1.00
C8     C     0.18032   0.32247   0.23688   0.00000  Uiso   1.00
C9     C     0.15167   0.01178   0.26400   0.00000  Uiso   1.00
C10    C     0.15598   0.05589   0.26034   0.00000  Uiso   1.00
C11    C     0.17651   0.27787   0.24029   0.00000  Uiso   1.00
C12    C     0.13124   0.24640   0.48535   0.00000  Uiso   1.00
C13    C     0.18533   0.14764   0.12938   0.00000  Uiso   1.00
C14    C     0.14835   0.18480   0.37118   0.00000  Uiso   1.00
C15    C     0.19390   0.08519   0.01921   0.00000  Uiso   1.00
C16    C     0.19136   0.13843   0.08117   0.00000  Uiso   1.00
C17    C     0.13220   0.23527   0.44003   0.00000  Uiso   1.00
C18    C     0.31573   0.13390   0.30253   0.00000  Uiso   1.00
C19    C     0.20434   0.04400   0.00028   0.00000  Uiso   1.00
C20    C     0.12535   0.26678   0.41386   0.00000  Uiso   1.00
C21    C     0.11882   0.28622   0.00723   0.00000  Uiso   1.00
C22    C     0.12450   0.10077   0.40268   0.00000  Uiso   1.00
C23    C     0.14367   0.21956   0.00999   0.00000  Uiso   1.00
C24    C     0.15454   0.17954   0.49136   0.00000  Uiso   1.00
C25    C     0.14795   0.16513   0.44817   0.00000  Uiso   1.00
C26    C     0.17048   0.15296   0.01504   0.00000  Uiso   1.00
C27    C     0.17719   0.11151   0.49641   0.00000  Uiso   1.00
C28    C     0.16417   0.09620   0.45729   0.00000  Uiso   1.00
C29    C     0.14757   0.12170   0.43473   0.00000  Uiso   1.00
H30    H     0.14340   0.23070   0.04422   0.00000  Uiso   1.00
H31    H     0.20903   0.07719   0.08109   0.00000  Uiso   1.00
H32    H     0.20673   0.00367   0.21204   0.00000  Uiso   1.00
H33    H     0.12482   0.33140   0.28888   0.00000  Uiso   1.00
H34    H     0.16479   0.06348   0.44526   0.00000  Uiso   1.00
H35    H     0.17495   0.19679   0.07369   0.00000  Uiso   1.00
H36    H     0.01473   0.19240   0.21048   0.00000  Uiso   1.00
N37    N     0.29543   0.11574   0.33240   0.00000  Uiso   1.00
N38    N     0.21289   0.01111   0.48508   0.00000  Uiso   1.00
N39    N     0.11995   0.29204   0.39314   0.00000  Uiso   1.00
N40    N     0.10877   0.31800   0.02474   0.00000  Uiso   1.00
N41    N     0.10592   0.08389   0.37724   0.00000  Uiso   1.00
O42    O     0.16667   0.16667   0.25000   0.00000  Uiso   1.00
O43    O     0.15451   0.12637   0.15458   0.00000  Uiso   1.00
O44    O     0.12940   0.20391   0.34968   0.00000  Uiso   1.00
O45    O     0.20824   0.17759   0.14606   0.00000  Uiso   1.00
O46    O     0.17451   0.15880   0.34968   0.00000  Uiso   1.00
O47    O     0.17930   0.08019   0.28213   0.00000  Uiso   1.00
O48    O     0.14632   0.26085   0.27013   0.00000  Uiso   1.00
O49    O     0.07412   0.13291   0.23413   0.00000  Uiso   1.00
O50    O     0.26693   0.19272   0.21360   0.00000  Uiso   1.00
O51    O     0.07071   0.18878   0.28213   0.00000  Uiso   1.00
O52    O     0.25491   0.15226   0.27013   0.00000  Uiso   1.00
O53    O     0.13760   0.06944   0.23413   0.00000  Uiso   1.00
O54    O     0.20345   0.25620   0.21360   0.00000  Uiso   1.00
Zn55   Zn    0.19338   0.13994   0.28734   0.00000  Uiso   1.00
Zn56   Zn    0.13379   0.12458   0.21875   0.00000  Uiso   1.00
Zn57   Zn    0.21056   0.19775   0.20657   0.00000  Uiso   1.00
Zn58   Zn    0.12893   0.20439   0.28733   0.00000  Uiso   1.00
C59    C     0.38639   0.16005   0.25949   0.00000  Uiso   1.00
C60    C     0.51272   0.16611   0.05713   0.00000  Uiso   1.00
C61    C     0.53293   0.09848   0.06196   0.00000  Uiso   1.00
C62    C     0.61393   0.17360   0.24031   0.00000  Uiso   1.00
C63    C     0.47464   0.19455   0.42059   0.00000  Uiso   1.00
C64    C     0.65939   0.17534   0.23699   0.00000  Uiso   1.00
C65    C     0.34133   0.15662   0.26518   0.00000  Uiso   1.00
C66    C     0.51366   0.32247   0.23688   0.00000  Uiso   1.00
C67    C     0.48500   0.01178   0.26400   0.00000  Uiso   1.00
C68    C     0.48931   0.05589   0.26034   0.00000  Uiso   1.00
C69    C     0.50984   0.27787   0.24029   0.00000  Uiso   1.00
C70    C     0.46457   0.24640   0.48535   0.00000  Uiso   1.00
C71    C     0.51867   0.14764   0.12938   0.00000  Uiso   1.00
C72    C     0.48168   0.18480   0.37118   0.00000  Uiso   1.00
C73    C     0.52723   0.08519   0.01921   0.00000  Uiso   1.00
C74    C     0.52469   0.13843   0.08117   0.00000  Uiso   1.00
C75    C     0.46554   0.23527   0.44003   0.00000  Uiso   1.00
C76    C     0.64906   0.13390   0.30253   0.00000  Uiso   1.00
C77    C     0.53767   0.04400   0.00028   0.00000  Uiso   1.00
C78    C     0.45868   0.26678   0.41386   0.00000  Uiso   1.00
C79    C     0.45215   0.28622   0.00723   0.00000  Uiso   1.00
C80    C     0.45783   0.10077   0.40268   0.00000  Uiso   1.00
C81    C     0.47701   0.21956   0.00999   0.00000  Uiso   1.00
C82    C     0.48787   0.17954   0.49136   0.00000  Uiso   1.00
C83    C     0.48129   0.16513   0.44817   0.00000  Uiso   1.00
C84    C     0.50382   0.15296   0.01504   0.00000  Uiso   1.00
C85    C     0.51053   0.11151   0.49641   0.00000  Uiso   1.00
C86    C     0.49750   0.09620   0.45729   0.00000  Uiso   1.00
C87    C     0.48090   0.12170   0.43473   0.00000  Uiso   1.00
H88    H     0.47674   0.23070   0.04422   0.00000  Uiso   1.00
H89    H     0.54236   0.07719   0.08109   0.00000  Uiso   1.00
H90    H     0.54006   0.00367   0.21204   0.00000  Uiso   1.00
H91    H     0.45815   0.33140   0.28888   0.00000  Uiso   1.00
H92    H     0.49812   0.06348   0.44526   0.00000  Uiso   1.00
H93    H     0.50828   0.19679   0.07369   0.00000  Uiso   1.00
H94    H     0.34806   0.19240   0.21048   0.00000  Uiso   1.00
N95    N     0.62877   0.11574   0.33240   0.00000  Uiso   1.00
N96    N     0.54623   0.01111   0.48508   0.00000  Uiso   1.00
N97    N     0.45329   0.29204   0.39314   0.00000  Uiso   1.00
N98    N     0.44210   0.31800   0.02474   0.00000  Uiso   1.00
N99    N     0.43925   0.08389   0.37724   0.00000  Uiso   1.00
O100   O     0.50000   0.16667   0.25000   0.00000  Uiso   1.00
O101   O     0.48784   0.12637   0.15458   0.00000  Uiso   1.00
O102   O     0.46274   0.20391   0.34968   0.00000  Uiso   1.00
O103   O     0.54157   0.17759   0.14606   0.00000  Uiso   1.00
O104   O     0.50785   0.15880   0.34968   0.00000  Uiso   1.00
O105   O     0.51264   0.08019   0.28213   0.00000  Uiso   1.00
O106   O     0.47965   0.26085   0.27013   0.00000  Uiso   1.00
O107   O     0.40745   0.13291   0.23413   0.00000  Uiso   1.00
O108   O     0.60026   0.19272   0.21360   0.00000  Uiso   1.00
O109   O     0.40405   0.18878   0.28213   0.00000  Uiso   1.00
O110   O     0.58824   0.15226   0.27013   0.00000  Uiso   1.00
O111   O     0.47093   0.06944   0.23413   0.00000  Uiso   1.00
O112   O     0.53678   0.25620   0.21360   0.00000  Uiso   1.00
Zn113  Zn    0.52672   0.13994   0.28734   0.00000  Uiso   1.00
Zn114  Zn    0.46713   0.12458   0.21875   0.00000  Uiso   1.00
Zn115  Zn    0.54389   0.19775   0.20657   0.00000  Uiso   1.00
Zn116  Zn    0.46226   0.20439   0.28733   0.00000  Uiso   1.00
C117   C     0.71972   0.16005   0.25949   0.00000  Uiso   1.00
C118   C     0.84606   0.16611   0.05713   0.00000  Uiso   1.00
C119   C     0.86626   0.09848   0.06196   0.00000  Uiso   1.00
C120   C     0.94726   0.17360   0.24031   0.00000  Uiso   1.00
C121   C     0.80797   0.19455   0.42059   0.00000  Uiso   1.00
C122   C     0.99272   0.17534   0.23699   0.00000  Uiso   1.00
C123   C     0.67467   0.15662   0.26518   0.00000  Uiso   1.00
C124   C     0.84699   0.32247   0.23688   0.00000  Uiso   1.00
C125   C     0.81834   0.01178   0.26400   0.00000  Uiso   1.00
C126   C     0.82264   0.05589   0.26034   0.00000  Uiso   1.00
C127   C     0.84318   0.27787   0.24029   0.00000  Uiso   1.00
C128   C     0.79791   0.24640   0.48535   0.00000  Uiso   1.00
C129   C     0.85200   0.14764   0.12938   0.00000  Uiso   1.00
C130   C     0.81501   0.18480   0.37118   0.00000  Uiso   1.00
C131   C     0.86056   0.08519   0.01921   0.00000  Uiso   1.00
C132   C     0.85802   0.13843   0.08117   0.00000  Uiso   1.00
C133   C     0.79887   0.23527   0.44003   0.00000  Uiso   1.00
C134   C     0.98240   0.13390   0.30253   0.00000  Uiso   1.00
C135   C     0.87101   0.04400   0.00028   0.00000  Uiso   1.00
C136   C     0.79202   0.26678   0.41386   0.00000  Uiso   1.00
C137   C     0.78548   0.28622   0.00723   0.00000  Uiso   1.00
C138   C     0.79116   0.10077   0.40268   0.00000  Uiso   1.00
C139   C     0.81034   0.21956   0.00999   0.00000  Uiso   1.00
C140   C     0.82120   0.17954   0.49136   0.00000  Uiso   1.00
C141   C     0.81462   0.16513   0.44817   0.00000  Uiso   1.00
C142   C     0.83715   0.15296   0.01504   0.00000  Uiso   1.00
C143   C     0.84386   0.11151   0.49641   0.00000  Uiso   1.00
C144   C     0.83084   0.09620   0.45729   0.00000  Uiso   1.00
C145   C     0.81424   0.12170   0.43473   0.00000  Uiso   1.00
H146   H     0.81007   0.23070   0.04422   0.00000  Uiso   1.00
H147   H     0.87570   0.07719   0.08109   0.00000  Uiso   1.00
H148   H     0.87340   0.00367   0.21204   0.00000  Uiso   1.00
H149   H     0.79148   0.33140   0.28888   0.00000  Uiso   1.00
H150   H     0.83145   0.06348   0.44526   0.00000  Uiso   1.00
H151   H     0.84161   0.19679   0.07369   0.00000  Uiso   1.00
H152   H     0.68140   0.19240   0.21048   0.00000  Uiso   1.00
N153   N     0.96210   0.11574   0.33240   0.00000  Uiso   1.00
N154   N     0.87956   0.01111   0.48508   0.00000  Uiso   1.00
N155   N     0.78662   0.29204   0.39314   0.00000  Uiso   1.00
N156   N     0.77543   0.31800   0.02474   0.00000  Uiso   1.00
N157   N     0.77259   0.08389   0.37724   0.00000  Uiso   1.00
O158   O     0.83333   0.16667   0.25000   0.00000  Uiso   1.00
O159   O     0.82118   0.12637   0.15458   0.00000  Uiso   1.00
O160   O     0.79607   0.20391   0.34968   0.00000  Uiso   1.00
O161   O     0.87491   0.17759   0.14606   0.00000  Uiso   1.00
O162   O     0.84118   0.15880   0.34968   0.00000  Uiso   1.00
O163   O     0.84597   0.08019   0.28213   0.00000  Uiso   1.00
O164   O     0.81298   0.26085   0.27013   0.00000  Uiso   1.00
O165   O     0.74078   0.13291   0.23413   0.00000  Uiso   1.00
O166   O     0.93360   0.19272   0.21360   0.00000  Uiso   1.00
O167   O     0.73738   0.18878   0.28213   0.00000  Uiso   1.00
O168   O     0.92158   0.15226   0.27013   0.00000  Uiso   1.00
O169   O     0.80426   0.06944   0.23413   0.00000  Uiso   1.00
O170   O     0.87012   0.25620   0.21360   0.00000  Uiso   1.00
Zn171  Zn    0.86005   0.13994   0.28734   0.00000  Uiso   1.00
Zn172  Zn    0.80046   0.12458   0.21875   0.00000  Uiso   1.00
Zn173  Zn    0.87723   0.19775   0.20657   0.00000  Uiso   1.00
Zn174  Zn    0.79560   0.20439   0.28733   0.00000  Uiso   1.00
C175   C     0.05306   0.49338   0.25949   0.00000  Uiso   1.00
C176   C     0.17939   0.49944   0.05713   0.00000  Uiso   1.00
C177   C     0.19959   0.43181   0.06196   0.00000  Uiso   1.00
C178   C     0.28059   0.50694   0.24031   0.00000  Uiso   1.00
C179   C     0.14131   0.52788   0.42059   0.00000  Uiso   1.00
C180   C     0.32606   0.50867   0.23699   0.00000  Uiso   1.00
C181   C     0.00800   0.48995   0.26518   0.00000  Uiso   1.00
C182   C     0.18032   0.65580   0.23688   0.00000  Uiso   1.00
C183   C     0.15167   0.34512   0.26400   0.00000  Uiso   1.00
C184   C     0.15598   0.38922   0.26034   0.00000  Uiso   1.00
C185   C     0.17651   0.61120   0.24029   0.00000  Uiso   1.00
C186   C     0.13124   0.57973   0.48535   0.00000  Uiso   1.00
C187   C     0.18533   0.48097   0.12938   0.00000  Uiso   1.00
C188   C     0.14835   0.51814   0.37118   0.00000  Uiso   1.00
C189   C     0.19390   0.41852   0.01921   0.00000  Uiso   1.00
C190   C     0.19136   0.47176   0.08117   0.00000  Uiso   1.00
C191   C     0.13220   0.56861   0.44003   0.00000  Uiso   1.00
C192   C     0.31573   0.46723   0.30253   0.00000  Uiso   1.00
C193   C     0.20434   0.37733   0.00028   0.00000  Uiso   1.00
C194   C     0.12535   0.60011   0.41386   0.00000  Uiso   1.00
C195   C     0.11882   0.61956   0.00723   0.00000  Uiso   1.00
C196   C     0.12450   0.43411   0.40268   0.00000  Uiso   1.00
C197   C     0.14367   0.55289   0.00999   0.00000  Uiso   1.00
C198   C     0.15454   0.51287   0.49136   0.00000  Uiso   1.00
C199   C     0.14795   0.49847   0.44817   0.00000  Uiso   1.00
C200   C     0.17048   0.48630   0.01504   0.00000  Uiso   1.00
C201   C     0.17719   0.44484   0.49641   0.00000  Uiso   1.00
C202   C     0.16417   0.42953   0.45729   0.00000  Uiso   1.00
C203   C     0.14757   0.45504   0.43473   0.00000  Uiso   1.00
H204   H     0.14340   0.56404   0.04422   0.00000  Uiso   1.00
H205   H     0.20903   0.41052   0.08109   0.00000  Uiso   1.00
H206   H     0.20673   0.33701   0.21204   0.00000  Uiso   1.00
H207   H     0.12482   0.66473   0.28888   0.00000  Uiso   1.00
H208   H     0.16479   0.39681   0.44526   0.00000  Uiso   1.00
H209   H     0.17495   0.53012   0.07369   0.00000  Uiso   1.00
H210   H     0.01473   0.52573   0.21048   0.00000  Uiso   1.00
N211   N     0.29543   0.44908   0.33240   0.00000  Uiso   1.00
N212   N     0.21289   0.34444   0.48508   0.00000  Uiso   1.00
N213   N     0.11995   0.62537   0.39314   0.00000  Uiso   1.00
N214   N     0.10877   0.65133   0.02474   0.00000  Uiso   1.00
N215   N     0.10592   0.41722   0.37724   0.00000  Uiso   1.00
O216   O     0.16667   0.50000   0.25000   0.00000  Uiso   1.00
O217   O     0.15451   0.45970   0.15458   0.00000  Uiso   1.00
O218   O     0.12940   0.53724   0.34968   0.00000  Uiso   1.00
O219   O     0.20824   0.51092   0.14606   0.00000  Uiso   1.00
O220   O     0.17451   0.49213   0.34968   0.00000  Uiso   1.00
O221   O     0.17930   0.41352   0.28213   0.00000  Uiso   1.00
O222   O     0.14632   0.59418   0.27013   0.00000  Uiso   1.00
O223   O     0.07412   0.46625   0.23413   0.00000  Uiso   1.00
O224   O     0.26693   0.52605   0.21360   0.00000  Uiso   1.00
O225   O     0.07071   0.52211   0.28213   0.00000  Uiso   1.00
O226   O     0.25491   0.48559   0.27013   0.00000  Uiso   1.00
O227   O     0.13760   0.40277   0.23413   0.00000  Uiso   1.00
O228   O     0.20345   0.58953   0.21360   0.00000  Uiso   1.00
Zn229  Zn    0.19338   0.47327   0.28734   0.00000  Uiso   1.00
Zn230  Zn    0.13379   0.45791   0.21875   0.00000  Uiso   1.00
Zn231  Zn    0.21056   0.53109   0.20657   0.00000  Uiso   1.00
Zn232  Zn    0.12893   0.53773   0.28733   0.00000  Uiso   1.00
C233   C     0.38639   0.49338   0.25949   0.00000  Uiso   1.00
C234   C     0.51272   0.49944   0.05713   0.00000  Uiso   1.00
C235   C     0.53293   0.43181   0.06196   0.00000  Uiso   1.00
C236   C     0.61393   0.50694   0.24031   0.00000  Uiso   1.00
C237   C     0.47464   0.52788   0.42059   0.00000  Uiso   1.00
C238   C     0.65939   0.50867   0.23699   0.00000  Uiso   1.00
C239   C     0.34133   0.48995   0.26518   0.00000  Uiso   1.00
C240   C     0.51366   0.65580   0.23688   0.00000  Uiso   1.00
C241   C     0.48500   0.34512   0.26400   0.00000  Uiso   1.00
C242   C     0.48931   0.38922   0.26034   0.00000  Uiso   1.00
C243   C     0.50984   0.61120   0.24029   0.00000  Uiso   1.00
C244   C     0.46457   0.57973   0.48535   0.00000  Uiso   1.00
C245   C     0.51867   0.48097   0.12938   0.00000  Uiso   1.00
C246   C     0.48168   0.51814   0.37118   0.00000  Uiso   1.00
C247   C     0.52723   0.41852   0.01921   0.00000  Uiso   1.00
C248   C     0.52469   0.47176   0.08117   0.00000  Uiso   1.00
C249   C     0.46554   0.56861   0.44003   0.00000  Uiso   1.00
C250   C     0.64906   0.46723   0.30253   0.00000  Uiso   1.00
C251   C     0.53767   0.37733   0.00028   0.00000  Uiso   1.00
C252   C     0.45868   0.60011   0.41386   0.00000  Uiso   1.00
C253   C     0.45215   0.61956   0.00723   0.00000  Uiso   1.00
C254   C     0.45783   0.43411   0.40268   0.00000  Uiso   1.00
C255   C     0.47701   0.55289   0.00999   0.00000  Uiso   1.00
C256   C     0.48787   0.51287   0.49136   0.00000  Uiso   1.00
C257   C     0.48129   0.49847   0.44817   0.00000  Uiso   1.00
C258   C     0.50382   0.48630   0.01504   0.00000  Uiso   1.00
C259   C     0.51053   0.44484   0.49641   0.00000  Uiso   1.00
C260   C     0.49750   0.42953   0.45729   0.00000  Uiso   1.00
C261   C     0.48090   0.45504   0.43473   0.00000  Uiso   1.00
H262   H     0.47674   0.56404   0.04422   0.00000  Uiso   1.00
H263   H     0.54236   0.41052   0.08109   0.00000  Uiso   1.00
H264   H     0.54006   0.33701   0.21204   0.00000  Uiso   1.00
H265   H     0.45815   0.66473   0.28888   0.00000  Uiso   1.00
H266   H     0.49812   0.39681   0.44526   0.00000  Uiso   1.00
H267   H     0.50828   0.53012   0.07369   0.00000  Uiso   1.00
H268   H     0.34806   0.52573   0.21048   0.00000  Uiso   1.00
N269   N     0.62877   0.44908   0.33240   0.00000  Uiso   1.00
N270   N     0.54623   0.34444   0.48508   0.00000  Uiso   1.00
N271   N     0.45329   0.62537   0.39314   0.00000  Uiso   1.00
N272   N     0.44210   0.65133   0.02474   0.00000  Uiso   1.00
N273   N     0.43925   0.41722   0.37724   0.00000  Uiso   1.00
O274   O     0.50000   0.50000   0.25000   0.00000  Uiso   1.00
O275   O     0.48784   0.45970   0.15458   0.00000  Uiso   1.00
O276   O     0.46274   0.53724   0.34968   0.00000  Uiso   1.00
O277   O     0.54157   0.51092   0.14606   0.00000  Uiso   1.00
O278   O     0.50785   0.49213   0.34968   0.00000  Uiso   1.00
O279   O     0.51264   0.41352   0.28213   0.00000  Uiso   1.00
O280   O     0.47965   0.59418   0.27013   0.00000  Uiso   1.00
O281   O     0.40745   0.46625   0.23413   0.00000  Uiso   1.00
O282   O     0.60026   0.52605   0.21360   0.00000  Uiso   1.00
O283   O     0.40405   0.52211   0.28213   0.00000  Uiso   1.00
O284   O     0.58824   0.48559   0.27013   0.00000  Uiso   1.00
O285   O     0.47093   0.40277   0.23413   0.00000  Uiso   1.00
O286   O     0.53678   0.58953   0.21360   0.00000  Uiso   1.00
Zn287  Zn    0.52672   0.47327   0.28734   0.00000  Uiso   1.00
Zn288  Zn    0.46713   0.45791   0.21875   0.00000  Uiso   1.00
Zn289  Zn    0.54389   0.53109   0.20657   0.00000  Uiso   1.00
Zn290  Zn    0.46226   0.53773   0.28733   0.00000  Uiso   1.00
C291   C     0.71972   0.49338   0.25949   0.00000  Uiso   1.00
C292   C     0.84606   0.49944   0.05713   0.00000  Uiso   1.00
C293   C     0.86626   0.43181   0.06196   0.00000  Uiso   1.00
C294   C     0.94726   0.50694   0.24031   0.00000  Uiso   1.00
C295   C     0.80797   0.52788   0.42059   0.00000  Uiso   1.00
C296   C     0.99272   0.50867   0.23699   0.00000  Uiso   1.00
C297   C     0.67467   0.48995   0.26518   0.00000  Uiso   1.00
C298   C     0.84699   0.65580   0.23688   0.00000  Uiso   1.00
C299   C     0.81834   0.34512   0.26400   0.00000  Uiso   1.00
C300   C     0.82264   0.38922   0.26034   0.00000  Uiso   1.00
C301   C     0.84318   0.61120   0.24029   0.00000  Uiso   1.00
C302   C     0.79791   0.57973   0.48535   0.00000  Uiso   1.00
C303   C     0.85200   0.48097   0.12938   0.00000  Uiso   1.00
C304   C     0.81501   0.51814   0.37118   0.00000  Uiso   1.00
C305   C     0.86056   0.41852   0.01921   0.00000  Uiso   1.00
C306   C     0.85802   0.47176   0.08117   0.00000  Uiso   1.00
C307   C     0.79887   0.56861   0.44003   0.00000  Uiso   1.00
C308   C     0.98240   0.46723   0.30253   0.00000  Uiso   1.00
C309   C     0.87101   0.37733   0.00028   0.00000  Uiso   1.00
C310   C     0.79202   0.60011   0.41386   0.00000  Uiso   1.00
C311   C     0.78548   0.61956   0.00723   0.00000  Uiso   1.00
C312   C     0.79116   0.43411   0.40268   0.00000  Uiso   1.00
C313   C     0.81034   0.55289   0.00999   0.00000  Uiso   1.00
C314   C     0.82120   0.51287   0.49136   0.00000  Uiso   1.00
C315   C     0.81462   0.49847   0.44817   0.00000  Uiso   1.00
C316   C     0.83715   0.48630   0.01504   0.00000  Uiso   1.00
C317   C     0.84386   0.44484   0.49641   0.00000  Uiso   1.00
C318   C     0.83084   0.42953   0.45729   0.00000  Uiso   1.00
C319   C     0.81424   0.45504   0.43473   0.00000  Uiso   1.00
H320   H     0.81007   0.56404   0.04422   0.00000  Uiso   1.00
H321   H     0.87570   0.41052   0.08109   0.00000  Uiso   1.00
H322   H     0.87340   0.33701   0.21204   0.00000  Uiso   1.00
H323   H     0.79148   0.66473   0.28888   0.00000  Uiso   1.00
H324   H     0.83145   0.39681   0.44526   0.00000  Uiso   1.00
H325   H     0.84161   0.53012   0.07369   0.00000  Uiso   1.00
H326   H     0.68140   0.52573   0.21048   0.00000  Uiso   1.00
N327   N     0.96210   0.44908   0.33240   0.00000  Uiso   1.00
N328   N     0.87956   0.34444   0.48508   0.00000  Uiso   1.00
N329   N     0.78662   0.62537   0.39314   0.00000  Uiso   1.00
N330   N     0.77543   0.65133   0.02474   0.00000  Uiso   1.00
N331   N     0.77259   0.41722   0.37724   0.00000  Uiso   1.00
O332   O     0.83333   0.50000   0.25000   0.00000  Uiso   1.00
O333   O     0.82118   0.45970   0.15458   0.00000  Uiso   1.00
O334   O     0.79607   0.53724   0.34968   0.00000  Uiso   1.00
O335   O     0.87491   0.51092   0.14606   0.00000  Uiso   1.00
O336   O     0.84118   0.49213   0.34968   0.00000  Uiso   1.00
O337   O     0.84597   0.41352   0.28213   0.00000  Uiso   1.00
O338   O     0.81298   0.59418   0.27013   0.00000  Uiso   1.00
O339   O     0.74078   0.46625   0.23413   0.00000  Uiso   1.00
O340   O     0.93360   0.52605   0.21360   0.00000  Uiso   1.00
O341   O     0.73738   0.52211   0.28213   0.00000  Uiso   1.00
O342   O     0.92158   0.48559   0.27013   0.00000  Uiso   1.00
O343   O     0.80426   0.40277   0.23413   0.00000  Uiso   1.00
O344   O     0.87012   0.58953   0.21360   0.00000  Uiso   1.00
Zn345  Zn    0.86005   0.47327   0.28734   0.00000  Uiso   1.00
Zn346  Zn    0.80046   0.45791   0.21875   0.00000  Uiso   1.00
Zn347  Zn    0.87723   0.53109   0.20657   0.00000  Uiso   1.00
Zn348  Zn    0.79560   0.53773   0.28733   0.00000  Uiso   1.00
C349   C     0.05306   0.82671   0.25949   0.00000  Uiso   1.00
C350   C     0.17939   0.83277   0.05713   0.00000  Uiso   1.00
C351   C     0.19959   0.76515   0.06196   0.00000  Uiso   1.00
C352   C     0.28059   0.84027   0.24031   0.00000  Uiso   1.00
C353   C     0.14131   0.86121   0.42059   0.00000  Uiso   1.00
C354   C     0.32606   0.84201   0.23699   0.00000  Uiso   1.00
C355   C     0.00800   0.82329   0.26518   0.00000  Uiso   1.00
C356   C     0.18032   0.98913   0.23688   0.00000  Uiso   1.00
C357   C     0.15167   0.67845   0.26400   0.00000  Uiso   1.00
C358   C     0.15598   0.72256   0.26034   0.00000  Uiso   1.00
C359   C     0.17651   0.94454   0.24029   0.00000  Uiso   1.00
C360   C     0.13124   0.91306   0.48535   0.00000  Uiso   1.00
C361   C     0.18533   0.81430   0.12938   0.00000  Uiso   1.00
C362   C     0.14835   0.85147   0.37118   0.00000  Uiso   1.00
C363   C     0.19390   0.75186   0.01921   0.00000  Uiso   1.00
C364   C     0.19136   0.80509   0.08117   0.00000  Uiso   1.00
C365   C     0.13220   0.90194   0.44003   0.00000  Uiso   1.00
C366   C     0.31573   0.80056   0.30253   0.00000  Uiso   1.00
C367   C     0.20434   0.71067   0.00028   0.00000  Uiso   1.00
C368   C     0.12535   0.93345   0.41386   0.00000  Uiso   1.00
C369   C     0.11882   0.95289   0.00723   0.00000  Uiso   1.00
C370   C     0.12450   0.76744   0.40268   0.00000  Uiso   1.00
C371   C     0.14367   0.88622   0.00999   0.00000  Uiso   1.00
C372   C     0.15454   0.84621   0.49136   0.00000  Uiso   1.00
C373   C     0.14795   0.83180   0.44817   0.00000  Uiso   1.00
C374   C     0.17048   0.81963   0.01504   0.00000  Uiso   1.00
C375   C     0.17719   0.77817   0.49641   0.00000  Uiso   1.00
C376   C     0.16417   0.76287   0.45729   0.00000  Uiso   1.00
C377   C     0.14757   0.78837   0.43473   0.00000  Uiso   1.00
H378   H     0.14340   0.89737   0.04422   0.00000  Uiso   1.00
H379   H     0.20903   0.74385   0.08109   0.00000  Uiso   1.00
H380   H     0.20673   0.67034   0.21204   0.00000  Uiso   1.00
H381   H     0.12482   0.99806   0.28888   0.00000  Uiso   1.00
H382   H     0.16479   0.73015   0.44526   0.00000  Uiso   1.00
H383   H     0.17495   0.86346   0.07369   0.00000  Uiso   1.00
H384   H     0.01473   0.85906   0.21048   0.00000  Uiso   1.00
N385   N     0.29543   0.78241   0.33240   0.00000  Uiso   1.00
N386   N     0.21289   0.67777   0.48508   0.00000  Uiso   1.00
N387   N     0.11995   0.95871   0.39314   0.00000  Uiso   1.00
N388   N     0.10877   0.98467   0.02474   0.00000  Uiso   1.00
N389   N     0.10592   0.75055   0.37724   0.00000  Uiso   1.00
O390   O     0.16667   0.83333   0.25000   0.00000  Uiso   1.00
O391   O     0.15451   0.79304   0.15458   0.00000  Uiso   1.00
O392   O     0.12940   0.87058   0.34968   0.00000  Uiso   1.00
O393   O     0.20824   0.84425   0.14606   0.00000  Uiso   1.00
O394   O     0.17451   0.82546   0.34968   0.00000  Uiso   1.00
O395   O     0.17930   0.74686   0.28213   0.00000  Uiso   1.00
O396   O     0.14632   0.92751   0.27013   0.00000  Uiso   1.00
O397   O     0.07412   0.79958   0.23413   0.00000  Uiso   1.00
O398   O     0.26693   0.85939   0.21360   0.00000  Uiso   1.00
O399   O     0.07071   0.85544   0.28213   0.00000  Uiso   1.00
O400   O     0.25491   0.81892   0.27013   0.00000  Uiso   1.00
O401   O     0.13760   0.73610   0.23413   0.00000  Uiso   1.00
O402   O     0.20345   0.92286   0.21360   0.00000  Uiso   1.00
Zn403  Zn    0.19338   0.80661   0.28734   0.00000  Uiso   1.00
Zn404  Zn    0.13379   0.79124   0.21875   0.00000  Uiso   1.00
Zn405  Zn    0.21056   0.86442   0.20657   0.00000  Uiso   1.00
Zn406  Zn    0.12893   0.87106   0.28733   0.00000  Uiso   1.00
C407   C     0.38639   0.82671   0.25949   0.00000  Uiso   1.00
C408   C     0.51272   0.83277   0.05713   0.00000  Uiso   1.00
C409   C     0.53293   0.76515   0.06196   0.00000  Uiso   1.00
C410   C     0.61393   0.84027   0.24031   0.00000  Uiso   1.00
C411   C     0.47464   0.86121   0.42059   0.00000  Uiso   1.00
C412   C     0.65939   0.84201   0.23699   0.00000  Uiso   1.00
C413   C     0.34133   0.82329   0.26518   0.00000  Uiso   1.00
C414   C     0.51366   0.98913   0.23688   0.00000  Uiso   1.00
C415   C     0.48500   0.67845   0.26400   0.00000  Uiso   1.00
C416   C     0.48931   0.72256   0.26034   0.00000  Uiso   1.00
C417   C     0.50984   0.94454   0.24029   0.00000  Uiso   1.00
C418   C     0.46457   0.91306   0.48535   0.00000  Uiso   1.00
C419   C     0.51867   0.81430   0.12938   0.00000  Uiso   1.00
C420   C     0.48168   0.85147   0.37118   0.00000  Uiso   1.00
C421   C     0.52723   0.75186   0.01921   0.00000  Uiso   1.00
C422   C     0.52469   0.80509   0.08117   0.00000  Uiso   1.00
C423   C     0.46554   0.90194   0.44003   0.00000  Uiso   1.00
C424   C     0.64906   0.80056   0.30253   0.00000  Uiso   1.00
C425   C     0.53767   0.71067   0.00028   0.00000  Uiso   1.00
C426   C     0.45868   0.93345   0.41386   0.00000  Uiso   1.00
C427   C     0.45215   0.95289   0.00723   0.00000  Uiso   1.00
C428   C     0.45783   0.76744   0.40268   0.00000  Uiso   1.00
C429   C     0.47701   0.88622   0.00999   0.00000  Uiso   1.00
C430   C     0.48787   0.84621   0.49136   0.00000  Uiso   1.00
C431   C     0.48129   0.83180   0.44817   0.00000  Uiso   1.00
C432   C     0.50382   0.81963   0.01504   0.00000  Uiso   1.00
C433   C     0.51053   0.77817   0.49641   0.00000  Uiso   1.00
C434   C     0.49750   0.76287   0.45729   0.00000  Uiso   1.00
C435   C     0.48090   0.78837   0.43473   0.00000  Uiso   1.00
H436   H     0.47674   0.89737   0.04422   0.00000  Uiso   1.00
H437   H     0.54236   0.74385   0.08109   0.00000  Uiso   1.00
H438   H     0.54006   0.67034   0.21204   0.00000  Uiso   1.00
H439   H     0.45815   0.99806   0.28888   0.00000  Uiso   1.00
H440   H     0.49812   0.73015   0.44526   0.00000  Uiso   1.00
H441   H     0.50828   0.86346   0.07369   0.00000  Uiso   1.00
H442   H     0.34806   0.85906   0.21048   0.00000  Uiso   1.00
N443   N     0.62877   0.78241   0.33240   0.00000  Uiso   1.00
N444   N     0.54623   0.67777   0.48508   0.00000  Uiso   1.00
N445   N     0.45329   0.95871   0.39314   0.00000  Uiso   1.00
N446   N     0.44210   0.98467   0.02474   0.00000  Uiso   1.00
N447   N     0.43925   0.75055   0.37724   0.00000  Uiso   1.00
O448   O     0.50000   0.83333   0.25000   0.00000  Uiso   1.00
O449   O     0.48784   0.79304   0.15458   0.00000  Uiso   1.00
O450   O     0.46274   0.87058   0.34968   0.00000  Uiso   1.00
O451   O     0.54157   0.84425   0.14606   0.00000  Uiso   1.00
O452   O     0.50785   0.82546   0.34968   0.00000  Uiso   1.00
O453   O     0.51264   0.74686   0.28213   0.00000  Uiso   1.00
O454   O     0.47965   0.92751   0.27013   0.00000  Uiso   1.00
O455   O     0.40745   0.79958   0.23413   0.00000  Uiso   1.00
O456   O     0.60026   0.85939   0.21360   0.00000  Uiso   1.00
O457   O     0.40405   0.85544   0.28213   0.00000  Uiso   1.00
O458   O     0.58824   0.81892   0.27013   0.00000  Uiso   1.00
O459   O     0.47093   0.73610   0.23413   0.00000  Uiso   1.00
O460   O     0.53678   0.92286   0.21360   0.00000  Uiso   1.00
Zn461  Zn    0.52672   0.80661   0.28734   0.00000  Uiso   1.00
Zn462  Zn    0.46713   0.79124   0.21875   0.00000  Uiso   1.00
Zn463  Zn    0.54389   0.86442   0.20657   0.00000  Uiso   1.00
Zn464  Zn    0.46226   0.87106   0.28733   0.00000  Uiso   1.00
C465   C     0.71972   0.82671   0.25949   0.00000  Uiso   1.00
C466   C     0.84606   0.83277   0.05713   0.00000  Uiso   1.00
C467   C     0.86626   0.76515   0.06196   0.00000  Uiso   1.00
C468   C     0.94726   0.84027   0.24031   0.00000  Uiso   1.00
C469   C     0.80797   0.86121   0.42059   0.00000  Uiso   1.00
C470   C     0.99272   0.84201   0.23699   0.00000  Uiso   1.00
C471   C     0.67467   0.82329   0.26518   0.00000  Uiso   1.00
C472   C     0.84699   0.98913   0.23688   0.00000  Uiso   1.00
C473   C     0.81834   0.67845   0.26400   0.00000  Uiso   1.00
C474   C     0.82264   0.72256   0.26034   0.00000  Uiso   1.00
C475   C     0.84318   0.94454   0.24029   0.00000  Uiso   1.00
C476   C     0.79791   0.91306   0.48535   0.00000  Uiso   1.00
C477   C     0.85200   0.81430   0.12938   0.00000  Uiso   1.00
C478   C     0.81501   0.85147   0.37118   0.00000  Uiso   1.00
C479   C     0.86056   0.75186   0.01921   0.00000  Uiso   1.00
C480   C     0.85802   0.80509   0.08117   0.00000  Uiso   1.00
C481   C     0.79887   0.90194   0.44003   0.00000  Uiso   1.00
C482   C     0.98240   0.80056   0.30253   0.00000  Uiso   1.00
C483   C     0.87101   0.71067   0.00028   0.00000  Uiso   1.00
C484   C     0.79202   0.93345   0.41386   0.00000  Uiso   1.00
C485   C     0.78548   0.95289   0.00723   0.00000  Uiso   1.00
C486   C     0.79116   0.76744   0.40268   0.00000  Uiso   1.00
C487   C     0.81034   0.88622   0.00999   0.00000  Uiso   1.00
C488   C     0.82120   0.84621   0.49136   0.00000  Uiso   1.00
C489   C     0.81462   0.83180   0.44817   0.00000  Uiso   1.00
C490   C     0.83715   0.81963   0.01504   0.00000  Uiso   1.00
C491   C     0.84386   0.77817   0.49641   0.00000  Uiso   1.00
C492   C     0.83084   0.76287   0.45729   0.00000  Uiso   1.00
C493   C     0.81424   0.78837   0.43473   0.00000  Uiso   1.00
H494   H     0.81007   0.89737   0.04422   0.00000  Uiso   1.00
H495   H     0.87570   0.74385   0.08109   0.00000  Uiso   1.00
H496   H     0.87340   0.67034   0.21204   0.00000  Uiso   1.00
H497   H     0.79148   0.99806   0.28888   0.00000  Uiso   1.00
H498   H     0.83145   0.73015   0.44526   0.00000  Uiso   1.00
H499   H     0.84161   0.86346   0.07369   0.00000  Uiso   1.00
H500   H     0.68140   0.85906   0.21048   0.00000  Uiso   1.00
N501   N     0.96210   0.78241   0.33240   0.00000  Uiso   1.00
N502   N     0.87956   0.67777   0.48508   0.00000  Uiso   1.00
N503   N     0.78662   0.95871   0.39314   0.00000  Uiso   1.00
N504   N     0.77543   0.98467   0.02474   0.00000  Uiso   1.00
N505   N     0.77259   0.75055   0.37724   0.00000  Uiso   1.00
O506   O     0.83333   0.83333   0.25000   0.00000  Uiso   1.00
O507   O     0.82118   0.79304   0.15458   0.00000  Uiso   1.00
O508   O     0.79607   0.87058   0.34968   0.00000  Uiso   1.00
O509   O     0.87491   0.84425   0.14606   0.00000  Uiso   1.00
O510   O     0.84118   0.82546   0.34968   0.00000  Uiso   1.00
O511   O     0.84597   0.74686   0.28213   0.00000  Uiso   1.00
O512   O     0.81298   0.92751   0.27013   0.00000  Uiso   1.00
O513   O     0.74078   0.79958   0.23413   0.00000  Uiso   1.00
O514   O     0.93360   0.85939   0.21360   0.00000  Uiso   1.00
O515   O     0.73738   0.85544   0.28213   0.00000  Uiso   1.00
O516   O     0.92158   0.81892   0.27013   0.00000  Uiso   1.00
O517   O     0.80426   0.73610   0.23413   0.00000  Uiso   1.00
O518   O     0.87012   0.92286   0.21360   0.00000  Uiso   1.00
Zn519  Zn    0.86005   0.80661   0.28734   0.00000  Uiso   1.00
Zn520  Zn    0.80046   0.79124   0.21875   0.00000  Uiso   1.00
Zn521  Zn    0.87723   0.86442   0.20657   0.00000  Uiso   1.00
Zn522  Zn    0.79560   0.87106   0.28733   0.00000  Uiso   1.00
C523   C     0.05306   0.16005   0.75949   0.00000  Uiso   1.00
C524   C     0.17939   0.16611   0.55713   0.00000  Uiso   1.00
C525   C     0.19959   0.09848   0.56196   0.00000  Uiso   1.00
C526   C     0.28059   0.17360   0.74031   0.00000  Uiso   1.00
C527   C     0.14131   0.19455   0.92059   0.00000  Uiso   1.00
C528   C     0.32606   0.17534   0.73699   0.00000  Uiso   1.00
C529   C     0.00800   0.15662   0.76518   0.00000  Uiso   1.00
C530   C     0.18032   0.32247   0.73688   0.00000  Uiso   1.00
C531   C     0.15167   0.01178   0.76400   0.00000  Uiso   1.00
C532   C     0.15598   0.05589   0.76034   0.00000  Uiso   1.00
C533   C     0.17651   0.27787   0.74029   0.00000  Uiso   1.00
C534   C     0.13124   0.24640   0.98535   0.00000  Uiso   1.00
C535   C     0.18533   0.14764   0.62938   0.00000  Uiso   1.00
C536   C     0.14835   0.18480   0.87118   0.00000  Uiso   1.00
C537   C     0.19390   0.08519   0.51921   0.00000  Uiso   1.00
C538   C     0.19136   0.13843   0.58117   0.00000  Uiso   1.00
C539   C     0.13220   0.23527   0.94003   0.00000  Uiso   1.00
C540   C     0.31573   0.13390   0.80253   0.00000  Uiso   1.00
C541   C     0.20434   0.04400   0.50028   0.00000  Uiso   1.00
C542   C     0.12535   0.26678   0.91386   0.00000  Uiso   1.00
C543   C     0.11882   0.28622   0.50723   0.00000  Uiso   1.00
C544   C     0.12450   0.10077   0.90268   0.00000  Uiso   1.00
C545   C     0.14367   0.21956   0.50999   0.00000  Uiso   1.00
C546   C     0.15454   0.17954   0.99136   0.00000  Uiso   1.00
C547   C     0.14795   0.16513   0.94817   0.00000  Uiso   1.00
C548   C     0.17048   0.15296   0.51504   0.00000  Uiso   1.00
C549   C     0.17719   0.11151   0.99641   0.00000  Uiso   1.00
C550   C     0.16417   0.09620   0.95729   0.00000  Uiso   1.00
C551   C     0.14757   0.12170   0.93473   0.00000  Uiso   1.00
H552   H     0.14340   0.23070   0.54422   0.00000  Uiso   1.00
H553   H     0.20903   0.07719   0.58109   0.00000  Uiso   1.00
H554   H     0.20673   0.00367   0.71204   0.00000  Uiso   1.00
H555   H     0.12482   0.33140   0.78888   0.00000  Uiso   1.00
H556   H     0.16479   0.06348   0.94526   0.00000  Uiso   1.00
H557   H     0.17495   0.19679   0.57369   0.00000  Uiso   1.00
H558   H     0.01473   0.19240   0.71048   0.00000  Uiso   1.00
N559   N     0.29543   0.11574   0.83240   0.00000  Uiso   1.00
N560   N     0.21289   0.01111   0.98508   0.00000  Uiso   1.00
N561   N     0.11995   0.29204   0.89314   0.00000  Uiso   1.00
N562   N     0.10877   0.31800   0.52474   0.00000  Uiso   1.00
N563   N     0.10592   0.08389   0.87724   0.00000  Uiso   1.00
O564   O     0.16667   0.16667   0.75000   0.00000  Uiso   1.00
O565   O     0.15451   0.12637   0.65458   0.00000  Uiso   1.00
O566   O     0.12940   0.20391   0.84968   0.00000  Uiso   1.00
O567   O     0.20824   0.17759   0.64606   0.00000  Uiso   1.00
O568   O     0.17451   0.15880   0.84968   0.00000  Uiso   1.00
O569   O     0.17930   0.08019   0.78213   0.00000  Uiso   1.00
O570   O     0.14632   0.26085   0.77013   0.00000  Uiso   1.00
O571   O     0.07412   0.13291   0.73413   0.00000  Uiso   1.00
O572   O     0.26693   0.19272   0.71360   0.00000  Uiso   1.00
O573   O     0.07071   0.18878   0.78213   0.00000  Uiso   1.00
O574   O     0.25491   0.15226   0.77013   0.00000  Uiso   1.00
O575   O     0.13760   0.06944   0.73413   0.00000  Uiso   1.00
O576   O     0.20345   0.25620   0.71360   0.00000  Uiso   1.00
Zn577  Zn    0.19338   0.13994   0.78734   0.00000  Uiso   1.00
Zn578  Zn    0.13379   0.12458   0.71875   0.00000  Uiso   1.00
Zn579  Zn    0.21056   0.19775   0.70657   0.00000  Uiso   1.00
Zn580  Zn    0.12893   0.20439   0.78733   0.00000  Uiso   1.00
C581   C     0.38639   0.16005   0.75949   0.00000  Uiso   1.00
C582   C     0.51272   0.16611   0.55713   0.00000  Uiso   1.00
C583   C     0.53293   0.09848   0.56196   0.00000  Uiso   1.00
C584   C     0.61393   0.17360   0.74031   0.00000  Uiso   1.00
C585   C     0.47464   0.19455   0.92059   0.00000  Uiso   1.00
C586   C     0.65939   0.17534   0.73699   0.00000  Uiso   1.00
C587   C     0.34133   0.15662   0.76518   0.00000  Uiso   1.00
C588   C     0.51366   0.32247   0.73688   0.00000  Uiso   1.00
C589   C     0.48500   0.01178   0.76400   0.00000  Uiso   1.00
C590   C     0.48931   0.05589   0.76034   0.00000  Uiso   1.00
C591   C     0.50984   0.27787   0.74029   0.00000  Uiso   1.00
C592   C     0.46457   0.24640   0.98535   0.00000  Uiso   1.00
C593   C     0.51867   0.14764   0.62938   0.00000  Uiso   1.00
C594   C     0.48168   0.18480   0.87118   0.00000  Uiso   1.00
C595   C     0.52723   0.08519   0.51921   0.00000  Uiso   1.00
C596   C     0.52469   0.13843   0.58117   0.00000  Uiso   1.00
C597   C     0.46554   0.23527   0.94003   0.00000  Uiso   1.00
C598   C     0.64906   0.13390   0.80253   0.00000  Uiso   1.00
C599   C     0.53767   0.04400   0.50028   0.00000  Uiso   1.00
C600   C     0.45868   0.26678   0.91386   0.00000  Uiso   1.00
C601   C     0.45215   0.28622   0.50723   0.00000  Uiso   1.00
C602   C     0.45783   0.10077   0.90268   0.00000  Uiso   1.00
C603   C     0.47701   0.21956   0.50999   0.00000  Uiso   1.00
C604   C     0.48787   0.17954   0.99136   0.00000  Uiso   1.00
C605   C     0.48129   0.16513   0.94817   0.00000  Uiso   1.00
C606   C     0.50382   0.15296   0.51504   0.00000  Uiso   1.00
C607   C     0.51053   0.11151   0.99641   0.00000  Uiso   1.00
C608   C     0.49750   0.09620   0.95729   0.00000  Uiso   1.00
C609   C     0.48090   0.12170   0.93473   0.00000  Uiso   1.00
H610   H     0.47674   0.23070   0.54422   0.00000  Uiso   1.00
H611   H     0.54236   0.07719   0.58109   0.00000  Uiso   1.00
H612   H     0.54006   0.00367   0.71204   0.00000  Uiso   1.00
H613   H     0.45815   0.33140   0.78888   0.00000  Uiso   1.00
H614   H     0.49812   0.06348   0.94526   0.00000  Uiso   1.00
H615   H     0.50828   0.19679   0.57369   0.00000  Uiso   1.00
H616   H     0.34806   0.19240   0.71048   0.00000  Uiso   1.00
N617   N     0.62877   0.11574   0.83240   0.00000  Uiso   1.00
N618   N     0.54623   0.01111   0.98508   0.00000  Uiso   1.00
N619   N     0.45329   0.29204   0.89314   0.00000  Uiso   1.00
N620   N     0.44210   0.31800   0.52474   0.00000  Uiso   1.00
N621   N     0.43925   0.08389   0.87724   0.00000  Uiso   1.00
O622   O     0.50000   0.16667   0.75000   0.00000  Uiso   1.00
O623   O     0.48784   0.12637   0.65458   0.00000  Uiso   1.00
O624   O     0.46274   0.20391   0.84968   0.00000  Uiso   1.00
O625   O     0.54157   0.17759   0.64606   0.00000  Uiso   1.00
O626   O     0.50785   0.15880   0.84968   0.00000  Uiso   1.00
O627   O     0.51264   0.08019   0.78213   0.00000  Uiso   1.00
O628   O     0.47965   0.26085   0.77013   0.00000  Uiso   1.00
O629   O     0.40745   0.13291   0.73413   0.00000  Uiso   1.00
O630   O     0.60026   0.19272   0.71360   0.00000  Uiso   1.00
O631   O     0.40405   0.18878   0.78213   0.00000  Uiso   1.00
O632   O     0.58824   0.15226   0.77013   0.00000  Uiso   1.00
O633   O     0.47093   0.06944   0.73413   0.00000  Uiso   1.00
O634   O     0.53678   0.25620   0.71360   0.00000  Uiso   1.00
Zn635  Zn    0.52672   0.13994   0.78734   0.00000  Uiso   1.00
Zn636  Zn    0.46713   0.12458   0.71875   0.00000  Uiso   1.00
Zn637  Zn    0.54389   0.19775   0.70657   0.00000  Uiso   1.00
Zn638  Zn    0.46226   0.20439   0.78733   0.00000  Uiso   1.00
C639   C     0.71972   0.16005   0.75949   0.00000  Uiso   1.00
C640   C     0.84606   0.16611   0.55713   0.00000  Uiso   1.00
C641   C     0.86626   0.09848   0.56196   0.00000  Uiso   1.00
C642   C     0.94726   0.17360   0.74031   0.00000  Uiso   1.00
C643   C     0.80797   0.19455   0.92059   0.00000  Uiso   1.00
C644   C     0.99272   0.17534   0.73699   0.00000  Uiso   1.00
C645   C     0.67467   0.15662   0.76518   0.00000  Uiso   1.00
C646   C     0.84699   0.32247   0.73688   0.00000  Uiso   1.00
C647   C     0.81834   0.01178   0.76400   0.00000  Uiso   1.00
C648   C     0.82264   0.05589   0.76034   0.00000  Uiso   1.00
C649   C     0.84318   0.27787   0.74029   0.00000  Uiso   1.00
C650   C     0.79791   0.24640   0.98535   0.00000  Uiso   1.00
C651   C     0.85200   0.14764   0.62938   0.00000  Uiso   1.00
C652   C     0.81501   0.18480   0.87118   0.00000  Uiso   1.00
C653   C     0.86056   0.08519   0.51921   0.00000  Uiso   1.00
C654   C     0.85802   0.13843   0.58117   0.00000  Uiso   1.00
C655   C     0.79887   0.23527   0.94003   0.00000  Uiso   1.00
C656   C     0.98240   0.13390   0.80253   0.00000  Uiso   1.00
C657   C     0.87101   0.04400   0.50028   0.00000  Uiso   1.00
C658   C     0.79202   0.26678   0.91386   0.00000  Uiso   1.00
C659   C     0.78548   0.28622   0.50723   0.00000  Uiso   1.00
C660   C     0.79116   0.10077   0.90268   0.00000  Uiso   1.00
C661   C     0.81034   0.21956   0.50999   0.00000  Uiso   1.00
C662   C     0.82120   0.17954   0.99136   0.00000  Uiso   1.00
C663   C     0.81462   0.16513   0.94817   0.00000  Uiso   1.00
C664   C     0.83715   0.15296   0.51504   0.00000  Uiso   1.00
C665   C     0.84386   0.11151   0.99641   0.00000  Uiso   1.00
C666   C     0.83084   0.09620   0.95729   0.00000  Uiso   1.00
C667   C     0.81424   0.12170   0.93473   0.00000  Uiso   1.00
H668   H     0.81007   0.23070   0.54422   0.00000  Uiso   1.00
H669   H     0.87570   0.07719   0.58109   0.00000  Uiso   1.00
H670   H     0.87340   0.00367   0.71204   0.00000  Uiso   1.00
H671   H     0.79148   0.33140   0.78888   0.00000  Uiso   1.00
H672   H     0.83145   0.06348   0.94526   0.00000  Uiso   1.00
H673   H     0.84161   0.19679   0.57369   0.00000  Uiso   1.00
H674   H     0.68140   0.19240   0.71048   0.00000  Uiso   1.00
N675   N     0.96210   0.11574   0.83240   0.00000  Uiso   1.00
N676   N     0.87956   0.01111   0.98508   0.00000  Uiso   1.00
N677   N     0.78662   0.29204   0.89314   0.00000  Uiso   1.00
N678   N     0.77543   0.31800   0.52474   0.00000  Uiso   1.00
N679   N     0.77259   0.08389   0.87724   0.00000  Uiso   1.00
O680   O     0.83333   0.16667   0.75000   0.00000  Uiso   1.00
O681   O     0.82118   0.12637   0.65458   0.00000  Uiso   1.00
O682   O     0.79607   0.20391   0.84968   0.00000  Uiso   1.00
O683   O     0.87491   0.17759   0.64606   0.00000  Uiso   1.00
O684   O     0.84118   0.15880   0.84968   0.00000  Uiso   1.00
O685   O     0.84597   0.08019   0.78213   0.00000  Uiso   1.00
O686   O     0.81298   0.26085   0.77013   0.00000  Uiso   1.00
O687   O     0.74078   0.13291   0.73413   0.00000  Uiso   1.00
O688   O     0.93360   0.19272   0.71360   0.00000  Uiso   1.00
O689   O     0.73738   0.18878   0.78213   0.00000  Uiso   1.00
O690   O     0.92158   0.15226   0.77013   0.00000  Uiso   1.00
O691   O     0.80426   0.06944   0.73413   0.00000  Uiso   1.00
O692   O     0.87012   0.25620   0.71360   0.00000  Uiso   1.00
Zn693  Zn    0.86005   0.13994   0.78734   0.00000  Uiso   1.00
Zn694  Zn    0.80046   0.12458   0.71875   0.00000  Uiso   1.00
Zn695  Zn    0.87723   0.19775   0.70657   0.00000  Uiso   1.00
Zn696  Zn    0.79560   0.20439   0.78733   0.00000  Uiso   1.00
C697   C     0.05306   0.49338   0.75949   0.00000  Uiso   1.00
C698   C     0.17939   0.49944   0.55713   0.00000  Uiso   1.00
C699   C     0.19959   0.43181   0.56196   0.00000  Uiso   1.00
C700   C     0.28059   0.50694   0.74031   0.00000  Uiso   1.00
C701   C     0.14131   0.52788   0.92059   0.00000  Uiso   1.00
C702   C     0.32606   0.50867   0.73699   0.00000  Uiso   1.00
C703   C     0.00800   0.48995   0.76518   0.00000  Uiso   1.00
C704   C     0.18032   0.65580   0.73688   0.00000  Uiso   1.00
C705   C     0.15167   0.34512   0.76400   0.00000  Uiso   1.00
C706   C     0.15598   0.38922   0.76034   0.00000  Uiso   1.00
C707   C     0.17651   0.61120   0.74029   0.00000  Uiso   1.00
C708   C     0.13124   0.57973   0.98535   0.00000  Uiso   1.00
C709   C     0.18533   0.48097   0.62938   0.00000  Uiso   1.00
C710   C     0.14835   0.51814   0.87118   0.00000  Uiso   1.00
C711   C     0.19390   0.41852   0.51921   0.00000  Uiso   1.00
C712   C     0.19136   0.47176   0.58117   0.00000  Uiso   1.00
C713   C     0.13220   0.56861   0.94003   0.00000  Uiso   1.00
C714   C     0.31573   0.46723   0.80253   0.00000  Uiso   1.00
C715   C     0.20434   0.37733   0.50028   0.00000  Uiso   1.00
C716   C     0.12535   0.60011   0.91386   0.00000  Uiso   1.00
C717   C     0.11882   0.61956   0.50723   0.00000  Uiso   1.00
C718   C     0.12450   0.43411   0.90268   0.00000  Uiso   1.00
C719   C     0.14367   0.55289   0.50999   0.00000  Uiso   1.00
C720   C     0.15454   0.51287   0.99136   0.00000  Uiso   1.00
C721   C     0.14795   0.49847   0.94817   0.00000  Uiso   1.00
C722   C     0.17048   0.48630   0.51504   0.00000  Uiso   1.00
C723   C     0.17719   0.44484   0.99641   0.00000  Uiso   1.00
C724   C     0.16417   0.42953   0.95729   0.00000  Uiso   1.00
C725   C     0.14757   0.45504   0.93473   0.00000  Uiso   1.00
H726   H     0.14340   0.56404   0.54422   0.00000  Uiso   1.00
H727   H     0.20903   0.41052   0.58109   0.00000  Uiso   1.00
H728   H     0.20673   0.33701   0.71204   0.00000  Uiso   1.00
H729   H     0.12482   0.66473   0.78888   0.00000  Uiso   1.00
H730   H     0.16479   0.39681   0.94526   0.00000  Uiso   1.00
H731   H     0.17495   0.53012   0.57369   0.00000  Uiso   1.00
H732   H     0.01473   0.52573   0.71048   0.00000  Uiso   1.00
N733   N     0.29543   0.44908   0.83240   0.00000  Uiso   1.00
N734   N     0.21289   0.34444   0.98508   0.00000  Uiso   1.00
N735   N     0.11995   0.62537   0.89314   0.00000  Uiso   1.00
N736   N     0.10877   0.65133   0.52474   0.00000  Uiso   1.00
N737   N     0.10592   0.41722   0.87724   0.00000  Uiso   1.00
O738   O     0.16667   0.50000   0.75000   0.00000  Uiso   1.00
O739   O     0.15451   0.45970   0.65458   0.00000  Uiso   1.00
O740   O     0.12940   0.53724   0.84968   0.00000  Uiso   1.00
O741   O     0.20824   0.51092   0.64606   0.00000  Uiso   1.00
O742   O     0.17451   0.49213   0.84968   0.00000  Uiso   1.00
O743   O     0.17930   0.41352   0.78213   0.00000  Uiso   1.00
O744   O     0.14632   0.59418   0.77013   0.00000  Uiso   1.00
O745   O     0.07412   0.46625   0.73413   0.00000  Uiso   1.00
O746   O     0.26693   0.52605   0.71360   0.00000  Uiso   1.00
O747   O     0.07071   0.52211   0.78213   0.00000  Uiso   1.00
O748   O     0.25491   0.48559   0.77013   0.00000  Uiso   1.00
O749   O     0.13760   0.40277   0.73413   0.00000  Uiso   1.00
O750   O     0.20345   0.58953   0.71360   0.00000  Uiso   1.00
Zn751  Zn    0.19338   0.47327   0.78734   0.00000  Uiso   1.00
Zn752  Zn    0.13379   0.45791   0.71875   0.00000  Uiso   1.00
Zn753  Zn    0.21056   0.53109   0.70657   0.00000  Uiso   1.00
Zn754  Zn    0.12893   0.53773   0.78733   0.00000  Uiso   1.00
C755   C     0.38639   0.49338   0.75949   0.00000  Uiso   1.00
C756   C     0.51272   0.49944   0.55713   0.00000  Uiso   1.00
C757   C     0.53293   0.43181   0.56196   0.00000  Uiso   1.00
C758   C     0.61393   0.50694   0.74031   0.00000  Uiso   1.00
C759   C     0.47464   0.52788   0.92059   0.00000  Uiso   1.00
C760   C     0.65939   0.50867   0.73699   0.00000  Uiso   1.00
C761   C     0.34133   0.48995   0.76518   0.00000  Uiso   1.00
C762   C     0.51366   0.65580   0.73688   0.00000  Uiso   1.00
C763   C     0.48500   0.34512   0.76400   0.00000  Uiso   1.00
C764   C     0.48931   0.38922   0.76034   0.00000  Uiso   1.00
C765   C     0.50984   0.61120   0.74029   0.00000  Uiso   1.00
C766   C     0.46457   0.57973   0.98535   0.00000  Uiso   1.00
C767   C     0.51867   0.48097   0.62938   0.00000  Uiso   1.00
C768   C     0.48168   0.51814   0.87118   0.00000  Uiso   1.00
C769   C     0.52723   0.41852   0.51921   0.00000  Uiso   1.00
C770   C     0.52469   0.47176   0.58117   0.00000  Uiso   1.00
C771   C     0.46554   0.56861   0.94003   0.00000  Uiso   1.00
C772   C     0.64906   0.46723   0.80253   0.00000  Uiso   1.00
C773   C     0.53767   0.37733   0.50028   0.00000  Uiso   1.00
C774   C     0.45868   0.60011   0.91386   0.00000  Uiso   1.00
C775   C     0.45215   0.61956   0.50723   0.00000  Uiso   1.00
C776   C     0.45783   0.43411   0.90268   0.00000  Uiso   1.00
C777   C     0.47701   0.55289   0.50999   0.00000  Uiso   1.00
C778   C     0.48787   0.51287   0.99136   0.00000  Uiso   1.00
C779   C     0.48129   0.49847   0.94817   0.00000  Uiso   1.00
C780   C     0.50382   0.48630   0.51504   0.00000  Uiso   1.00
C781   C     0.51053   0.44484   0.99641   0.00000  Uiso   1.00
C782   C     0.49750   0.42953   0.95729   0.00000  Uiso   1.00
C783   C     0.48090   0.45504   0.93473   0.00000  Uiso   1.00
H784   H     0.47674   0.56404   0.54422   0.00000  Uiso   1.00
H785   H     0.54236   0.41052   0.58109   0.00000  Uiso   1.00
H786   H     0.54006   0.33701   0.71204   0.00000  Uiso   1.00
H787   H     0.45815   0.66473   0.78888   0.00000  Uiso   1.00
H788   H     0.49812   0.39681   0.94526   0.00000  Uiso   1.00
H789   H     0.50828   0.53012   0.57369   0.00000  Uiso   1.00
H790   H     0.34806   0.52573   0.71048   0.00000  Uiso   1.00
N791   N     0.62877   0.44908   0.83240   0.00000  Uiso   1.00
N792   N     0.54623   0.34444   0.98508   0.00000  Uiso   1.00
N793   N     0.45329   0.62537   0.89314   0.00000  Uiso   1.00
N794   N     0.44210   0.65133   0.52474   0.00000  Uiso   1.00
N795   N     0.43925   0.41722   0.87724   0.00000  Uiso   1.00
O796   O     0.50000   0.50000   0.75000   0.00000  Uiso   1.00
O797   O     0.48784   0.45970   0.65458   0.00000  Uiso   1.00
O798   O     0.46274   0.53724   0.84968   0.00000  Uiso   1.00
O799   O     0.54157   0.51092   0.64606   0.00000  Uiso   1.00
O800   O     0.50785   0.49213   0.84968   0.00000  Uiso   1.00
O801   O     0.51264   0.41352   0.78213   0.00000  Uiso   1.00
O802   O     0.47965   0.59418   0.77013   0.00000  Uiso   1.00
O803   O     0.40745   0.46625   0.73413   0.00000  Uiso   1.00
O804   O     0.60026   0.52605   0.71360   0.00000  Uiso   1.00
O805   O     0.40405   0.52211   0.78213   0.00000  Uiso   1.00
O806   O     0.58824   0.48559   0.77013   0.00000  Uiso   1.00
O807   O     0.47093   0.40277   0.73413   0.00000  Uiso   1.00
O808   O     0.53678   0.58953   0.71360   0.00000  Uiso   1.00
Zn809  Zn    0.52672   0.47327   0.78734   0.00000  Uiso   1.00
Zn810  Zn    0.46713   0.45791   0.71875   0.00000  Uiso   1.00
Zn811  Zn    0.54389   0.53109   0.70657   0.00000  Uiso   1.00
Zn812  Zn    0.46226   0.53773   0.78733   0.00000  Uiso   1.00
C813   C     0.71972   0.49338   0.75949   0.00000  Uiso   1.00
C814   C     0.84606   0.49944   0.55713   0.00000  Uiso   1.00
C815   C     0.86626   0.43181   0.56196   0.00000  Uiso   1.00
C816   C     0.94726   0.50694   0.74031   0.00000  Uiso   1.00
C817   C     0.80797   0.52788   0.92059   0.00000  Uiso   1.00
C818   C     0.99272   0.50867   0.73699   0.00000  Uiso   1.00
C819   C     0.67467   0.48995   0.76518   0.00000  Uiso   1.00
C820   C     0.84699   0.65580   0.73688   0.00000  Uiso   1.00
C821   C     0.81834   0.34512   0.76400   0.00000  Uiso   1.00
C822   C     0.82264   0.38922   0.76034   0.00000  Uiso   1.00
C823   C     0.84318   0.61120   0.74029   0.00000  Uiso   1.00
C824   C     0.79791   0.57973   0.98535   0.00000  Uiso   1.00
C825   C     0.85200   0.48097   0.62938   0.00000  Uiso   1.00
C826   C     0.81501   0.51814   0.87118   0.00000  Uiso   1.00
C827   C     0.86056   0.41852   0.51921   0.00000  Uiso   1.00
C828   C     0.85802   0.47176   0.58117   0.00000  Uiso   1.00
C829   C     0.79887   0.56861   0.94003   0.00000  Uiso   1.00
C830   C     0.98240   0.46723   0.80253   0.00000  Uiso   1.00
C831   C     0.87101   0.37733   0.50028   0.00000  Uiso   1.00
C832   C     0.79202   0.60011   0.91386   0.00000  Uiso   1.00
C833   C     0.78548   0.61956   0.50723   0.00000  Uiso   1.00
C834   C     0.79116   0.43411   0.90268   0.00000  Uiso   1.00
C835   C     0.81034   0.55289   0.50999   0.00000  Uiso   1.00
C836   C     0.82120   0.51287   0.99136   0.00000  Uiso   1.00
C837   C     0.81462   0.49847   0.94817   0.00000  Uiso   1.00
C838   C     0.83715   0.48630   0.51504   0.00000  Uiso   1.00
C839   C     0.84386   0.44484   0.99641   0.00000  Uiso   1.00
C840   C     0.83084   0.42953   0.95729   0.00000  Uiso   1.00
C841   C     0.81424   0.45504   0.93473   0.00000  Uiso   1.00
H842   H     0.81007   0.56404   0.54422   0.00000  Uiso   1.00
H843   H     0.87570   0.41052   0.58109   0.00000  Uiso   1.00
H844   H     0.87340   0.33701   0.71204   0.00000  Uiso   1.00
H845   H     0.79148   0.66473   0.78888   0.00000  Uiso   1.00
H846   H     0.83145   0.39681   0.94526   0.00000  Uiso   1.00
H847   H     0.84161   0.53012   0.57369   0.00000  Uiso   1.00
H848   H     0.68140   0.52573   0.71048   0.00000  Uiso   1.00
N849   N     0.96210   0.44908   0.83240   0.00000  Uiso   1.00
N850   N     0.87956   0.34444   0.98508   0.00000  Uiso   1.00
N851   N     0.78662   0.62537   0.89314   0.00000  Uiso   1.00
N852   N     0.77543   0.65133   0.52474   0.00000  Uiso   1.00
N853   N     0.77259   0.41722   0.87724   0.00000  Uiso   1.00
O854   O     0.83333   0.50000   0.75000   0.00000  Uiso   1.00
O855   O     0.82118   0.45970   0.65458   0.00000  Uiso   1.00
O856   O     0.79607   0.53724   0.84968   0.00000  Uiso   1.00
O857   O     0.87491   0.51092   0.64606   0.00000  Uiso   1.00
O858   O     0.84118   0.49213   0.84968   0.00000  Uiso   1.00
O859   O     0.84597   0.41352   0.78213   0.00000  Uiso   1.00
O860   O     0.81298   0.59418   0.77013   0.00000  Uiso   1.00
O861   O     0.74078   0.46625   0.73413   0.00000  Uiso   1.00
O862   O     0.93360   0.52605   0.71360   0.00000  Uiso   1.00
O863   O     0.73738   0.52211   0.78213   0.00000  Uiso   1.00
O864   O     0.92158   0.48559   0.77013   0.00000  Uiso   1.00
O865   O     0.80426   0.40277   0.73413   0.00000  Uiso   1.00
O866   O     0.87012   0.58953   0.71360   0.00000  Uiso   1.00
Zn867  Zn    0.86005   0.47327   0.78734   0.00000  Uiso   1.00
Zn868  Zn    0.80046   0.45791   0.71875   0.00000  Uiso   1.00
Zn869  Zn    0.87723   0.53109   0.70657   0.00000  Uiso   1.00
Zn870  Zn    0.79560   0.53773   0.78733   0.00000  Uiso   1.00
C871   C     0.05306   0.82671   0.75949   0.00000  Uiso   1.00
C872   C     0.17939   0.83277   0.55713   0.00000  Uiso   1.00
C873   C     0.19959   0.76515   0.56196   0.00000  Uiso   1.00
C874   C     0.28059   0.84027   0.74031   0.00000  Uiso   1.00
C875   C     0.14131   0.86121   0.92059   0.00000  Uiso   1.00
C876   C     0.32606   0.84201   0.73699   0.00000  Uiso   1.00
C877   C     0.00800   0.82329   0.76518   0.00000  Uiso   1.00
C878   C     0.18032   0.98913   0.73688   0.00000  Uiso   1.00
C879   C     0.15167   0.67845   0.76400   0.00000  Uiso   1.00
C880   C     0.15598   0.72256   0.76034   0.00000  Uiso   1.00
C881   C     0.17651   0.94454   0.74029   0.00000  Uiso   1.00
C882   C     0.13124   0.91306   0.98535   0.00000  Uiso   1.00
C883   C     0.18533   0.81430   0.62938   0.00000  Uiso   1.00
C884   C     0.14835   0.85147   0.87118   0.00000  Uiso   1.00
C885   C     0.19390   0.75186   0.51921   0.00000  Uiso   1.00
C886   C     0.19136   0.80509   0.58117   0.00000  Uiso   1.00
C887   C     0.13220   0.90194   0.94003   0.00000  Uiso   1.00
C888   C     0.31573   0.80056   0.80253   0.00000  Uiso   1.00
C889   C     0.20434   0.71067   0.50028   0.00000  Uiso   1.00
C890   C     0.12535   0.93345   0.91386   0.00000  Uiso   1.00
C891   C     0.11882   0.95289   0.50723   0.00000  Uiso   1.00
C892   C     0.12450   0.76744   0.90268   0.00000  Uiso   1.00
C893   C     0.14367   0.88622   0.50999   0.00000  Uiso   1.00
C894   C     0.15454   0.84621   0.99136   0.00000  Uiso   1.00
C895   C     0.14795   0.83180   0.94817   0.00000  Uiso   1.00
C896   C     0.17048   0.81963   0.51504   0.00000  Uiso   1.00
C897   C     0.17719   0.77817   0.99641   0.00000  Uiso   1.00
C898   C     0.16417   0.76287   0.95729   0.00000  Uiso   1.00
C899   C     0.14757   0.78837   0.93473   0.00000  Uiso   1.00
H900   H     0.14340   0.89737   0.54422   0.00000  Uiso   1.00
H901   H     0.20903   0.74385   0.58109   0.00000  Uiso   1.00
H902   H     0.20673   0.67034   0.71204   0.00000  Uiso   1.00
H903   H     0.12482   0.99806   0.78888   0.00000  Uiso   1.00
H904   H     0.16479   0.73015   0.94526   0.00000  Uiso   1.00
H905   H     0.17495   0.86346   0.57369   0.00000  Uiso   1.00
H906   H     0.01473   0.85906   0.71048   0.00000  Uiso   1.00
N907   N     0.29543   0.78241   0.83240   0.00000  Uiso   1.00
N908   N     0.21289   0.67777   0.98508   0.00000  Uiso   1.00
N909   N     0.11995   0.95871   0.89314   0.00000  Uiso   1.00
N910   N     0.10877   0.98467   0.52474   0.00000  Uiso   1.00
N911   N     0.10592   0.75055   0.87724   0.00000  Uiso   1.00
O912   O     0.16667   0.83333   0.75000   0.00000  Uiso   1.00
O913   O     0.15451   0.79304   0.65458   0.00000  Uiso   1.00
O914   O     0.12940   0.87058   0.84968   0.00000  Uiso   1.00
O915   O     0.20824   0.84425   0.64606   0.00000  Uiso   1.00
O916   O     0.17451   0.82546   0.84968   0.00000  Uiso   1.00
O917   O     0.17930   0.74686   0.78213   0.00000  Uiso   1.00
O918   O     0.14632   0.92751   0.77013   0.00000  Uiso   1.00
O919   O     0.07412   0.79958   0.73413   0.00000  Uiso   1.00
O920   O     0.26693   0.85939   0.71360   0.00000  Uiso   1.00
O921   O     0.07071   0.85544   0.78213   0.00000  Uiso   1.00
O922   O     0.25491   0.81892   0.77013   0.00000  Uiso   1.00
O923   O     0.13760   0.73610   0.73413   0.00000  Uiso   1.00
O924   O     0.20345   0.92286   0.71360   0.00000  Uiso   1.00
Zn925  Zn    0.19338   0.80661   0.78734   0.00000  Uiso   1.00
Zn926  Zn    0.13379   0.79124   0.71875   0.00000  Uiso   1.00
Zn927  Zn    0.21056   0.86442   0.70657   0.00000  Uiso   1.00
Zn928  Zn    0.12893   0.87106   0.78733   0.00000  Uiso   1.00
C929   C     0.38639   0.82671   0.75949   0.00000  Uiso   1.00
C930   C     0.51272   0.83277   0.55713   0.00000  Uiso   1.00
C931   C     0.53293   0.76515   0.56196   0.00000  Uiso   1.00
C932   C     0.61393   0.84027   0.74031   0.00000  Uiso   1.00
C933   C     0.47464   0.86121   0.92059   0.00000  Uiso   1.00
C934   C     0.65939   0.84201   0.73699   0.00000  Uiso   1.00
C935   C     0.34133   0.82329   0.76518   0.00000  Uiso   1.00
C936   C     0.51366   0.98913   0.73688   0.00000  Uiso   1.00
C937   C     0.48500   0.67845   0.76400   0.00000  Uiso   1.00
C938   C     0.48931   0.72256   0.76034   0.00000  Uiso   1.00
C939   C     0.50984   0.94454   0.74029   0.00000  Uiso   1.00
C940   C     0.46457   0.91306   0.98535   0.00000  Uiso   1.00
C941   C     0.51867   0.81430   0.62938   0.00000  Uiso   1.00
C942   C     0.48168   0.85147   0.87118   0.00000  Uiso   1.00
C943   C     0.52723   0.75186   0.51921   0.00000  Uiso   1.00
C944   C     0.52469   0.80509   0.58117   0.00000  Uiso   1.00
C945   C     0.46554   0.90194   0.94003   0.00000  Uiso   1.00
C946   C     0.64906   0.80056   0.80253   0.00000  Uiso   1.00
C947   C     0.53767   0.71067   0.50028   0.00000  Uiso   1.00
C948   C     0.45868   0.93345   0.91386   0.00000  Uiso   1.00
C949   C     0.45215   0.95289   0.50723   0.00000  Uiso   1.00
C950   C     0.45783   0.76744   0.90268   0.00000  Uiso   1.00
C951   C     0.47701   0.88622   0.50999   0.00000  Uiso   1.00
C952   C     0.48787   0.84621   0.99136   0.00000  Uiso   1.00
C953   C     0.48129   0.83180   0.94817   0.00000  Uiso   1.00
C954   C     0.50382   0.81963   0.51504   0.00000  Uiso   1.00
C955   C     0.51053   0.77817   0.99641   0.00000  Uiso   1.00
C956   C     0.49750   0.76287   0.95729   0.00000  Uiso   1.00
C957   C     0.48090   0.78837   0.93473   0.00000  Uiso   1.00
H958   H     0.47674   0.89737   0.54422   0.00000  Uiso   1.00
H959   H     0.54236   0.74385   0.58109   0.00000  Uiso   1.00
H960   H     0.54006   0.67034   0.71204   0.00000  Uiso   1.00
H961   H     0.45815   0.99806   0.78888   0.00000  Uiso   1.00
H962   H     0.49812   0.73015   0.94526   0.00000  Uiso   1.00
H963   H     0.50828   0.86346   0.57369   0.00000  Uiso   1.00
H964   H     0.34806   0.85906   0.71048   0.00000  Uiso   1.00
N965   N     0.62877   0.78241   0.83240   0.00000  Uiso   1.00
N966   N     0.54623   0.67777   0.98508   0.00000  Uiso   1.00
N967   N     0.45329   0.95871   0.89314   0.00000  Uiso   1.00
N968   N     0.44210   0.98467   0.52474   0.00000  Uiso   1.00
N969   N     0.43925   0.75055   0.87724   0.00000  Uiso   1.00
O970   O     0.50000   0.83333   0.75000   0.00000  Uiso   1.00
O971   O     0.48784   0.79304   0.65458   0.00000  Uiso   1.00
O972   O     0.46274   0.87058   0.84968   0.00000  Uiso   1.00
O973   O     0.54157   0.84425   0.64606   0.00000  Uiso   1.00
O974   O     0.50785   0.82546   0.84968   0.00000  Uiso   1.00
O975   O     0.51264   0.74686   0.78213   0.00000  Uiso   1.00
O976   O     0.47965   0.92751   0.77013   0.00000  Uiso   1.00
O977   O     0.40745   0.79958   0.73413   0.00000  Uiso   1.00
O978   O     0.60026   0.85939   0.71360   0.00000  Uiso   1.00
O979   O     0.40405   0.85544   0.78213   0.00000  Uiso   1.00
O980   O     0.58824   0.81892   0.77013   0.00000  Uiso   1.00
O981   O     0.47093   0.73610   0.73413   0.00000  Uiso   1.00
O982   O     0.53678   0.92286   0.71360   0.00000  Uiso   1.00
Zn983  Zn    0.52672   0.80661   0.78734   0.00000  Uiso   1.00
Zn984  Zn    0.46713   0.79124   0.71875   0.00000  Uiso   1.00
Zn985  Zn    0.54389   0.86442   0.70657   0.00000  Uiso   1.00
Zn986  Zn    0.46226   0.87106   0.78733   0.00000  Uiso   1.00
C987   C     0.71972   0.82671   0.75949   0.00000  Uiso   1.00
C988   C     0.84606   0.83277   0.55713   0.00000  Uiso   1.00
C989   C     0.86626   0.76515   0.56196   0.00000  Uiso   1.00
C990   C     0.94726   0.84027   0.74031   0.00000  Uiso   1.00
C991   C     0.80797   0.86121   0.92059   0.00000  Uiso   1.00
C992   C     0.99272   0.84201   0.73699   0.00000  Uiso   1.00
C993   C     0.67467   0.82329   0.76518   0.00000  Uiso   1.00
C994   C     0.84699   0.98913   0.73688   0.00000  Uiso   1.00
C995   C     0.81834   0.67845   0.76400   0.00000  Uiso   1.00
C996   C     0.82264   0.72256   0.76034   0.00000  Uiso   1.00
C997   C     0.84318   0.94454   0.74029   0.00000  Uiso   1.00
C998   C     0.79791   0.91306   0.98535   0.00000  Uiso   1.00
C999   C     0.85200   0.81430   0.62938   0.00000  Uiso   1.00
C1000  C     0.81501   0.85147   0.87118   0.00000  Uiso   1.00
C1001  C     0.86056   0.75186   0.51921   0.00000  Uiso   1.00
C1002  C     0.85802   0.80509   0.58117   0.00000  Uiso   1.00
C1003  C     0.79887   0.90194   0.94003   0.00000  Uiso   1.00
C1004  C     0.98240   0.80056   0.80253   0.00000  Uiso   1.00
C1005  C     0.87101   0.71067   0.50028   0.00000  Uiso   1.00
C1006  C     0.79202   0.93345   0.91386   0.00000  Uiso   1.00
C1007  C     0.78548   0.95289   0.50723   0.00000  Uiso   1.00
C1008  C     0.79116   0.76744   0.90268   0.00000  Uiso   1.00
C1009  C     0.81034   0.88622   0.50999   0.00000  Uiso   1.00
C1010  C     0.82120   0.84621   0.99136   0.00000  Uiso   1.00
C1011  C     0.81462   0.83180   0.94817   0.00000  Uiso   1.00
C1012  C     0.83715   0.81963   0.51504   0.00000  Uiso   1.00
C1013  C     0.84386   0.77817   0.99641   0.00000  Uiso   1.00
C1014  C     0.83084   0.76287   0.95729   0.00000  Uiso   1.00
C1015  C     0.81424   0.78837   0.93473   0.00000  Uiso   1.00
H1016  H     0.81007   0.89737   0.54422   0.00000  Uiso   1.00
H1017  H     0.87570   0.74385   0.58109   0.00000  Uiso   1.00
H1018  H     0.87340   0.67034   0.71204   0.00000  Uiso   1.00
H1019  H     0.79148   0.99806   0.78888   0.00000  Uiso   1.00
H1020  H     0.83145   0.73015   0.94526   0.00000  Uiso   1.00
H1021  H     0.84161   0.86346   0.57369   0.00000  Uiso   1.00
H1022  H     0.68140   0.85906   0.71048   0.00000  Uiso   1.00
N1023  N     0.96210   0.78241   0.83240   0.00000  Uiso   1.00
N1024  N     0.87956   0.67777   0.98508   0.00000  Uiso   1.00
N1025  N     0.78662   0.95871   0.89314   0.00000  Uiso   1.00
N1026  N     0.77543   0.98467   0.52474   0.00000  Uiso   1.00
N1027  N     0.77259   0.75055   0.87724   0.00000  Uiso   1.00
O1028  O     0.83333   0.83333   0.75000   0.00000  Uiso   1.00
O1029  O     0.82118   0.79304   0.65458   0.00000  Uiso   1.00
O1030  O     0.79607   0.87058   0.84968   0.00000  Uiso   1.00
O1031  O     0.87491   0.84425   0.64606   0.00000  Uiso   1.00
O1032  O     0.84118   0.82546   0.84968   0.00000  Uiso   1.00
O1033  O     0.84597   0.74686   0.78213   0.00000  Uiso   1.00
O1034  O     0.81298   0.92751   0.77013   0.00000  Uiso   1.00
O1035  O     0.74078   0.79958   0.73413   0.00000  Uiso   1.00
O1036  O     0.93360   0.85939   0.71360   0.00000  Uiso   1.00
O1037  O     0.73738   0.85544   0.78213   0.00000  Uiso   1.00
O1038  O     0.92158   0.81892   0.77013   0.00000  Uiso   1.00
O1039  O     0.80426   0.73610   0.73413   0.00000  Uiso   1.00
O1040  O     0.87012   0.92286   0.71360   0.00000  Uiso   1.00
Zn1041 Zn    0.86005   0.80661   0.78734   0.00000  Uiso   1.00
Zn1042 Zn    0.80046   0.79124   0.71875   0.00000  Uiso   1.00
Zn1043 Zn    0.87723   0.86442   0.70657   0.00000  Uiso   1.00
Zn1044 Zn    0.79560   0.87106   0.78733   0.00000  Uiso   1.00
loop_
_geom_bond_atom_site_label_1
_geom_bond_atom_site_label_2
_geom_bond_distance
_geom_bond_site_symmetry_2
_ccdc_geom_bond_type
C1     O51     1.263   .     A
C1     C7      1.428   .     S
C1     O49     1.264   .     A
C2     H35     1.076   .     S
C2     C16     1.388   .     A
C2     C26     1.412   .     A
C3     H31     1.085   .     S
C3     C15     1.393   .     A
C3     C16     1.394   .     A
C4     O52     1.272   .     A
C4     C6      1.458   .     S
C4     O50     1.289   .     A
C5     C14     1.488   .     S
C5     C25     1.427   .     A
C5     C17     1.425   .     A
C6     C65     1.349   .     S
C6     H94     1.088   .     S
C7     C122    1.349   1_455 S
C7     C134    1.450   1_455 S
C8     C11     1.449   .     S
C8     C183    1.330   .     S
C8     H206    1.088   .     S
C9     C10     1.434   .     S
C9     C356    1.330   1_545 S
C9     H381    1.087   1_545 S
C10    O53     1.276   .     A
C10    O47     1.276   .     A
C11    O54     1.272   .     A
C11    O48     1.274   .     A
C12    C17     1.400   .     A
C12    C543    1.448   .     S
C12    C545    1.388   .     S
C13    C16     1.453   .     S
C13    O43     1.273   .     A
C13    O45     1.283   .     A
C14    O44     1.279   .     A
C14    O46     1.292   .     A
C15    C19     1.446   .     S
C15    C549    1.416   1_554 S
C17    C20     1.452   .     S
C18    N37     1.158   .     T
C18    C65     1.450   .     S
C19    N560    1.157   1_554 S
C20    N39     1.158   .     T
C21    N40     1.157   .     T
C21    C534    1.448   1_554 S
C22    C29     1.448   .     S
C22    N41     1.158   .     T
C23    H30     1.076   .     S
C23    C534    1.388   1_554 S
C23    C546    1.413   1_554 S
C24    C25     1.423   .     A
C24    C545    1.413   .     S
C24    C548    1.426   .     S
C25    C29     1.421   .     A
C26    C546    1.426   1_554 S
C26    C549    1.424   1_554 S
C27    C28     1.399   .     A
C27    C548    1.424   .     S
C27    C537    1.416   .     S
C28    H34     1.085   .     S
C28    C29     1.390   .     A
H32    C356    1.088   1_545 S
H33    C183    1.087   .     S
H36    C122    1.088   1_455 S
N38    C541    1.157   .     S
O42    Zn55    1.958   .     S
O42    Zn58    1.930   .     S
O42    Zn57    1.946   .     S
O42    Zn56    1.939   .     S
O43    Zn56    1.930   .     S
O44    Zn58    1.935   .     S
O45    Zn57    1.926   .     S
O46    Zn55    1.921   .     S
O47    Zn55    1.925   .     S
O48    Zn58    1.933   .     S
O49    Zn56    1.938   .     S
O50    Zn57    1.945   .     S
O51    Zn58    1.943   .     S
O52    Zn55    1.939   .     S
O53    Zn56    1.935   .     S
O54    Zn57    1.925   .     S
C59    O109    1.263   .     A
C59    C65     1.428   .     S
C59    O107    1.264   .     A
C60    H93     1.076   .     S
C60    C74     1.388   .     A
C60    C84     1.412   .     A
C61    H89     1.085   .     S
C61    C73     1.393   .     A
C61    C74     1.394   .     A
C62    O110    1.272   .     A
C62    C64     1.458   .     S
C62    O108    1.289   .     A
C63    C72     1.488   .     S
C63    C83     1.427   .     A
C63    C75     1.425   .     A
C64    C123    1.349   .     S
C64    H152    1.088   .     S
C66    C69     1.449   .     S
C66    C241    1.330   .     S
C66    H264    1.088   .     S
C67    C68     1.434   .     S
C67    C414    1.330   1_545 S
C67    H439    1.087   1_545 S
C68    O111    1.276   .     A
C68    O105    1.276   .     A
C69    O112    1.272   .     A
C69    O106    1.274   .     A
C70    C75     1.400   .     A
C70    C601    1.448   .     S
C70    C603    1.388   .     S
C71    C74     1.453   .     S
C71    O101    1.273   .     A
C71    O103    1.283   .     A
C72    O102    1.279   .     A
C72    O104    1.292   .     A
C73    C77     1.446   .     S
C73    C607    1.416   1_554 S
C75    C78     1.452   .     S
C76    N95     1.158   .     T
C76    C123    1.450   .     S
C77    N618    1.157   1_554 S
C78    N97     1.158   .     T
C79    N98     1.157   .     T
C79    C592    1.448   1_554 S
C80    C87     1.448   .     S
C80    N99     1.158   .     T
C81    H88     1.076   .     S
C81    C592    1.388   1_554 S
C81    C604    1.413   1_554 S
C82    C83     1.423   .     A
C82    C603    1.413   .     S
C82    C606    1.426   .     S
C83    C87     1.421   .     A
C84    C604    1.426   1_554 S
C84    C607    1.424   1_554 S
C85    C86     1.399   .     A
C85    C606    1.424   .     S
C85    C595    1.416   .     S
C86    H92     1.085   .     S
C86    C87     1.390   .     A
H90    C414    1.088   1_545 S
H91    C241    1.087   .     S
N96    C599    1.157   .     S
O100   Zn113   1.958   .     S
O100   Zn116   1.930   .     S
O100   Zn115   1.946   .     S
O100   Zn114   1.939   .     S
O101   Zn114   1.930   .     S
O102   Zn116   1.935   .     S
O103   Zn115   1.926   .     S
O104   Zn113   1.921   .     S
O105   Zn113   1.925   .     S
O106   Zn116   1.933   .     S
O107   Zn114   1.938   .     S
O108   Zn115   1.945   .     S
O109   Zn116   1.943   .     S
O110   Zn113   1.939   .     S
O111   Zn114   1.935   .     S
O112   Zn115   1.925   .     S
C117   O167    1.263   .     A
C117   C123    1.428   .     S
C117   O165    1.264   .     A
C118   H151    1.076   .     S
C118   C132    1.388   .     A
C118   C142    1.412   .     A
C119   H147    1.085   .     S
C119   C131    1.393   .     A
C119   C132    1.394   .     A
C120   O168    1.272   .     A
C120   C122    1.458   .     S
C120   O166    1.289   .     A
C121   C130    1.488   .     S
C121   C141    1.427   .     A
C121   C133    1.425   .     A
C122   C7      1.349   1_655 S
C122   H36     1.088   1_655 S
C124   C127    1.449   .     S
C124   C299    1.330   .     S
C124   H322    1.088   .     S
C125   C126    1.434   .     S
C125   C472    1.330   1_545 S
C125   H497    1.087   1_545 S
C126   O169    1.276   .     A
C126   O163    1.276   .     A
C127   O170    1.272   .     A
C127   O164    1.274   .     A
C128   C133    1.400   .     A
C128   C659    1.448   .     S
C128   C661    1.388   .     S
C129   C132    1.453   .     S
C129   O159    1.273   .     A
C129   O161    1.283   .     A
C130   O160    1.279   .     A
C130   O162    1.292   .     A
C131   C135    1.446   .     S
C131   C665    1.416   1_554 S
C133   C136    1.452   .     S
C134   N153    1.158   .     T
C134   C7      1.450   1_655 S
C135   N676    1.157   1_554 S
C136   N155    1.158   .     T
C137   N156    1.157   .     T
C137   C650    1.448   1_554 S
C138   C145    1.448   .     S
C138   N157    1.158   .     T
C139   H146    1.076   .     S
C139   C650    1.388   1_554 S
C139   C662    1.413   1_554 S
C140   C141    1.423   .     A
C140   C661    1.413   .     S
C140   C664    1.426   .     S
C141   C145    1.421   .     A
C142   C662    1.426   1_554 S
C142   C665    1.424   1_554 S
C143   C144    1.399   .     A
C143   C664    1.424   .     S
C143   C653    1.416   .     S
C144   H150    1.085   .     S
C144   C145    1.390   .     A
H148   C472    1.088   1_545 S
H149   C299    1.087   .     S
N154   C657    1.157   .     S
O158   Zn171   1.958   .     S
O158   Zn174   1.930   .     S
O158   Zn173   1.946   .     S
O158   Zn172   1.939   .     S
O159   Zn172   1.930   .     S
O160   Zn174   1.935   .     S
O161   Zn173   1.926   .     S
O162   Zn171   1.921   .     S
O163   Zn171   1.925   .     S
O164   Zn174   1.933   .     S
O165   Zn172   1.938   .     S
O166   Zn173   1.945   .     S
O167   Zn174   1.943   .     S
O168   Zn171   1.939   .     S
O169   Zn172   1.935   .     S
O170   Zn173   1.925   .     S
C175   O225    1.263   .     A
C175   C181    1.428   .     S
C175   O223    1.264   .     A
C176   H209    1.076   .     S
C176   C190    1.388   .     A
C176   C200    1.412   .     A
C177   H205    1.085   .     S
C177   C189    1.393   .     A
C177   C190    1.394   .     A
C178   O226    1.272   .     A
C178   C180    1.458   .     S
C178   O224    1.289   .     A
C179   C188    1.488   .     S
C179   C199    1.427   .     A
C179   C191    1.425   .     A
C180   C239    1.349   .     S
C180   H268    1.088   .     S
C181   C296    1.349   1_455 S
C181   C308    1.450   1_455 S
C182   C185    1.449   .     S
C182   C357    1.330   .     S
C182   H380    1.088   .     S
C183   C184    1.434   .     S
C184   O227    1.276   .     A
C184   O221    1.276   .     A
C185   O228    1.272   .     A
C185   O222    1.274   .     A
C186   C191    1.400   .     A
C186   C717    1.448   .     S
C186   C719    1.388   .     S
C187   C190    1.453   .     S
C187   O217    1.273   .     A
C187   O219    1.283   .     A
C188   O218    1.279   .     A
C188   O220    1.292   .     A
C189   C193    1.446   .     S
C189   C723    1.416   1_554 S
C191   C194    1.452   .     S
C192   N211    1.158   .     T
C192   C239    1.450   .     S
C193   N734    1.157   1_554 S
C194   N213    1.158   .     T
C195   N214    1.157   .     T
C195   C708    1.448   1_554 S
C196   C203    1.448   .     S
C196   N215    1.158   .     T
C197   H204    1.076   .     S
C197   C708    1.388   1_554 S
C197   C720    1.413   1_554 S
C198   C199    1.423   .     A
C198   C719    1.413   .     S
C198   C722    1.426   .     S
C199   C203    1.421   .     A
C200   C720    1.426   1_554 S
C200   C723    1.424   1_554 S
C201   C202    1.399   .     A
C201   C722    1.424   .     S
C201   C711    1.416   .     S
C202   H208    1.085   .     S
C202   C203    1.390   .     A
H207   C357    1.087   .     S
H210   C296    1.088   1_455 S
N212   C715    1.157   .     S
O216   Zn229   1.958   .     S
O216   Zn232   1.930   .     S
O216   Zn231   1.946   .     S
O216   Zn230   1.939   .     S
O217   Zn230   1.930   .     S
O218   Zn232   1.935   .     S
O219   Zn231   1.926   .     S
O220   Zn229   1.921   .     S
O221   Zn229   1.925   .     S
O222   Zn232   1.933   .     S
O223   Zn230   1.938   .     S
O224   Zn231   1.945   .     S
O225   Zn232   1.943   .     S
O226   Zn229   1.939   .     S
O227   Zn230   1.935   .     S
O228   Zn231   1.925   .     S
C233   O283    1.263   .     A
C233   C239    1.428   .     S
C233   O281    1.264   .     A
C234   H267    1.076   .     S
C234   C248    1.388   .     A
C234   C258    1.412   .     A
C235   H263    1.085   .     S
C235   C247    1.393   .     A
C235   C248    1.394   .     A
C236   O284    1.272   .     A
C236   C238    1.458   .     S
C236   O282    1.289   .     A
C237   C246    1.488   .     S
C237   C257    1.427   .     A
C237   C249    1.425   .     A
C238   C297    1.349   .     S
C238   H326    1.088   .     S
C240   C243    1.449   .     S
C240   C415    1.330   .     S
C240   H438    1.088   .     S
C241   C242    1.434   .     S
C242   O285    1.276   .     A
C242   O279    1.276   .     A
C243   O286    1.272   .     A
C243   O280    1.274   .     A
C244   C249    1.400   .     A
C244   C775    1.448   .     S
C244   C777    1.388   .     S
C245   C248    1.453   .     S
C245   O275    1.273   .     A
C245   O277    1.283   .     A
C246   O276    1.279   .     A
C246   O278    1.292   .     A
C247   C251    1.446   .     S
C247   C781    1.416   1_554 S
C249   C252    1.452   .     S
C250   N269    1.158   .     T
C250   C297    1.450   .     S
C251   N792    1.157   1_554 S
C252   N271    1.158   .     T
C253   N272    1.157   .     T
C253   C766    1.448   1_554 S
C254   C261    1.448   .     S
C254   N273    1.158   .     T
C255   H262    1.076   .     S
C255   C766    1.388   1_554 S
C255   C778    1.413   1_554 S
C256   C257    1.423   .     A
C256   C777    1.413   .     S
C256   C780    1.426   .     S
C257   C261    1.421   .     A
C258   C778    1.426   1_554 S
C258   C781    1.424   1_554 S
C259   C260    1.399   .     A
C259   C780    1.424   .     S
C259   C769    1.416   .     S
C260   H266    1.085   .     S
C260   C261    1.390   .     A
H265   C415    1.087   .     S
N270   C773    1.157   .     S
O274   Zn287   1.958   .     S
O274   Zn290   1.930   .     S
O274   Zn289   1.946   .     S
O274   Zn288   1.939   .     S
O275   Zn288   1.930   .     S
O276   Zn290   1.935   .     S
O277   Zn289   1.926   .     S
O278   Zn287   1.921   .     S
O279   Zn287   1.925   .     S
O280   Zn290   1.933   .     S
O281   Zn288   1.938   .     S
O282   Zn289   1.945   .     S
O283   Zn290   1.943   .     S
O284   Zn287   1.939   .     S
O285   Zn288   1.935   .     S
O286   Zn289   1.925   .     S
C291   O341    1.263   .     A
C291   C297    1.428   .     S
C291   O339    1.264   .     A
C292   H325    1.076   .     S
C292   C306    1.388   .     A
C292   C316    1.412   .     A
C293   H321    1.085   .     S
C293   C305    1.393   .     A
C293   C306    1.394   .     A
C294   O342    1.272   .     A
C294   C296    1.458   .     S
C294   O340    1.289   .     A
C295   C304    1.488   .     S
C295   C315    1.427   .     A
C295   C307    1.425   .     A
C296   C181    1.349   1_655 S
C296   H210    1.088   1_655 S
C298   C301    1.449   .     S
C298   C473    1.330   .     S
C298   H496    1.088   .     S
C299   C300    1.434   .     S
C300   O343    1.276   .     A
C300   O337    1.276   .     A
C301   O344    1.272   .     A
C301   O338    1.274   .     A
C302   C307    1.400   .     A
C302   C833    1.448   .     S
C302   C835    1.388   .     S
C303   C306    1.453   .     S
C303   O333    1.273   .     A
C303   O335    1.283   .     A
C304   O334    1.279   .     A
C304   O336    1.292   .     A
C305   C309    1.446   .     S
C305   C839    1.416   1_554 S
C307   C310    1.452   .     S
C308   N327    1.158   .     T
C308   C181    1.450   1_655 S
C309   N850    1.157   1_554 S
C310   N329    1.158   .     T
C311   N330    1.157   .     T
C311   C824    1.448   1_554 S
C312   C319    1.448   .     S
C312   N331    1.158   .     T
C313   H320    1.076   .     S
C313   C824    1.388   1_554 S
C313   C836    1.413   1_554 S
C314   C315    1.423   .     A
C314   C835    1.413   .     S
C314   C838    1.426   .     S
C315   C319    1.421   .     A
C316   C836    1.426   1_554 S
C316   C839    1.424   1_554 S
C317   C318    1.399   .     A
C317   C838    1.424   .     S
C317   C827    1.416   .     S
C318   H324    1.085   .     S
C318   C319    1.390   .     A
H323   C473    1.087   .     S
N328   C831    1.157   .     S
O332   Zn345   1.958   .     S
O332   Zn348   1.930   .     S
O332   Zn347   1.946   .     S
O332   Zn346   1.939   .     S
O333   Zn346   1.930   .     S
O334   Zn348   1.935   .     S
O335   Zn347   1.926   .     S
O336   Zn345   1.921   .     S
O337   Zn345   1.925   .     S
O338   Zn348   1.933   .     S
O339   Zn346   1.938   .     S
O340   Zn347   1.945   .     S
O341   Zn348   1.943   .     S
O342   Zn345   1.939   .     S
O343   Zn346   1.935   .     S
O344   Zn347   1.925   .     S
C349   O399    1.263   .     A
C349   C355    1.428   .     S
C349   O397    1.264   .     A
C350   H383    1.076   .     S
C350   C364    1.388   .     A
C350   C374    1.412   .     A
C351   H379    1.085   .     S
C351   C363    1.393   .     A
C351   C364    1.394   .     A
C352   O400    1.272   .     A
C352   C354    1.458   .     S
C352   O398    1.289   .     A
C353   C362    1.488   .     S
C353   C373    1.427   .     A
C353   C365    1.425   .     A
C354   C413    1.349   .     S
C354   H442    1.088   .     S
C355   C470    1.349   1_455 S
C355   C482    1.450   1_455 S
C356   C359    1.449   .     S
C356   C9      1.330   1_565 S
C356   H32     1.088   1_565 S
C357   C358    1.434   .     S
C358   O401    1.276   .     A
C358   O395    1.276   .     A
C359   O402    1.272   .     A
C359   O396    1.274   .     A
C360   C365    1.400   .     A
C360   C891    1.448   .     S
C360   C893    1.388   .     S
C361   C364    1.453   .     S
C361   O391    1.273   .     A
C361   O393    1.283   .     A
C362   O392    1.279   .     A
C362   O394    1.292   .     A
C363   C367    1.446   .     S
C363   C897    1.416   1_554 S
C365   C368    1.452   .     S
C366   N385    1.158   .     T
C366   C413    1.450   .     S
C367   N908    1.157   1_554 S
C368   N387    1.158   .     T
C369   N388    1.157   .     T
C369   C882    1.448   1_554 S
C370   C377    1.448   .     S
C370   N389    1.158   .     T
C371   H378    1.076   .     S
C371   C882    1.388   1_554 S
C371   C894    1.413   1_554 S
C372   C373    1.423   .     A
C372   C893    1.413   .     S
C372   C896    1.426   .     S
C373   C377    1.421   .     A
C374   C894    1.426   1_554 S
C374   C897    1.424   1_554 S
C375   C376    1.399   .     A
C375   C896    1.424   .     S
C375   C885    1.416   .     S
C376   H382    1.085   .     S
C376   C377    1.390   .     A
H381   C9      1.087   1_565 S
H384   C470    1.088   1_455 S
N386   C889    1.157   .     S
O390   Zn403   1.958   .     S
O390   Zn406   1.930   .     S
O390   Zn405   1.946   .     S
O390   Zn404   1.939   .     S
O391   Zn404   1.930   .     S
O392   Zn406   1.935   .     S
O393   Zn405   1.926   .     S
O394   Zn403   1.921   .     S
O395   Zn403   1.925   .     S
O396   Zn406   1.933   .     S
O397   Zn404   1.938   .     S
O398   Zn405   1.945   .     S
O399   Zn406   1.943   .     S
O400   Zn403   1.939   .     S
O401   Zn404   1.935   .     S
O402   Zn405   1.925   .     S
C407   O457    1.263   .     A
C407   C413    1.428   .     S
C407   O455    1.264   .     A
C408   H441    1.076   .     S
C408   C422    1.388   .     A
C408   C432    1.412   .     A
C409   H437    1.085   .     S
C409   C421    1.393   .     A
C409   C422    1.394   .     A
C410   O458    1.272   .     A
C410   C412    1.458   .     S
C410   O456    1.289   .     A
C411   C420    1.488   .     S
C411   C431    1.427   .     A
C411   C423    1.425   .     A
C412   C471    1.349   .     S
C412   H500    1.088   .     S
C414   C417    1.449   .     S
C414   C67     1.330   1_565 S
C414   H90     1.088   1_565 S
C415   C416    1.434   .     S
C416   O459    1.276   .     A
C416   O453    1.276   .     A
C417   O460    1.272   .     A
C417   O454    1.274   .     A
C418   C423    1.400   .     A
C418   C949    1.448   .     S
C418   C951    1.388   .     S
C419   C422    1.453   .     S
C419   O449    1.273   .     A
C419   O451    1.283   .     A
C420   O450    1.279   .     A
C420   O452    1.292   .     A
C421   C425    1.446   .     S
C421   C955    1.416   1_554 S
C423   C426    1.452   .     S
C424   N443    1.158   .     T
C424   C471    1.450   .     S
C425   N966    1.157   1_554 S
C426   N445    1.158   .     T
C427   N446    1.157   .     T
C427   C940    1.448   1_554 S
C428   C435    1.448   .     S
C428   N447    1.158   .     T
C429   H436    1.076   .     S
C429   C940    1.388   1_554 S
C429   C952    1.413   1_554 S
C430   C431    1.423   .     A
C430   C951    1.413   .     S
C430   C954    1.426   .     S
C431   C435    1.421   .     A
C432   C952    1.426   1_554 S
C432   C955    1.424   1_554 S
C433   C434    1.399   .     A
C433   C954    1.424   .     S
C433   C943    1.416   .     S
C434   H440    1.085   .     S
C434   C435    1.390   .     A
H439   C67     1.087   1_565 S
N444   C947    1.157   .     S
O448   Zn461   1.958   .     S
O448   Zn464   1.930   .     S
O448   Zn463   1.946   .     S
O448   Zn462   1.939   .     S
O449   Zn462   1.930   .     S
O450   Zn464   1.935   .     S
O451   Zn463   1.926   .     S
O452   Zn461   1.921   .     S
O453   Zn461   1.925   .     S
O454   Zn464   1.933   .     S
O455   Zn462   1.938   .     S
O456   Zn463   1.945   .     S
O457   Zn464   1.943   .     S
O458   Zn461   1.939   .     S
O459   Zn462   1.935   .     S
O460   Zn463   1.925   .     S
C465   O515    1.263   .     A
C465   C471    1.428   .     S
C465   O513    1.264   .     A
C466   H499    1.076   .     S
C466   C480    1.388   .     A
C466   C490    1.412   .     A
C467   H495    1.085   .     S
C467   C479    1.393   .     A
C467   C480    1.394   .     A
C468   O516    1.272   .     A
C468   C470    1.458   .     S
C468   O514    1.289   .     A
C469   C478    1.488   .     S
C469   C489    1.427   .     A
C469   C481    1.425   .     A
C470   C355    1.349   1_655 S
C470   H384    1.088   1_655 S
C472   C475    1.449   .     S
C472   C125    1.330   1_565 S
C472   H148    1.088   1_565 S
C473   C474    1.434   .     S
C474   O517    1.276   .     A
C474   O511    1.276   .     A
C475   O518    1.272   .     A
C475   O512    1.274   .     A
C476   C481    1.400   .     A
C476   C1007   1.448   .     S
C476   C1009   1.388   .     S
C477   C480    1.453   .     S
C477   O507    1.273   .     A
C477   O509    1.283   .     A
C478   O508    1.279   .     A
C478   O510    1.292   .     A
C479   C483    1.446   .     S
C479   C1013   1.416   1_554 S
C481   C484    1.452   .     S
C482   N501    1.158   .     T
C482   C355    1.450   1_655 S
C483   N1024   1.157   1_554 S
C484   N503    1.158   .     T
C485   N504    1.157   .     T
C485   C998    1.448   1_554 S
C486   C493    1.448   .     S
C486   N505    1.158   .     T
C487   H494    1.076   .     S
C487   C998    1.388   1_554 S
C487   C1010   1.413   1_554 S
C488   C489    1.423   .     A
C488   C1009   1.413   .     S
C488   C1012   1.426   .     S
C489   C493    1.421   .     A
C490   C1010   1.426   1_554 S
C490   C1013   1.424   1_554 S
C491   C492    1.399   .     A
C491   C1012   1.424   .     S
C491   C1001   1.416   .     S
C492   H498    1.085   .     S
C492   C493    1.390   .     A
H497   C125    1.087   1_565 S
N502   C1005   1.157   .     S
O506   Zn519   1.958   .     S
O506   Zn522   1.930   .     S
O506   Zn521   1.946   .     S
O506   Zn520   1.939   .     S
O507   Zn520   1.930   .     S
O508   Zn522   1.935   .     S
O509   Zn521   1.926   .     S
O510   Zn519   1.921   .     S
O511   Zn519   1.925   .     S
O512   Zn522   1.933   .     S
O513   Zn520   1.938   .     S
O514   Zn521   1.945   .     S
O515   Zn522   1.943   .     S
O516   Zn519   1.939   .     S
O517   Zn520   1.935   .     S
O518   Zn521   1.925   .     S
C523   O573    1.263   .     A
C523   C529    1.428   .     S
C523   O571    1.264   .     A
C524   H557    1.076   .     S
C524   C538    1.388   .     A
C524   C548    1.412   .     A
C525   H553    1.085   .     S
C525   C537    1.393   .     A
C525   C538    1.394   .     A
C526   O574    1.272   .     A
C526   C528    1.458   .     S
C526   O572    1.289   .     A
C527   C536    1.488   .     S
C527   C547    1.427   .     A
C527   C539    1.425   .     A
C528   C587    1.349   .     S
C528   H616    1.088   .     S
C529   C644    1.349   1_455 S
C529   C656    1.450   1_455 S
C530   C533    1.449   .     S
C530   C705    1.330   .     S
C530   H728    1.088   .     S
C531   C532    1.434   .     S
C531   C878    1.330   1_545 S
C531   H903    1.087   1_545 S
C532   O575    1.276   .     A
C532   O569    1.276   .     A
C533   O576    1.272   .     A
C533   O570    1.274   .     A
C534   C539    1.400   .     A
C534   C21     1.448   1_556 S
C534   C23     1.388   1_556 S
C535   C538    1.453   .     S
C535   O565    1.273   .     A
C535   O567    1.283   .     A
C536   O566    1.279   .     A
C536   O568    1.292   .     A
C537   C541    1.446   .     S
C539   C542    1.452   .     S
C540   N559    1.158   .     T
C540   C587    1.450   .     S
C542   N561    1.158   .     T
C543   N562    1.157   .     T
C544   C551    1.448   .     S
C544   N563    1.158   .     T
C545   H552    1.076   .     S
C546   C547    1.423   .     A
C546   C23     1.413   1_556 S
C546   C26     1.426   1_556 S
C547   C551    1.421   .     A
C549   C550    1.399   .     A
C549   C26     1.424   1_556 S
C549   C15     1.416   1_556 S
C550   H556    1.085   .     S
C550   C551    1.390   .     A
H554   C878    1.088   1_545 S
H555   C705    1.087   .     S
H558   C644    1.088   1_455 S
N560   C19     1.157   1_556 S
O564   Zn577   1.958   .     S
O564   Zn580   1.930   .     S
O564   Zn579   1.946   .     S
O564   Zn578   1.939   .     S
O565   Zn578   1.930   .     S
O566   Zn580   1.935   .     S
O567   Zn579   1.926   .     S
O568   Zn577   1.921   .     S
O569   Zn577   1.925   .     S
O570   Zn580   1.933   .     S
O571   Zn578   1.938   .     S
O572   Zn579   1.945   .     S
O573   Zn580   1.943   .     S
O574   Zn577   1.939   .     S
O575   Zn578   1.935   .     S
O576   Zn579   1.925   .     S
C581   O631    1.263   .     A
C581   C587    1.428   .     S
C581   O629    1.264   .     A
C582   H615    1.076   .     S
C582   C596    1.388   .     A
C582   C606    1.412   .     A
C583   H611    1.085   .     S
C583   C595    1.393   .     A
C583   C596    1.394   .     A
C584   O632    1.272   .     A
C584   C586    1.458   .     S
C584   O630    1.289   .     A
C585   C594    1.488   .     S
C585   C605    1.427   .     A
C585   C597    1.425   .     A
C586   C645    1.349   .     S
C586   H674    1.088   .     S
C588   C591    1.449   .     S
C588   C763    1.330   .     S
C588   H786    1.088   .     S
C589   C590    1.434   .     S
C589   C936    1.330   1_545 S
C589   H961    1.087   1_545 S
C590   O633    1.276   .     A
C590   O627    1.276   .     A
C591   O634    1.272   .     A
C591   O628    1.274   .     A
C592   C597    1.400   .     A
C592   C79     1.448   1_556 S
C592   C81     1.388   1_556 S
C593   C596    1.453   .     S
C593   O623    1.273   .     A
C593   O625    1.283   .     A
C594   O624    1.279   .     A
C594   O626    1.292   .     A
C595   C599    1.446   .     S
C597   C600    1.452   .     S
C598   N617    1.158   .     T
C598   C645    1.450   .     S
C600   N619    1.158   .     T
C601   N620    1.157   .     T
C602   C609    1.448   .     S
C602   N621    1.158   .     T
C603   H610    1.076   .     S
C604   C605    1.423   .     A
C604   C81     1.413   1_556 S
C604   C84     1.426   1_556 S
C605   C609    1.421   .     A
C607   C608    1.399   .     A
C607   C84     1.424   1_556 S
C607   C73     1.416   1_556 S
C608   H614    1.085   .     S
C608   C609    1.390   .     A
H612   C936    1.088   1_545 S
H613   C763    1.087   .     S
N618   C77     1.157   1_556 S
O622   Zn635   1.958   .     S
O622   Zn638   1.930   .     S
O622   Zn637   1.946   .     S
O622   Zn636   1.939   .     S
O623   Zn636   1.930   .     S
O624   Zn638   1.935   .     S
O625   Zn637   1.926   .     S
O626   Zn635   1.921   .     S
O627   Zn635   1.925   .     S
O628   Zn638   1.933   .     S
O629   Zn636   1.938   .     S
O630   Zn637   1.945   .     S
O631   Zn638   1.943   .     S
O632   Zn635   1.939   .     S
O633   Zn636   1.935   .     S
O634   Zn637   1.925   .     S
C639   O689    1.263   .     A
C639   C645    1.428   .     S
C639   O687    1.264   .     A
C640   H673    1.076   .     S
C640   C654    1.388   .     A
C640   C664    1.412   .     A
C641   H669    1.085   .     S
C641   C653    1.393   .     A
C641   C654    1.394   .     A
C642   O690    1.272   .     A
C642   C644    1.458   .     S
C642   O688    1.289   .     A
C643   C652    1.488   .     S
C643   C663    1.427   .     A
C643   C655    1.425   .     A
C644   C529    1.349   1_655 S
C644   H558    1.088   1_655 S
C646   C649    1.449   .     S
C646   C821    1.330   .     S
C646   H844    1.088   .     S
C647   C648    1.434   .     S
C647   C994    1.330   1_545 S
C647   H1019   1.087   1_545 S
C648   O691    1.276   .     A
C648   O685    1.276   .     A
C649   O692    1.272   .     A
C649   O686    1.274   .     A
C650   C655    1.400   .     A
C650   C137    1.448   1_556 S
C650   C139    1.388   1_556 S
C651   C654    1.453   .     S
C651   O681    1.273   .     A
C651   O683    1.283   .     A
C652   O682    1.279   .     A
C652   O684    1.292   .     A
C653   C657    1.446   .     S
C655   C658    1.452   .     S
C656   N675    1.158   .     T
C656   C529    1.450   1_655 S
C658   N677    1.158   .     T
C659   N678    1.157   .     T
C660   C667    1.448   .     S
C660   N679    1.158   .     T
C661   H668    1.076   .     S
C662   C663    1.423   .     A
C662   C139    1.413   1_556 S
C662   C142    1.426   1_556 S
C663   C667    1.421   .     A
C665   C666    1.399   .     A
C665   C142    1.424   1_556 S
C665   C131    1.416   1_556 S
C666   H672    1.085   .     S
C666   C667    1.390   .     A
H670   C994    1.088   1_545 S
H671   C821    1.087   .     S
N676   C135    1.157   1_556 S
O680   Zn693   1.958   .     S
O680   Zn696   1.930   .     S
O680   Zn695   1.946   .     S
O680   Zn694   1.939   .     S
O681   Zn694   1.930   .     S
O682   Zn696   1.935   .     S
O683   Zn695   1.926   .     S
O684   Zn693   1.921   .     S
O685   Zn693   1.925   .     S
O686   Zn696   1.933   .     S
O687   Zn694   1.938   .     S
O688   Zn695   1.945   .     S
O689   Zn696   1.943   .     S
O690   Zn693   1.939   .     S
O691   Zn694   1.935   .     S
O692   Zn695   1.925   .     S
C697   O747    1.263   .     A
C697   C703    1.428   .     S
C697   O745    1.264   .     A
C698   H731    1.076   .     S
C698   C712    1.388   .     A
C698   C722    1.412   .     A
C699   H727    1.085   .     S
C699   C711    1.393   .     A
C699   C712    1.394   .     A
C700   O748    1.272   .     A
C700   C702    1.458   .     S
C700   O746    1.289   .     A
C701   C710    1.488   .     S
C701   C721    1.427   .     A
C701   C713    1.425   .     A
C702   C761    1.349   .     S
C702   H790    1.088   .     S
C703   C818    1.349   1_455 S
C703   C830    1.450   1_455 S
C704   C707    1.449   .     S
C704   C879    1.330   .     S
C704   H902    1.088   .     S
C705   C706    1.434   .     S
C706   O749    1.276   .     A
C706   O743    1.276   .     A
C707   O750    1.272   .     A
C707   O744    1.274   .     A
C708   C713    1.400   .     A
C708   C195    1.448   1_556 S
C708   C197    1.388   1_556 S
C709   C712    1.453   .     S
C709   O739    1.273   .     A
C709   O741    1.283   .     A
C710   O740    1.279   .     A
C710   O742    1.292   .     A
C711   C715    1.446   .     S
C713   C716    1.452   .     S
C714   N733    1.158   .     T
C714   C761    1.450   .     S
C716   N735    1.158   .     T
C717   N736    1.157   .     T
C718   C725    1.448   .     S
C718   N737    1.158   .     T
C719   H726    1.076   .     S
C720   C721    1.423   .     A
C720   C197    1.413   1_556 S
C720   C200    1.426   1_556 S
C721   C725    1.421   .     A
C723   C724    1.399   .     A
C723   C200    1.424   1_556 S
C723   C189    1.416   1_556 S
C724   H730    1.085   .     S
C724   C725    1.390   .     A
H729   C879    1.087   .     S
H732   C818    1.088   1_455 S
N734   C193    1.157   1_556 S
O738   Zn751   1.958   .     S
O738   Zn754   1.930   .     S
O738   Zn753   1.946   .     S
O738   Zn752   1.939   .     S
O739   Zn752   1.930   .     S
O740   Zn754   1.935   .     S
O741   Zn753   1.926   .     S
O742   Zn751   1.921   .     S
O743   Zn751   1.925   .     S
O744   Zn754   1.933   .     S
O745   Zn752   1.938   .     S
O746   Zn753   1.945   .     S
O747   Zn754   1.943   .     S
O748   Zn751   1.939   .     S
O749   Zn752   1.935   .     S
O750   Zn753   1.925   .     S
C755   O805    1.263   .     A
C755   C761    1.428   .     S
C755   O803    1.264   .     A
C756   H789    1.076   .     S
C756   C770    1.388   .     A
C756   C780    1.412   .     A
C757   H785    1.085   .     S
C757   C769    1.393   .     A
C757   C770    1.394   .     A
C758   O806    1.272   .     A
C758   C760    1.458   .     S
C758   O804    1.289   .     A
C759   C768    1.488   .     S
C759   C779    1.427   .     A
C759   C771    1.425   .     A
C760   C819    1.349   .     S
C760   H848    1.088   .     S
C762   C765    1.449   .     S
C762   C937    1.330   .     S
C762   H960    1.088   .     S
C763   C764    1.434   .     S
C764   O807    1.276   .     A
C764   O801    1.276   .     A
C765   O808    1.272   .     A
C765   O802    1.274   .     A
C766   C771    1.400   .     A
C766   C253    1.448   1_556 S
C766   C255    1.388   1_556 S
C767   C770    1.453   .     S
C767   O797    1.273   .     A
C767   O799    1.283   .     A
C768   O798    1.279   .     A
C768   O800    1.292   .     A
C769   C773    1.446   .     S
C771   C774    1.452   .     S
C772   N791    1.158   .     T
C772   C819    1.450   .     S
C774   N793    1.158   .     T
C775   N794    1.157   .     T
C776   C783    1.448   .     S
C776   N795    1.158   .     T
C777   H784    1.076   .     S
C778   C779    1.423   .     A
C778   C255    1.413   1_556 S
C778   C258    1.426   1_556 S
C779   C783    1.421   .     A
C781   C782    1.399   .     A
C781   C258    1.424   1_556 S
C781   C247    1.416   1_556 S
C782   H788    1.085   .     S
C782   C783    1.390   .     A
H787   C937    1.087   .     S
N792   C251    1.157   1_556 S
O796   Zn809   1.958   .     S
O796   Zn812   1.930   .     S
O796   Zn811   1.946   .     S
O796   Zn810   1.939   .     S
O797   Zn810   1.930   .     S
O798   Zn812   1.935   .     S
O799   Zn811   1.926   .     S
O800   Zn809   1.921   .     S
O801   Zn809   1.925   .     S
O802   Zn812   1.933   .     S
O803   Zn810   1.938   .     S
O804   Zn811   1.945   .     S
O805   Zn812   1.943   .     S
O806   Zn809   1.939   .     S
O807   Zn810   1.935   .     S
O808   Zn811   1.925   .     S
C813   O863    1.263   .     A
C813   C819    1.428   .     S
C813   O861    1.264   .     A
C814   H847    1.076   .     S
C814   C828    1.388   .     A
C814   C838    1.412   .     A
C815   H843    1.085   .     S
C815   C827    1.393   .     A
C815   C828    1.394   .     A
C816   O864    1.272   .     A
C816   C818    1.458   .     S
C816   O862    1.289   .     A
C817   C826    1.488   .     S
C817   C837    1.427   .     A
C817   C829    1.425   .     A
C818   C703    1.349   1_655 S
C818   H732    1.088   1_655 S
C820   C823    1.449   .     S
C820   C995    1.330   .     S
C820   H1018   1.088   .     S
C821   C822    1.434   .     S
C822   O865    1.276   .     A
C822   O859    1.276   .     A
C823   O866    1.272   .     A
C823   O860    1.274   .     A
C824   C829    1.400   .     A
C824   C311    1.448   1_556 S
C824   C313    1.388   1_556 S
C825   C828    1.453   .     S
C825   O855    1.273   .     A
C825   O857    1.283   .     A
C826   O856    1.279   .     A
C826   O858    1.292   .     A
C827   C831    1.446   .     S
C829   C832    1.452   .     S
C830   N849    1.158   .     T
C830   C703    1.450   1_655 S
C832   N851    1.158   .     T
C833   N852    1.157   .     T
C834   C841    1.448   .     S
C834   N853    1.158   .     T
C835   H842    1.076   .     S
C836   C837    1.423   .     A
C836   C313    1.413   1_556 S
C836   C316    1.426   1_556 S
C837   C841    1.421   .     A
C839   C840    1.399   .     A
C839   C316    1.424   1_556 S
C839   C305    1.416   1_556 S
C840   H846    1.085   .     S
C840   C841    1.390   .     A
H845   C995    1.087   .     S
N850   C309    1.157   1_556 S
O854   Zn867   1.958   .     S
O854   Zn870   1.930   .     S
O854   Zn869   1.946   .     S
O854   Zn868   1.939   .     S
O855   Zn868   1.930   .     S
O856   Zn870   1.935   .     S
O857   Zn869   1.926   .     S
O858   Zn867   1.921   .     S
O859   Zn867   1.925   .     S
O860   Zn870   1.933   .     S
O861   Zn868   1.938   .     S
O862   Zn869   1.945   .     S
O863   Zn870   1.943   .     S
O864   Zn867   1.939   .     S
O865   Zn868   1.935   .     S
O866   Zn869   1.925   .     S
C871   O921    1.263   .     A
C871   C877    1.428   .     S
C871   O919    1.264   .     A
C872   H905    1.076   .     S
C872   C886    1.388   .     A
C872   C896    1.412   .     A
C873   H901    1.085   .     S
C873   C885    1.393   .     A
C873   C886    1.394   .     A
C874   O922    1.272   .     A
C874   C876    1.458   .     S
C874   O920    1.289   .     A
C875   C884    1.488   .     S
C875   C895    1.427   .     A
C875   C887    1.425   .     A
C876   C935    1.349   .     S
C876   H964    1.088   .     S
C877   C992    1.349   1_455 S
C877   C1004   1.450   1_455 S
C878   C881    1.449   .     S
C878   C531    1.330   1_565 S
C878   H554    1.088   1_565 S
C879   C880    1.434   .     S
C880   O923    1.276   .     A
C880   O917    1.276   .     A
C881   O924    1.272   .     A
C881   O918    1.274   .     A
C882   C887    1.400   .     A
C882   C369    1.448   1_556 S
C882   C371    1.388   1_556 S
C883   C886    1.453   .     S
C883   O913    1.273   .     A
C883   O915    1.283   .     A
C884   O914    1.279   .     A
C884   O916    1.292   .     A
C885   C889    1.446   .     S
C887   C890    1.452   .     S
C888   N907    1.158   .     T
C888   C935    1.450   .     S
C890   N909    1.158   .     T
C891   N910    1.157   .     T
C892   C899    1.448   .     S
C892   N911    1.158   .     T
C893   H900    1.076   .     S
C894   C895    1.423   .     A
C894   C371    1.413   1_556 S
C894   C374    1.426   1_556 S
C895   C899    1.421   .     A
C897   C898    1.399   .     A
C897   C374    1.424   1_556 S
C897   C363    1.416   1_556 S
C898   H904    1.085   .     S
C898   C899    1.390   .     A
H903   C531    1.087   1_565 S
H906   C992    1.088   1_455 S
N908   C367    1.157   1_556 S
O912   Zn925   1.958   .     S
O912   Zn928   1.930   .     S
O912   Zn927   1.946   .     S
O912   Zn926   1.939   .     S
O913   Zn926   1.930   .     S
O914   Zn928   1.935   .     S
O915   Zn927   1.926   .     S
O916   Zn925   1.921   .     S
O917   Zn925   1.925   .     S
O918   Zn928   1.933   .     S
O919   Zn926   1.938   .     S
O920   Zn927   1.945   .     S
O921   Zn928   1.943   .     S
O922   Zn925   1.939   .     S
O923   Zn926   1.935   .     S
O924   Zn927   1.925   .     S
C929   O979    1.263   .     A
C929   C935    1.428   .     S
C929   O977    1.264   .     A
C930   H963    1.076   .     S
C930   C944    1.388   .     A
C930   C954    1.412   .     A
C931   H959    1.085   .     S
C931   C943    1.393   .     A
C931   C944    1.394   .     A
C932   O980    1.272   .     A
C932   C934    1.458   .     S
C932   O978    1.289   .     A
C933   C942    1.488   .     S
C933   C953    1.427   .     A
C933   C945    1.425   .     A
C934   C993    1.349   .     S
C934   H1022   1.088   .     S
C936   C939    1.449   .     S
C936   C589    1.330   1_565 S
C936   H612    1.088   1_565 S
C937   C938    1.434   .     S
C938   O981    1.276   .     A
C938   O975    1.276   .     A
C939   O982    1.272   .     A
C939   O976    1.274   .     A
C940   C945    1.400   .     A
C940   C427    1.448   1_556 S
C940   C429    1.388   1_556 S
C941   C944    1.453   .     S
C941   O971    1.273   .     A
C941   O973    1.283   .     A
C942   O972    1.279   .     A
C942   O974    1.292   .     A
C943   C947    1.446   .     S
C945   C948    1.452   .     S
C946   N965    1.158   .     T
C946   C993    1.450   .     S
C948   N967    1.158   .     T
C949   N968    1.157   .     T
C950   C957    1.448   .     S
C950   N969    1.158   .     T
C951   H958    1.076   .     S
C952   C953    1.423   .     A
C952   C429    1.413   1_556 S
C952   C432    1.426   1_556 S
C953   C957    1.421   .     A
C955   C956    1.399   .     A
C955   C432    1.424   1_556 S
C955   C421    1.416   1_556 S
C956   H962    1.085   .     S
C956   C957    1.390   .     A
H961   C589    1.087   1_565 S
N966   C425    1.157   1_556 S
O970   Zn983   1.958   .     S
O970   Zn986   1.930   .     S
O970   Zn985   1.946   .     S
O970   Zn984   1.939   .     S
O971   Zn984   1.930   .     S
O972   Zn986   1.935   .     S
O973   Zn985   1.926   .     S
O974   Zn983   1.921   .     S
O975   Zn983   1.925   .     S
O976   Zn986   1.933   .     S
O977   Zn984   1.938   .     S
O978   Zn985   1.945   .     S
O979   Zn986   1.943   .     S
O980   Zn983   1.939   .     S
O981   Zn984   1.935   .     S
O982   Zn985   1.925   .     S
C987   O1037   1.263   .     A
C987   C993    1.428   .     S
C987   O1035   1.264   .     A
C988   H1021   1.076   .     S
C988   C1002   1.388   .     A
C988   C1012   1.412   .     A
C989   H1017   1.085   .     S
C989   C1001   1.393   .     A
C989   C1002   1.394   .     A
C990   O1038   1.272   .     A
C990   C992    1.458   .     S
C990   O1036   1.289   .     A
C991   C1000   1.488   .     S
C991   C1011   1.427   .     A
C991   C1003   1.425   .     A
C992   C877    1.349   1_655 S
C992   H906    1.088   1_655 S
C994   C997    1.449   .     S
C994   C647    1.330   1_565 S
C994   H670    1.088   1_565 S
C995   C996    1.434   .     S
C996   O1039   1.276   .     A
C996   O1033   1.276   .     A
C997   O1040   1.272   .     A
C997   O1034   1.274   .     A
C998   C1003   1.400   .     A
C998   C485    1.448   1_556 S
C998   C487    1.388   1_556 S
C999   C1002   1.453   .     S
C999   O1029   1.273   .     A
C999   O1031   1.283   .     A
C1000  O1030   1.279   .     A
C1000  O1032   1.292   .     A
C1001  C1005   1.446   .     S
C1003  C1006   1.452   .     S
C1004  N1023   1.158   .     T
C1004  C877    1.450   1_655 S
C1006  N1025   1.158   .     T
C1007  N1026   1.157   .     T
C1008  C1015   1.448   .     S
C1008  N1027   1.158   .     T
C1009  H1016   1.076   .     S
C1010  C1011   1.423   .     A
C1010  C487    1.413   1_556 S
C1010  C490    1.426   1_556 S
C1011  C1015   1.421   .     A
C1013  C1014   1.399   .     A
C1013  C490    1.424   1_556 S
C1013  C479    1.416   1_556 S
C1014  H1020   1.085   .     S
C1014  C1015   1.390   .     A
H1019  C647    1.087   1_565 S
N1024  C483    1.157   1_556 S
O1028  Zn1041  1.958   .     S
O1028  Zn1044  1.930   .     S
O1028  Zn1043  1.946   .     S
O1028  Zn1042  1.939   .     S
O1029  Zn1042  1.930   .     S
O1030  Zn1044  1.935   .     S
O1031  Zn1043  1.926   .     S
O1032  Zn1041  1.921   .     S
O1033  Zn1041  1.925   .     S
O1034  Zn1044  1.933   .     S
O1035  Zn1042  1.938   .     S
O1036  Zn1043  1.945   .     S
O1037  Zn1044  1.943   .     S
O1038  Zn1041  1.939   .     S
O1039  Zn1042  1.935   .     S
O1040  Zn1043  1.925   .     S
