data_str_m1_o1_o2_pcu_sym.31
_audit_creation_date              2020-01-03
_audit_creation_method            'Materials Studio'
_symmetry_space_group_name_H-M    'P1'
_symmetry_Int_Tables_number       1
_symmetry_cell_setting            triclinic
loop_
_symmetry_equiv_pos_as_xyz
  x,y,z
_cell_length_a                    36.4880
_cell_length_b                    36.4881
_cell_length_c                    34.6421
_cell_angle_alpha                 90.0000
_cell_angle_beta                  90.0000
_cell_angle_gamma                 90.0000
loop_
_atom_site_label
_atom_site_type_symbol
_atom_site_fract_x
_atom_site_fract_y
_atom_site_fract_z
_atom_site_U_iso_or_equiv
_atom_site_adp_type
_atom_site_occupancy
C1     C     0.21956   0.01313   0.04135   0.00000  Uiso   1.00
C2     C     0.03044   0.26313   0.45865   0.00000  Uiso   1.00
C3     C     0.34808   0.40192   0.75000   0.00000  Uiso   1.00
C4     C     0.40191   0.15191   0.25000   0.00000  Uiso   1.00
C5     C     0.09808   0.34808   0.75000   0.00000  Uiso   1.00
C6     C     0.34809   0.40191   0.25000   0.00000  Uiso   1.00
C7     C     0.15192   0.09808   0.75000   0.00000  Uiso   1.00
C8     C     0.09809   0.15191   0.75000   0.00000  Uiso   1.00
C9     C     0.40192   0.34808   0.25000   0.00000  Uiso   1.00
C10    C     0.15191   0.40191   0.75000   0.00000  Uiso   1.00
C11    C     0.34808   0.09808   0.25000   0.00000  Uiso   1.00
C12    C     0.40191   0.34809   0.75000   0.00000  Uiso   1.00
C13    C     0.23687   0.46956   0.54135   0.00000  Uiso   1.00
C14    C     0.09808   0.15192   0.25000   0.00000  Uiso   1.00
C15    C     0.34809   0.09809   0.75000   0.00000  Uiso   1.00
C16    C     0.15192   0.40192   0.25000   0.00000  Uiso   1.00
C17    C     0.25000   0.00000   0.10217   0.00000  Uiso   1.00
C18    C     0.25000   0.00000   0.89783   0.00000  Uiso   1.00
C19    C     0.00000   0.25000   0.10217   0.00000  Uiso   1.00
C20    C     0.00000   0.25000   0.89783   0.00000  Uiso   1.00
C21    C     0.00000   0.25000   0.60217   0.00000  Uiso   1.00
C22    C     0.00000   0.25000   0.39783   0.00000  Uiso   1.00
C23    C     0.25000   0.00000   0.60217   0.00000  Uiso   1.00
C24    C     0.23687   0.03044   0.45866   0.00000  Uiso   1.00
C25    C     0.25000   0.00000   0.39783   0.00000  Uiso   1.00
C26    C     0.15903   0.00344   0.09757   0.00000  Uiso   1.00
C27    C     0.34097   0.00342   0.90243   0.00000  Uiso   1.00
C28    C     0.49657   0.15903   0.09757   0.00000  Uiso   1.00
C29    C     0.49657   0.34097   0.90243   0.00000  Uiso   1.00
C30    C     0.34097   0.49656   0.09757   0.00000  Uiso   1.00
C31    C     0.15903   0.49658   0.90243   0.00000  Uiso   1.00
C32    C     0.00343   0.34097   0.09757   0.00000  Uiso   1.00
C33    C     0.00343   0.15903   0.90243   0.00000  Uiso   1.00
C34    C     0.40903   0.25343   0.59757   0.00000  Uiso   1.00
C35    C     0.03044   0.23687   0.54134   0.00000  Uiso   1.00
C36    C     0.09097   0.25343   0.40243   0.00000  Uiso   1.00
C37    C     0.24656   0.40903   0.59757   0.00000  Uiso   1.00
C38    C     0.24658   0.09097   0.40243   0.00000  Uiso   1.00
C39    C     0.09097   0.24657   0.59757   0.00000  Uiso   1.00
C40    C     0.40903   0.24657   0.40243   0.00000  Uiso   1.00
C41    C     0.25344   0.09097   0.59757   0.00000  Uiso   1.00
C42    C     0.25342   0.40903   0.40243   0.00000  Uiso   1.00
C43    C     0.46956   0.23687   0.45866   0.00000  Uiso   1.00
C44    C     0.26313   0.03044   0.54134   0.00000  Uiso   1.00
C45    C     0.26313   0.46956   0.45866   0.00000  Uiso   1.00
C46    C     0.21888   0.01248   0.08168   0.00000  Uiso   1.00
C47    C     0.28113   0.01247   0.91832   0.00000  Uiso   1.00
C48    C     0.48753   0.21888   0.08168   0.00000  Uiso   1.00
C49    C     0.28044   0.01313   0.95866   0.00000  Uiso   1.00
C50    C     0.48753   0.28112   0.91832   0.00000  Uiso   1.00
C51    C     0.28112   0.48752   0.08168   0.00000  Uiso   1.00
C52    C     0.21887   0.48753   0.91832   0.00000  Uiso   1.00
C53    C     0.01247   0.28112   0.08168   0.00000  Uiso   1.00
C54    C     0.01247   0.21888   0.91832   0.00000  Uiso   1.00
C55    C     0.46888   0.26247   0.58168   0.00000  Uiso   1.00
C56    C     0.03112   0.26247   0.41832   0.00000  Uiso   1.00
C57    C     0.23752   0.46888   0.58168   0.00000  Uiso   1.00
C58    C     0.23753   0.03113   0.41832   0.00000  Uiso   1.00
C59    C     0.03112   0.23753   0.58168   0.00000  Uiso   1.00
C60    C     0.48687   0.21956   0.04135   0.00000  Uiso   1.00
C61    C     0.46888   0.23753   0.41832   0.00000  Uiso   1.00
C62    C     0.26248   0.03112   0.58168   0.00000  Uiso   1.00
C63    C     0.26247   0.46887   0.41832   0.00000  Uiso   1.00
C64    C     0.25000   0.00000   0.02116   0.00000  Uiso   1.00
C65    C     0.25000   0.00000   0.97884   0.00000  Uiso   1.00
C66    C     0.00000   0.25000   0.02116   0.00000  Uiso   1.00
C67    C     0.00000   0.25000   0.97884   0.00000  Uiso   1.00
C68    C     0.00000   0.25000   0.52116   0.00000  Uiso   1.00
C69    C     0.00000   0.25000   0.47884   0.00000  Uiso   1.00
C70    C     0.25000   0.00000   0.52116   0.00000  Uiso   1.00
C71    C     0.48687   0.28044   0.95866   0.00000  Uiso   1.00
C72    C     0.25000   0.00000   0.47884   0.00000  Uiso   1.00
C73    C     0.25000   0.00000   0.35532   0.00000  Uiso   1.00
C74    C     0.25000   0.00000   0.64468   0.00000  Uiso   1.00
C75    C     0.00000   0.25000   0.35532   0.00000  Uiso   1.00
C76    C     0.00000   0.25000   0.64468   0.00000  Uiso   1.00
C77    C     0.00000   0.25000   0.85532   0.00000  Uiso   1.00
C78    C     0.00000   0.25000   0.14468   0.00000  Uiso   1.00
C79    C     0.25000   0.00000   0.85532   0.00000  Uiso   1.00
C80    C     0.25000   0.00000   0.14468   0.00000  Uiso   1.00
C81    C     0.17998   0.07002   0.25000   0.00000  Uiso   1.00
C82    C     0.28044   0.48687   0.04135   0.00000  Uiso   1.00
C83    C     0.32002   0.42998   0.75000   0.00000  Uiso   1.00
C84    C     0.42998   0.17998   0.25000   0.00000  Uiso   1.00
C85    C     0.07002   0.32002   0.75000   0.00000  Uiso   1.00
C86    C     0.32002   0.42998   0.25000   0.00000  Uiso   1.00
C87    C     0.17998   0.07002   0.75000   0.00000  Uiso   1.00
C88    C     0.07002   0.32002   0.25000   0.00000  Uiso   1.00
C89    C     0.42998   0.17998   0.75000   0.00000  Uiso   1.00
C90    C     0.17998   0.42998   0.75000   0.00000  Uiso   1.00
C91    C     0.32002   0.07002   0.25000   0.00000  Uiso   1.00
C92    C     0.42998   0.32002   0.75000   0.00000  Uiso   1.00
C93    C     0.21956   0.48687   0.95866   0.00000  Uiso   1.00
C94    C     0.07002   0.17998   0.25000   0.00000  Uiso   1.00
C95    C     0.32002   0.07002   0.75000   0.00000  Uiso   1.00
C96    C     0.17998   0.42998   0.25000   0.00000  Uiso   1.00
C97    C     0.07002   0.17998   0.75000   0.00000  Uiso   1.00
C98    C     0.42998   0.32002   0.25000   0.00000  Uiso   1.00
C99    C     0.14640   0.38075   0.21654   0.00000  Uiso   1.00
C100   C     0.35359   0.11928   0.78345   0.00000  Uiso   1.00
C101   C     0.11925   0.14640   0.21654   0.00000  Uiso   1.00
C102   C     0.38072   0.35359   0.78345   0.00000  Uiso   1.00
C103   C     0.35360   0.11925   0.21654   0.00000  Uiso   1.00
C104   C     0.01313   0.28044   0.04135   0.00000  Uiso   1.00
C105   C     0.14641   0.38072   0.78345   0.00000  Uiso   1.00
C106   C     0.38075   0.35360   0.21654   0.00000  Uiso   1.00
C107   C     0.11928   0.14641   0.78345   0.00000  Uiso   1.00
C108   C     0.14640   0.11925   0.78346   0.00000  Uiso   1.00
C109   C     0.35359   0.38072   0.21655   0.00000  Uiso   1.00
C110   C     0.11925   0.35360   0.78346   0.00000  Uiso   1.00
C111   C     0.38072   0.14641   0.21655   0.00000  Uiso   1.00
C112   C     0.35360   0.38075   0.78346   0.00000  Uiso   1.00
C113   C     0.14641   0.11928   0.21655   0.00000  Uiso   1.00
C114   C     0.38075   0.14640   0.78346   0.00000  Uiso   1.00
C115   C     0.01313   0.21956   0.95865   0.00000  Uiso   1.00
C116   C     0.11928   0.35359   0.21655   0.00000  Uiso   1.00
C117   C     0.39640   0.13075   0.71654   0.00000  Uiso   1.00
C118   C     0.10359   0.36928   0.28345   0.00000  Uiso   1.00
C119   C     0.36925   0.39640   0.71654   0.00000  Uiso   1.00
C120   C     0.13072   0.10359   0.28345   0.00000  Uiso   1.00
C121   C     0.10360   0.36925   0.71654   0.00000  Uiso   1.00
C122   C     0.39641   0.13072   0.28345   0.00000  Uiso   1.00
C123   C     0.13075   0.10360   0.71654   0.00000  Uiso   1.00
C124   C     0.36928   0.39641   0.28345   0.00000  Uiso   1.00
C125   C     0.39640   0.36925   0.28346   0.00000  Uiso   1.00
C126   C     0.46956   0.26313   0.54134   0.00000  Uiso   1.00
C127   C     0.10359   0.13072   0.71655   0.00000  Uiso   1.00
C128   C     0.36925   0.10360   0.28346   0.00000  Uiso   1.00
C129   C     0.13072   0.39641   0.71655   0.00000  Uiso   1.00
C130   C     0.10360   0.13075   0.28346   0.00000  Uiso   1.00
C131   C     0.39641   0.36928   0.71655   0.00000  Uiso   1.00
C132   C     0.13075   0.39640   0.28346   0.00000  Uiso   1.00
C133   C     0.36928   0.10359   0.71655   0.00000  Uiso   1.00
C134   C     0.09809   0.34809   0.25000   0.00000  Uiso   1.00
C135   C     0.40192   0.15192   0.75000   0.00000  Uiso   1.00
C136   C     0.15191   0.09809   0.25000   0.00000  Uiso   1.00
H137   H     0.19641   0.02438   0.02575   0.00000  Uiso   1.00
H138   H     0.05359   0.27438   0.47426   0.00000  Uiso   1.00
H139   H     0.22562   0.44641   0.52575   0.00000  Uiso   1.00
H140   H     0.22563   0.05359   0.47425   0.00000  Uiso   1.00
H141   H     0.05359   0.22562   0.52574   0.00000  Uiso   1.00
H142   H     0.44641   0.22562   0.47426   0.00000  Uiso   1.00
H143   H     0.27438   0.05359   0.52574   0.00000  Uiso   1.00
H144   H     0.27437   0.44641   0.47426   0.00000  Uiso   1.00
H145   H     0.13671   0.01355   0.11653   0.00000  Uiso   1.00
H146   H     0.16598   0.47513   0.10717   0.00000  Uiso   1.00
H147   H     0.14833   0.00309   0.06753   0.00000  Uiso   1.00
H148   H     0.30359   0.02437   0.97425   0.00000  Uiso   1.00
H149   H     0.36329   0.01353   0.88347   0.00000  Uiso   1.00
H150   H     0.33401   0.47511   0.89283   0.00000  Uiso   1.00
H151   H     0.35167   0.00306   0.93247   0.00000  Uiso   1.00
H152   H     0.48646   0.13671   0.11653   0.00000  Uiso   1.00
H153   H     0.02488   0.16598   0.10717   0.00000  Uiso   1.00
H154   H     0.49693   0.14833   0.06753   0.00000  Uiso   1.00
H155   H     0.48646   0.36329   0.88347   0.00000  Uiso   1.00
H156   H     0.02488   0.33402   0.89283   0.00000  Uiso   1.00
H157   H     0.49693   0.35167   0.93248   0.00000  Uiso   1.00
H158   H     0.36329   0.48645   0.11653   0.00000  Uiso   1.00
H159   H     0.47562   0.19641   0.02575   0.00000  Uiso   1.00
H160   H     0.33402   0.02487   0.10717   0.00000  Uiso   1.00
H161   H     0.35167   0.49691   0.06753   0.00000  Uiso   1.00
H162   H     0.13671   0.48647   0.88347   0.00000  Uiso   1.00
H163   H     0.16599   0.02489   0.89283   0.00000  Uiso   1.00
H164   H     0.14833   0.49694   0.93248   0.00000  Uiso   1.00
H165   H     0.01354   0.36329   0.11653   0.00000  Uiso   1.00
H166   H     0.47512   0.33402   0.10717   0.00000  Uiso   1.00
H167   H     0.00307   0.35167   0.06753   0.00000  Uiso   1.00
H168   H     0.01354   0.13671   0.88347   0.00000  Uiso   1.00
H169   H     0.47512   0.16598   0.89283   0.00000  Uiso   1.00
H170   H     0.47562   0.30359   0.97426   0.00000  Uiso   1.00
H171   H     0.00307   0.14833   0.93247   0.00000  Uiso   1.00
H172   H     0.38671   0.26354   0.61653   0.00000  Uiso   1.00
H173   H     0.41598   0.22512   0.60717   0.00000  Uiso   1.00
H174   H     0.39833   0.25307   0.56753   0.00000  Uiso   1.00
H175   H     0.11329   0.26354   0.38347   0.00000  Uiso   1.00
H176   H     0.08402   0.22512   0.39283   0.00000  Uiso   1.00
H177   H     0.10167   0.25307   0.43248   0.00000  Uiso   1.00
H178   H     0.23645   0.38671   0.61653   0.00000  Uiso   1.00
H179   H     0.27487   0.41598   0.60717   0.00000  Uiso   1.00
H180   H     0.24692   0.39833   0.56753   0.00000  Uiso   1.00
H181   H     0.30359   0.47562   0.02575   0.00000  Uiso   1.00
H182   H     0.23647   0.11329   0.38347   0.00000  Uiso   1.00
H183   H     0.27489   0.08401   0.39283   0.00000  Uiso   1.00
H184   H     0.24694   0.10167   0.43248   0.00000  Uiso   1.00
H185   H     0.11329   0.23646   0.61653   0.00000  Uiso   1.00
H186   H     0.08402   0.27488   0.60717   0.00000  Uiso   1.00
H187   H     0.10167   0.24693   0.56752   0.00000  Uiso   1.00
H188   H     0.38671   0.23646   0.38347   0.00000  Uiso   1.00
H189   H     0.41598   0.27488   0.39283   0.00000  Uiso   1.00
H190   H     0.39833   0.24693   0.43248   0.00000  Uiso   1.00
H191   H     0.26355   0.11329   0.61653   0.00000  Uiso   1.00
H192   H     0.19641   0.47563   0.97426   0.00000  Uiso   1.00
H193   H     0.22513   0.08402   0.60716   0.00000  Uiso   1.00
H194   H     0.25308   0.10167   0.56752   0.00000  Uiso   1.00
H195   H     0.26353   0.38671   0.38347   0.00000  Uiso   1.00
H196   H     0.22511   0.41599   0.39283   0.00000  Uiso   1.00
H197   H     0.25306   0.39833   0.43247   0.00000  Uiso   1.00
H198   H     0.02438   0.30359   0.02575   0.00000  Uiso   1.00
H199   H     0.02438   0.19641   0.97425   0.00000  Uiso   1.00
H200   H     0.44641   0.27438   0.52575   0.00000  Uiso   1.00
I201   I     0.18050   0.38898   0.16681   0.00000  Uiso   1.00
I202   I     0.31939   0.38884   0.16688   0.00000  Uiso   1.00
I203   I     0.11102   0.31950   0.83319   0.00000  Uiso   1.00
I204   I     0.38884   0.18061   0.16688   0.00000  Uiso   1.00
I205   I     0.31950   0.38898   0.83319   0.00000  Uiso   1.00
I206   I     0.18061   0.11116   0.16688   0.00000  Uiso   1.00
I207   I     0.38898   0.18050   0.83319   0.00000  Uiso   1.00
I208   I     0.11116   0.31939   0.16688   0.00000  Uiso   1.00
I209   I     0.43050   0.13898   0.66681   0.00000  Uiso   1.00
I210   I     0.06939   0.36116   0.33312   0.00000  Uiso   1.00
I211   I     0.36102   0.43050   0.66681   0.00000  Uiso   1.00
I212   I     0.31939   0.11116   0.83312   0.00000  Uiso   1.00
I213   I     0.13884   0.06939   0.33312   0.00000  Uiso   1.00
I214   I     0.06950   0.36102   0.66681   0.00000  Uiso   1.00
I215   I     0.43061   0.13884   0.33312   0.00000  Uiso   1.00
I216   I     0.13898   0.06950   0.66681   0.00000  Uiso   1.00
I217   I     0.36116   0.43061   0.33312   0.00000  Uiso   1.00
I218   I     0.43050   0.36102   0.33319   0.00000  Uiso   1.00
I219   I     0.06939   0.13884   0.66688   0.00000  Uiso   1.00
I220   I     0.36102   0.06950   0.33319   0.00000  Uiso   1.00
I221   I     0.13884   0.43061   0.66688   0.00000  Uiso   1.00
I222   I     0.06950   0.13898   0.33319   0.00000  Uiso   1.00
I223   I     0.11102   0.18050   0.16681   0.00000  Uiso   1.00
I224   I     0.43061   0.36116   0.66688   0.00000  Uiso   1.00
I225   I     0.13898   0.43050   0.33319   0.00000  Uiso   1.00
I226   I     0.36116   0.06939   0.66688   0.00000  Uiso   1.00
I227   I     0.38884   0.31939   0.83312   0.00000  Uiso   1.00
I228   I     0.31950   0.11102   0.16681   0.00000  Uiso   1.00
I229   I     0.18061   0.38884   0.83312   0.00000  Uiso   1.00
I230   I     0.38898   0.31950   0.16681   0.00000  Uiso   1.00
I231   I     0.11116   0.18061   0.83312   0.00000  Uiso   1.00
I232   I     0.18050   0.11102   0.83319   0.00000  Uiso   1.00
O233   O     0.25000   0.00000   0.25000   0.00000  Uiso   1.00
O234   O     0.25000   0.46964   0.66317   0.00000  Uiso   1.00
O235   O     0.46964   0.25000   0.33683   0.00000  Uiso   1.00
O236   O     0.03036   0.25000   0.66317   0.00000  Uiso   1.00
O237   O     0.00000   0.21964   0.83683   0.00000  Uiso   1.00
O238   O     0.00000   0.28036   0.16317   0.00000  Uiso   1.00
O239   O     0.28036   0.00000   0.83683   0.00000  Uiso   1.00
O240   O     0.21964   0.00000   0.16317   0.00000  Uiso   1.00
O241   O     0.00000   0.28036   0.83683   0.00000  Uiso   1.00
O242   O     0.00000   0.21964   0.16317   0.00000  Uiso   1.00
O243   O     0.21964   0.00000   0.83683   0.00000  Uiso   1.00
O244   O     0.25000   0.00000   0.75000   0.00000  Uiso   1.00
O245   O     0.28036   0.00000   0.16317   0.00000  Uiso   1.00
O246   O     0.20726   0.07307   0.27282   0.00000  Uiso   1.00
O247   O     0.29275   0.42693   0.72718   0.00000  Uiso   1.00
O248   O     0.42693   0.20726   0.27282   0.00000  Uiso   1.00
O249   O     0.07307   0.29275   0.72718   0.00000  Uiso   1.00
O250   O     0.29275   0.42693   0.27282   0.00000  Uiso   1.00
O251   O     0.20726   0.07307   0.72718   0.00000  Uiso   1.00
O252   O     0.07307   0.29275   0.27282   0.00000  Uiso   1.00
O253   O     0.42693   0.20726   0.72718   0.00000  Uiso   1.00
O254   O     0.20726   0.42693   0.72718   0.00000  Uiso   1.00
O255   O     0.00000   0.25000   0.25000   0.00000  Uiso   1.00
O256   O     0.29275   0.07307   0.27282   0.00000  Uiso   1.00
O257   O     0.42693   0.29275   0.72718   0.00000  Uiso   1.00
O258   O     0.07307   0.20726   0.27282   0.00000  Uiso   1.00
O259   O     0.29275   0.07307   0.72718   0.00000  Uiso   1.00
O260   O     0.20726   0.42693   0.27282   0.00000  Uiso   1.00
O261   O     0.07307   0.20726   0.72718   0.00000  Uiso   1.00
O262   O     0.42693   0.29275   0.27282   0.00000  Uiso   1.00
O263   O     0.45726   0.32307   0.77282   0.00000  Uiso   1.00
O264   O     0.04275   0.17693   0.22718   0.00000  Uiso   1.00
O265   O     0.17693   0.45726   0.77282   0.00000  Uiso   1.00
O266   O     0.00000   0.25000   0.75000   0.00000  Uiso   1.00
O267   O     0.32307   0.04275   0.22718   0.00000  Uiso   1.00
O268   O     0.04275   0.17693   0.77282   0.00000  Uiso   1.00
O269   O     0.45726   0.32307   0.22718   0.00000  Uiso   1.00
O270   O     0.32307   0.04275   0.77282   0.00000  Uiso   1.00
O271   O     0.17693   0.45726   0.22718   0.00000  Uiso   1.00
O272   O     0.45726   0.17693   0.22718   0.00000  Uiso   1.00
O273   O     0.04275   0.32307   0.77282   0.00000  Uiso   1.00
O274   O     0.17693   0.04275   0.22718   0.00000  Uiso   1.00
O275   O     0.32307   0.45726   0.77282   0.00000  Uiso   1.00
O276   O     0.04275   0.32307   0.22718   0.00000  Uiso   1.00
O277   O     0.25000   0.46964   0.33683   0.00000  Uiso   1.00
O278   O     0.45726   0.17693   0.77282   0.00000  Uiso   1.00
O279   O     0.32307   0.45726   0.22718   0.00000  Uiso   1.00
O280   O     0.17693   0.04275   0.77282   0.00000  Uiso   1.00
O281   O     0.18925   0.02733   0.10112   0.00000  Uiso   1.00
O282   O     0.31076   0.02732   0.89888   0.00000  Uiso   1.00
O283   O     0.47267   0.18924   0.10112   0.00000  Uiso   1.00
O284   O     0.47268   0.31076   0.89888   0.00000  Uiso   1.00
O285   O     0.31076   0.47267   0.10112   0.00000  Uiso   1.00
O286   O     0.18924   0.47268   0.89888   0.00000  Uiso   1.00
O287   O     0.02733   0.31076   0.10112   0.00000  Uiso   1.00
O288   O     0.25000   0.03036   0.66317   0.00000  Uiso   1.00
O289   O     0.02733   0.18924   0.89888   0.00000  Uiso   1.00
O290   O     0.43924   0.27733   0.60112   0.00000  Uiso   1.00
O291   O     0.06076   0.27733   0.39888   0.00000  Uiso   1.00
O292   O     0.22267   0.43924   0.60112   0.00000  Uiso   1.00
O293   O     0.22268   0.06076   0.39888   0.00000  Uiso   1.00
O294   O     0.06076   0.22268   0.60112   0.00000  Uiso   1.00
O295   O     0.43924   0.22267   0.39888   0.00000  Uiso   1.00
O296   O     0.27733   0.06076   0.60112   0.00000  Uiso   1.00
O297   O     0.27732   0.43924   0.39888   0.00000  Uiso   1.00
O298   O     0.03036   0.25000   0.33683   0.00000  Uiso   1.00
O299   O     0.46964   0.25000   0.66317   0.00000  Uiso   1.00
O300   O     0.25000   0.03036   0.33683   0.00000  Uiso   1.00
Zn301  Zn    0.20660   0.00000   0.21760   0.00000  Uiso   1.00
Zn302  Zn    0.04340   0.25000   0.28240   0.00000  Uiso   1.00
Zn303  Zn    0.25000   0.45660   0.71760   0.00000  Uiso   1.00
Zn304  Zn    0.25000   0.04340   0.28240   0.00000  Uiso   1.00
Zn305  Zn    0.04340   0.25000   0.71760   0.00000  Uiso   1.00
Zn306  Zn    0.45660   0.25000   0.28240   0.00000  Uiso   1.00
Zn307  Zn    0.25000   0.04340   0.71760   0.00000  Uiso   1.00
Zn308  Zn    0.25000   0.45660   0.28240   0.00000  Uiso   1.00
Zn309  Zn    0.29340   0.00000   0.78240   0.00000  Uiso   1.00
Zn310  Zn    0.00000   0.20660   0.21760   0.00000  Uiso   1.00
Zn311  Zn    0.00000   0.29340   0.78240   0.00000  Uiso   1.00
Zn312  Zn    0.29340   0.00000   0.21760   0.00000  Uiso   1.00
Zn313  Zn    0.20660   0.00000   0.78240   0.00000  Uiso   1.00
Zn314  Zn    0.00000   0.29340   0.21760   0.00000  Uiso   1.00
Zn315  Zn    0.00000   0.20660   0.78240   0.00000  Uiso   1.00
Zn316  Zn    0.45660   0.25000   0.71760   0.00000  Uiso   1.00
C317   C     0.71956   0.01313   0.04135   0.00000  Uiso   1.00
C318   C     0.53044   0.26313   0.45865   0.00000  Uiso   1.00
C319   C     0.84808   0.40192   0.75000   0.00000  Uiso   1.00
C320   C     0.90191   0.15191   0.25000   0.00000  Uiso   1.00
C321   C     0.59808   0.34808   0.75000   0.00000  Uiso   1.00
C322   C     0.84809   0.40191   0.25000   0.00000  Uiso   1.00
C323   C     0.65192   0.09808   0.75000   0.00000  Uiso   1.00
C324   C     0.59809   0.15191   0.75000   0.00000  Uiso   1.00
C325   C     0.90192   0.34808   0.25000   0.00000  Uiso   1.00
C326   C     0.65191   0.40191   0.75000   0.00000  Uiso   1.00
C327   C     0.84808   0.09808   0.25000   0.00000  Uiso   1.00
C328   C     0.90191   0.34809   0.75000   0.00000  Uiso   1.00
C329   C     0.73687   0.46956   0.54135   0.00000  Uiso   1.00
C330   C     0.59808   0.15192   0.25000   0.00000  Uiso   1.00
C331   C     0.84809   0.09809   0.75000   0.00000  Uiso   1.00
C332   C     0.65192   0.40192   0.25000   0.00000  Uiso   1.00
C333   C     0.75000   0.00000   0.10217   0.00000  Uiso   1.00
C334   C     0.75000   0.00000   0.89783   0.00000  Uiso   1.00
C335   C     0.50000   0.25000   0.10217   0.00000  Uiso   1.00
C336   C     0.50000   0.25000   0.89783   0.00000  Uiso   1.00
C337   C     0.50000   0.25000   0.60217   0.00000  Uiso   1.00
C338   C     0.50000   0.25000   0.39783   0.00000  Uiso   1.00
C339   C     0.75000   0.00000   0.60217   0.00000  Uiso   1.00
C340   C     0.73687   0.03044   0.45866   0.00000  Uiso   1.00
C341   C     0.75000   0.00000   0.39783   0.00000  Uiso   1.00
C342   C     0.65903   0.00344   0.09757   0.00000  Uiso   1.00
C343   C     0.84097   0.00342   0.90243   0.00000  Uiso   1.00
C344   C     0.99657   0.15903   0.09757   0.00000  Uiso   1.00
C345   C     0.99657   0.34097   0.90243   0.00000  Uiso   1.00
C346   C     0.84097   0.49656   0.09757   0.00000  Uiso   1.00
C347   C     0.65903   0.49658   0.90243   0.00000  Uiso   1.00
C348   C     0.50343   0.34097   0.09757   0.00000  Uiso   1.00
C349   C     0.50343   0.15903   0.90243   0.00000  Uiso   1.00
C350   C     0.90903   0.25343   0.59757   0.00000  Uiso   1.00
C351   C     0.53044   0.23687   0.54134   0.00000  Uiso   1.00
C352   C     0.59097   0.25343   0.40243   0.00000  Uiso   1.00
C353   C     0.74656   0.40903   0.59757   0.00000  Uiso   1.00
C354   C     0.74658   0.09097   0.40243   0.00000  Uiso   1.00
C355   C     0.59097   0.24657   0.59757   0.00000  Uiso   1.00
C356   C     0.90903   0.24657   0.40243   0.00000  Uiso   1.00
C357   C     0.75344   0.09097   0.59757   0.00000  Uiso   1.00
C358   C     0.75342   0.40903   0.40243   0.00000  Uiso   1.00
C359   C     0.96956   0.23687   0.45866   0.00000  Uiso   1.00
C360   C     0.76313   0.03044   0.54134   0.00000  Uiso   1.00
C361   C     0.76313   0.46956   0.45866   0.00000  Uiso   1.00
C362   C     0.71888   0.01248   0.08168   0.00000  Uiso   1.00
C363   C     0.78113   0.01247   0.91832   0.00000  Uiso   1.00
C364   C     0.98753   0.21888   0.08168   0.00000  Uiso   1.00
C365   C     0.78044   0.01313   0.95866   0.00000  Uiso   1.00
C366   C     0.98753   0.28112   0.91832   0.00000  Uiso   1.00
C367   C     0.78112   0.48752   0.08168   0.00000  Uiso   1.00
C368   C     0.71887   0.48753   0.91832   0.00000  Uiso   1.00
C369   C     0.51247   0.28112   0.08168   0.00000  Uiso   1.00
C370   C     0.51247   0.21888   0.91832   0.00000  Uiso   1.00
C371   C     0.96888   0.26247   0.58168   0.00000  Uiso   1.00
C372   C     0.53112   0.26247   0.41832   0.00000  Uiso   1.00
C373   C     0.73752   0.46888   0.58168   0.00000  Uiso   1.00
C374   C     0.73753   0.03113   0.41832   0.00000  Uiso   1.00
C375   C     0.53112   0.23753   0.58168   0.00000  Uiso   1.00
C376   C     0.98687   0.21956   0.04135   0.00000  Uiso   1.00
C377   C     0.96888   0.23753   0.41832   0.00000  Uiso   1.00
C378   C     0.76248   0.03112   0.58168   0.00000  Uiso   1.00
C379   C     0.76247   0.46887   0.41832   0.00000  Uiso   1.00
C380   C     0.75000   0.00000   0.02116   0.00000  Uiso   1.00
C381   C     0.75000   0.00000   0.97884   0.00000  Uiso   1.00
C382   C     0.50000   0.25000   0.02116   0.00000  Uiso   1.00
C383   C     0.50000   0.25000   0.97884   0.00000  Uiso   1.00
C384   C     0.50000   0.25000   0.52116   0.00000  Uiso   1.00
C385   C     0.50000   0.25000   0.47884   0.00000  Uiso   1.00
C386   C     0.75000   0.00000   0.52116   0.00000  Uiso   1.00
C387   C     0.98687   0.28044   0.95866   0.00000  Uiso   1.00
C388   C     0.75000   0.00000   0.47884   0.00000  Uiso   1.00
C389   C     0.75000   0.00000   0.35532   0.00000  Uiso   1.00
C390   C     0.75000   0.00000   0.64468   0.00000  Uiso   1.00
C391   C     0.50000   0.25000   0.35532   0.00000  Uiso   1.00
C392   C     0.50000   0.25000   0.64468   0.00000  Uiso   1.00
C393   C     0.50000   0.25000   0.85532   0.00000  Uiso   1.00
C394   C     0.50000   0.25000   0.14468   0.00000  Uiso   1.00
C395   C     0.75000   0.00000   0.85532   0.00000  Uiso   1.00
C396   C     0.75000   0.00000   0.14468   0.00000  Uiso   1.00
C397   C     0.67998   0.07002   0.25000   0.00000  Uiso   1.00
C398   C     0.78044   0.48687   0.04135   0.00000  Uiso   1.00
C399   C     0.82002   0.42998   0.75000   0.00000  Uiso   1.00
C400   C     0.92998   0.17998   0.25000   0.00000  Uiso   1.00
C401   C     0.57002   0.32002   0.75000   0.00000  Uiso   1.00
C402   C     0.82002   0.42998   0.25000   0.00000  Uiso   1.00
C403   C     0.67998   0.07002   0.75000   0.00000  Uiso   1.00
C404   C     0.57002   0.32002   0.25000   0.00000  Uiso   1.00
C405   C     0.92998   0.17998   0.75000   0.00000  Uiso   1.00
C406   C     0.67998   0.42998   0.75000   0.00000  Uiso   1.00
C407   C     0.82002   0.07002   0.25000   0.00000  Uiso   1.00
C408   C     0.92998   0.32002   0.75000   0.00000  Uiso   1.00
C409   C     0.71956   0.48687   0.95866   0.00000  Uiso   1.00
C410   C     0.57002   0.17998   0.25000   0.00000  Uiso   1.00
C411   C     0.82002   0.07002   0.75000   0.00000  Uiso   1.00
C412   C     0.67998   0.42998   0.25000   0.00000  Uiso   1.00
C413   C     0.57002   0.17998   0.75000   0.00000  Uiso   1.00
C414   C     0.92998   0.32002   0.25000   0.00000  Uiso   1.00
C415   C     0.64640   0.38075   0.21654   0.00000  Uiso   1.00
C416   C     0.85359   0.11928   0.78345   0.00000  Uiso   1.00
C417   C     0.61925   0.14640   0.21654   0.00000  Uiso   1.00
C418   C     0.88072   0.35359   0.78345   0.00000  Uiso   1.00
C419   C     0.85360   0.11925   0.21654   0.00000  Uiso   1.00
C420   C     0.51313   0.28044   0.04135   0.00000  Uiso   1.00
C421   C     0.64641   0.38072   0.78345   0.00000  Uiso   1.00
C422   C     0.88075   0.35360   0.21654   0.00000  Uiso   1.00
C423   C     0.61928   0.14641   0.78345   0.00000  Uiso   1.00
C424   C     0.64640   0.11925   0.78346   0.00000  Uiso   1.00
C425   C     0.85359   0.38072   0.21655   0.00000  Uiso   1.00
C426   C     0.61925   0.35360   0.78346   0.00000  Uiso   1.00
C427   C     0.88072   0.14641   0.21655   0.00000  Uiso   1.00
C428   C     0.85360   0.38075   0.78346   0.00000  Uiso   1.00
C429   C     0.64641   0.11928   0.21655   0.00000  Uiso   1.00
C430   C     0.88075   0.14640   0.78346   0.00000  Uiso   1.00
C431   C     0.51313   0.21956   0.95865   0.00000  Uiso   1.00
C432   C     0.61928   0.35359   0.21655   0.00000  Uiso   1.00
C433   C     0.89640   0.13075   0.71654   0.00000  Uiso   1.00
C434   C     0.60359   0.36928   0.28345   0.00000  Uiso   1.00
C435   C     0.86925   0.39640   0.71654   0.00000  Uiso   1.00
C436   C     0.63072   0.10359   0.28345   0.00000  Uiso   1.00
C437   C     0.60360   0.36925   0.71654   0.00000  Uiso   1.00
C438   C     0.89641   0.13072   0.28345   0.00000  Uiso   1.00
C439   C     0.63075   0.10360   0.71654   0.00000  Uiso   1.00
C440   C     0.86928   0.39641   0.28345   0.00000  Uiso   1.00
C441   C     0.89640   0.36925   0.28346   0.00000  Uiso   1.00
C442   C     0.96956   0.26313   0.54134   0.00000  Uiso   1.00
C443   C     0.60359   0.13072   0.71655   0.00000  Uiso   1.00
C444   C     0.86925   0.10360   0.28346   0.00000  Uiso   1.00
C445   C     0.63072   0.39641   0.71655   0.00000  Uiso   1.00
C446   C     0.60360   0.13075   0.28346   0.00000  Uiso   1.00
C447   C     0.89641   0.36928   0.71655   0.00000  Uiso   1.00
C448   C     0.63075   0.39640   0.28346   0.00000  Uiso   1.00
C449   C     0.86928   0.10359   0.71655   0.00000  Uiso   1.00
C450   C     0.59809   0.34809   0.25000   0.00000  Uiso   1.00
C451   C     0.90192   0.15192   0.75000   0.00000  Uiso   1.00
C452   C     0.65191   0.09809   0.25000   0.00000  Uiso   1.00
H453   H     0.69641   0.02438   0.02575   0.00000  Uiso   1.00
H454   H     0.55359   0.27438   0.47426   0.00000  Uiso   1.00
H455   H     0.72562   0.44641   0.52575   0.00000  Uiso   1.00
H456   H     0.72563   0.05359   0.47425   0.00000  Uiso   1.00
H457   H     0.55359   0.22562   0.52574   0.00000  Uiso   1.00
H458   H     0.94641   0.22562   0.47426   0.00000  Uiso   1.00
H459   H     0.77438   0.05359   0.52574   0.00000  Uiso   1.00
H460   H     0.77437   0.44641   0.47426   0.00000  Uiso   1.00
H461   H     0.63671   0.01355   0.11653   0.00000  Uiso   1.00
H462   H     0.66598   0.47513   0.10717   0.00000  Uiso   1.00
H463   H     0.64833   0.00309   0.06753   0.00000  Uiso   1.00
H464   H     0.80359   0.02437   0.97425   0.00000  Uiso   1.00
H465   H     0.86329   0.01353   0.88347   0.00000  Uiso   1.00
H466   H     0.83401   0.47511   0.89283   0.00000  Uiso   1.00
H467   H     0.85167   0.00306   0.93247   0.00000  Uiso   1.00
H468   H     0.98646   0.13671   0.11653   0.00000  Uiso   1.00
H469   H     0.52488   0.16598   0.10717   0.00000  Uiso   1.00
H470   H     0.99693   0.14833   0.06753   0.00000  Uiso   1.00
H471   H     0.98646   0.36329   0.88347   0.00000  Uiso   1.00
H472   H     0.52488   0.33402   0.89283   0.00000  Uiso   1.00
H473   H     0.99693   0.35167   0.93248   0.00000  Uiso   1.00
H474   H     0.86329   0.48645   0.11653   0.00000  Uiso   1.00
H475   H     0.97562   0.19641   0.02575   0.00000  Uiso   1.00
H476   H     0.83402   0.02487   0.10717   0.00000  Uiso   1.00
H477   H     0.85167   0.49691   0.06753   0.00000  Uiso   1.00
H478   H     0.63671   0.48647   0.88347   0.00000  Uiso   1.00
H479   H     0.66599   0.02489   0.89283   0.00000  Uiso   1.00
H480   H     0.64833   0.49694   0.93248   0.00000  Uiso   1.00
H481   H     0.51354   0.36329   0.11653   0.00000  Uiso   1.00
H482   H     0.97512   0.33402   0.10717   0.00000  Uiso   1.00
H483   H     0.50307   0.35167   0.06753   0.00000  Uiso   1.00
H484   H     0.51354   0.13671   0.88347   0.00000  Uiso   1.00
H485   H     0.97512   0.16598   0.89283   0.00000  Uiso   1.00
H486   H     0.97562   0.30359   0.97426   0.00000  Uiso   1.00
H487   H     0.50307   0.14833   0.93247   0.00000  Uiso   1.00
H488   H     0.88671   0.26354   0.61653   0.00000  Uiso   1.00
H489   H     0.91598   0.22512   0.60717   0.00000  Uiso   1.00
H490   H     0.89833   0.25307   0.56753   0.00000  Uiso   1.00
H491   H     0.61329   0.26354   0.38347   0.00000  Uiso   1.00
H492   H     0.58402   0.22512   0.39283   0.00000  Uiso   1.00
H493   H     0.60167   0.25307   0.43248   0.00000  Uiso   1.00
H494   H     0.73645   0.38671   0.61653   0.00000  Uiso   1.00
H495   H     0.77487   0.41598   0.60717   0.00000  Uiso   1.00
H496   H     0.74692   0.39833   0.56753   0.00000  Uiso   1.00
H497   H     0.80359   0.47562   0.02575   0.00000  Uiso   1.00
H498   H     0.73647   0.11329   0.38347   0.00000  Uiso   1.00
H499   H     0.77489   0.08401   0.39283   0.00000  Uiso   1.00
H500   H     0.74694   0.10167   0.43248   0.00000  Uiso   1.00
H501   H     0.61329   0.23646   0.61653   0.00000  Uiso   1.00
H502   H     0.58402   0.27488   0.60717   0.00000  Uiso   1.00
H503   H     0.60167   0.24693   0.56752   0.00000  Uiso   1.00
H504   H     0.88671   0.23646   0.38347   0.00000  Uiso   1.00
H505   H     0.91598   0.27488   0.39283   0.00000  Uiso   1.00
H506   H     0.89833   0.24693   0.43248   0.00000  Uiso   1.00
H507   H     0.76355   0.11329   0.61653   0.00000  Uiso   1.00
H508   H     0.69641   0.47563   0.97426   0.00000  Uiso   1.00
H509   H     0.72513   0.08402   0.60716   0.00000  Uiso   1.00
H510   H     0.75308   0.10167   0.56752   0.00000  Uiso   1.00
H511   H     0.76353   0.38671   0.38347   0.00000  Uiso   1.00
H512   H     0.72511   0.41599   0.39283   0.00000  Uiso   1.00
H513   H     0.75306   0.39833   0.43247   0.00000  Uiso   1.00
H514   H     0.52438   0.30359   0.02575   0.00000  Uiso   1.00
H515   H     0.52438   0.19641   0.97425   0.00000  Uiso   1.00
H516   H     0.94641   0.27438   0.52575   0.00000  Uiso   1.00
I517   I     0.68050   0.38898   0.16681   0.00000  Uiso   1.00
I518   I     0.81939   0.38884   0.16688   0.00000  Uiso   1.00
I519   I     0.61102   0.31950   0.83319   0.00000  Uiso   1.00
I520   I     0.88884   0.18061   0.16688   0.00000  Uiso   1.00
I521   I     0.81950   0.38898   0.83319   0.00000  Uiso   1.00
I522   I     0.68061   0.11116   0.16688   0.00000  Uiso   1.00
I523   I     0.88898   0.18050   0.83319   0.00000  Uiso   1.00
I524   I     0.61116   0.31939   0.16688   0.00000  Uiso   1.00
I525   I     0.93050   0.13898   0.66681   0.00000  Uiso   1.00
I526   I     0.56939   0.36116   0.33312   0.00000  Uiso   1.00
I527   I     0.86102   0.43050   0.66681   0.00000  Uiso   1.00
I528   I     0.81939   0.11116   0.83312   0.00000  Uiso   1.00
I529   I     0.63884   0.06939   0.33312   0.00000  Uiso   1.00
I530   I     0.56950   0.36102   0.66681   0.00000  Uiso   1.00
I531   I     0.93061   0.13884   0.33312   0.00000  Uiso   1.00
I532   I     0.63898   0.06950   0.66681   0.00000  Uiso   1.00
I533   I     0.86116   0.43061   0.33312   0.00000  Uiso   1.00
I534   I     0.93050   0.36102   0.33319   0.00000  Uiso   1.00
I535   I     0.56939   0.13884   0.66688   0.00000  Uiso   1.00
I536   I     0.86102   0.06950   0.33319   0.00000  Uiso   1.00
I537   I     0.63884   0.43061   0.66688   0.00000  Uiso   1.00
I538   I     0.56950   0.13898   0.33319   0.00000  Uiso   1.00
I539   I     0.61102   0.18050   0.16681   0.00000  Uiso   1.00
I540   I     0.93061   0.36116   0.66688   0.00000  Uiso   1.00
I541   I     0.63898   0.43050   0.33319   0.00000  Uiso   1.00
I542   I     0.86116   0.06939   0.66688   0.00000  Uiso   1.00
I543   I     0.88884   0.31939   0.83312   0.00000  Uiso   1.00
I544   I     0.81950   0.11102   0.16681   0.00000  Uiso   1.00
I545   I     0.68061   0.38884   0.83312   0.00000  Uiso   1.00
I546   I     0.88898   0.31950   0.16681   0.00000  Uiso   1.00
I547   I     0.61116   0.18061   0.83312   0.00000  Uiso   1.00
I548   I     0.68050   0.11102   0.83319   0.00000  Uiso   1.00
O549   O     0.75000   0.00000   0.25000   0.00000  Uiso   1.00
O550   O     0.75000   0.46964   0.66317   0.00000  Uiso   1.00
O551   O     0.96964   0.25000   0.33683   0.00000  Uiso   1.00
O552   O     0.53036   0.25000   0.66317   0.00000  Uiso   1.00
O553   O     0.50000   0.21964   0.83683   0.00000  Uiso   1.00
O554   O     0.50000   0.28036   0.16317   0.00000  Uiso   1.00
O555   O     0.78036   0.00000   0.83683   0.00000  Uiso   1.00
O556   O     0.71964   0.00000   0.16317   0.00000  Uiso   1.00
O557   O     0.50000   0.28036   0.83683   0.00000  Uiso   1.00
O558   O     0.50000   0.21964   0.16317   0.00000  Uiso   1.00
O559   O     0.71964   0.00000   0.83683   0.00000  Uiso   1.00
O560   O     0.75000   0.00000   0.75000   0.00000  Uiso   1.00
O561   O     0.78036   0.00000   0.16317   0.00000  Uiso   1.00
O562   O     0.70726   0.07307   0.27282   0.00000  Uiso   1.00
O563   O     0.79275   0.42693   0.72718   0.00000  Uiso   1.00
O564   O     0.92693   0.20726   0.27282   0.00000  Uiso   1.00
O565   O     0.57307   0.29275   0.72718   0.00000  Uiso   1.00
O566   O     0.79275   0.42693   0.27282   0.00000  Uiso   1.00
O567   O     0.70726   0.07307   0.72718   0.00000  Uiso   1.00
O568   O     0.57307   0.29275   0.27282   0.00000  Uiso   1.00
O569   O     0.92693   0.20726   0.72718   0.00000  Uiso   1.00
O570   O     0.70726   0.42693   0.72718   0.00000  Uiso   1.00
O571   O     0.50000   0.25000   0.25000   0.00000  Uiso   1.00
O572   O     0.79275   0.07307   0.27282   0.00000  Uiso   1.00
O573   O     0.92693   0.29275   0.72718   0.00000  Uiso   1.00
O574   O     0.57307   0.20726   0.27282   0.00000  Uiso   1.00
O575   O     0.79275   0.07307   0.72718   0.00000  Uiso   1.00
O576   O     0.70726   0.42693   0.27282   0.00000  Uiso   1.00
O577   O     0.57307   0.20726   0.72718   0.00000  Uiso   1.00
O578   O     0.92693   0.29275   0.27282   0.00000  Uiso   1.00
O579   O     0.95726   0.32307   0.77282   0.00000  Uiso   1.00
O580   O     0.54275   0.17693   0.22718   0.00000  Uiso   1.00
O581   O     0.67693   0.45726   0.77282   0.00000  Uiso   1.00
O582   O     0.50000   0.25000   0.75000   0.00000  Uiso   1.00
O583   O     0.82307   0.04275   0.22718   0.00000  Uiso   1.00
O584   O     0.54275   0.17693   0.77282   0.00000  Uiso   1.00
O585   O     0.95726   0.32307   0.22718   0.00000  Uiso   1.00
O586   O     0.82307   0.04275   0.77282   0.00000  Uiso   1.00
O587   O     0.67693   0.45726   0.22718   0.00000  Uiso   1.00
O588   O     0.95726   0.17693   0.22718   0.00000  Uiso   1.00
O589   O     0.54275   0.32307   0.77282   0.00000  Uiso   1.00
O590   O     0.67693   0.04275   0.22718   0.00000  Uiso   1.00
O591   O     0.82307   0.45726   0.77282   0.00000  Uiso   1.00
O592   O     0.54275   0.32307   0.22718   0.00000  Uiso   1.00
O593   O     0.75000   0.46964   0.33683   0.00000  Uiso   1.00
O594   O     0.95726   0.17693   0.77282   0.00000  Uiso   1.00
O595   O     0.82307   0.45726   0.22718   0.00000  Uiso   1.00
O596   O     0.67693   0.04275   0.77282   0.00000  Uiso   1.00
O597   O     0.68925   0.02733   0.10112   0.00000  Uiso   1.00
O598   O     0.81076   0.02732   0.89888   0.00000  Uiso   1.00
O599   O     0.97267   0.18924   0.10112   0.00000  Uiso   1.00
O600   O     0.97268   0.31076   0.89888   0.00000  Uiso   1.00
O601   O     0.81076   0.47267   0.10112   0.00000  Uiso   1.00
O602   O     0.68924   0.47268   0.89888   0.00000  Uiso   1.00
O603   O     0.52733   0.31076   0.10112   0.00000  Uiso   1.00
O604   O     0.75000   0.03036   0.66317   0.00000  Uiso   1.00
O605   O     0.52733   0.18924   0.89888   0.00000  Uiso   1.00
O606   O     0.93924   0.27733   0.60112   0.00000  Uiso   1.00
O607   O     0.56076   0.27733   0.39888   0.00000  Uiso   1.00
O608   O     0.72267   0.43924   0.60112   0.00000  Uiso   1.00
O609   O     0.72268   0.06076   0.39888   0.00000  Uiso   1.00
O610   O     0.56076   0.22268   0.60112   0.00000  Uiso   1.00
O611   O     0.93924   0.22267   0.39888   0.00000  Uiso   1.00
O612   O     0.77733   0.06076   0.60112   0.00000  Uiso   1.00
O613   O     0.77732   0.43924   0.39888   0.00000  Uiso   1.00
O614   O     0.53036   0.25000   0.33683   0.00000  Uiso   1.00
O615   O     0.96964   0.25000   0.66317   0.00000  Uiso   1.00
O616   O     0.75000   0.03036   0.33683   0.00000  Uiso   1.00
Zn617  Zn    0.70660   0.00000   0.21760   0.00000  Uiso   1.00
Zn618  Zn    0.54340   0.25000   0.28240   0.00000  Uiso   1.00
Zn619  Zn    0.75000   0.45660   0.71760   0.00000  Uiso   1.00
Zn620  Zn    0.75000   0.04340   0.28240   0.00000  Uiso   1.00
Zn621  Zn    0.54340   0.25000   0.71760   0.00000  Uiso   1.00
Zn622  Zn    0.95660   0.25000   0.28240   0.00000  Uiso   1.00
Zn623  Zn    0.75000   0.04340   0.71760   0.00000  Uiso   1.00
Zn624  Zn    0.75000   0.45660   0.28240   0.00000  Uiso   1.00
Zn625  Zn    0.79340   0.00000   0.78240   0.00000  Uiso   1.00
Zn626  Zn    0.50000   0.20660   0.21760   0.00000  Uiso   1.00
Zn627  Zn    0.50000   0.29340   0.78240   0.00000  Uiso   1.00
Zn628  Zn    0.79340   0.00000   0.21760   0.00000  Uiso   1.00
Zn629  Zn    0.70660   0.00000   0.78240   0.00000  Uiso   1.00
Zn630  Zn    0.50000   0.29340   0.21760   0.00000  Uiso   1.00
Zn631  Zn    0.50000   0.20660   0.78240   0.00000  Uiso   1.00
Zn632  Zn    0.95660   0.25000   0.71760   0.00000  Uiso   1.00
C633   C     0.21956   0.51313   0.04135   0.00000  Uiso   1.00
C634   C     0.03044   0.76313   0.45865   0.00000  Uiso   1.00
C635   C     0.34808   0.90192   0.75000   0.00000  Uiso   1.00
C636   C     0.40191   0.65191   0.25000   0.00000  Uiso   1.00
C637   C     0.09808   0.84808   0.75000   0.00000  Uiso   1.00
C638   C     0.34809   0.90191   0.25000   0.00000  Uiso   1.00
C639   C     0.15192   0.59808   0.75000   0.00000  Uiso   1.00
C640   C     0.09809   0.65191   0.75000   0.00000  Uiso   1.00
C641   C     0.40192   0.84808   0.25000   0.00000  Uiso   1.00
C642   C     0.15191   0.90191   0.75000   0.00000  Uiso   1.00
C643   C     0.34808   0.59808   0.25000   0.00000  Uiso   1.00
C644   C     0.40191   0.84809   0.75000   0.00000  Uiso   1.00
C645   C     0.23687   0.96956   0.54135   0.00000  Uiso   1.00
C646   C     0.09808   0.65192   0.25000   0.00000  Uiso   1.00
C647   C     0.34809   0.59809   0.75000   0.00000  Uiso   1.00
C648   C     0.15192   0.90192   0.25000   0.00000  Uiso   1.00
C649   C     0.25000   0.50000   0.10217   0.00000  Uiso   1.00
C650   C     0.25000   0.50000   0.89783   0.00000  Uiso   1.00
C651   C     0.00000   0.75000   0.10217   0.00000  Uiso   1.00
C652   C     0.00000   0.75000   0.89783   0.00000  Uiso   1.00
C653   C     0.00000   0.75000   0.60217   0.00000  Uiso   1.00
C654   C     0.00000   0.75000   0.39783   0.00000  Uiso   1.00
C655   C     0.25000   0.50000   0.60217   0.00000  Uiso   1.00
C656   C     0.23687   0.53044   0.45866   0.00000  Uiso   1.00
C657   C     0.25000   0.50000   0.39783   0.00000  Uiso   1.00
C658   C     0.15903   0.50344   0.09757   0.00000  Uiso   1.00
C659   C     0.34097   0.50342   0.90243   0.00000  Uiso   1.00
C660   C     0.49657   0.65903   0.09757   0.00000  Uiso   1.00
C661   C     0.49657   0.84097   0.90243   0.00000  Uiso   1.00
C662   C     0.34097   0.99656   0.09757   0.00000  Uiso   1.00
C663   C     0.15903   0.99658   0.90243   0.00000  Uiso   1.00
C664   C     0.00343   0.84097   0.09757   0.00000  Uiso   1.00
C665   C     0.00343   0.65903   0.90243   0.00000  Uiso   1.00
C666   C     0.40903   0.75343   0.59757   0.00000  Uiso   1.00
C667   C     0.03044   0.73687   0.54134   0.00000  Uiso   1.00
C668   C     0.09097   0.75343   0.40243   0.00000  Uiso   1.00
C669   C     0.24656   0.90903   0.59757   0.00000  Uiso   1.00
C670   C     0.24658   0.59097   0.40243   0.00000  Uiso   1.00
C671   C     0.09097   0.74657   0.59757   0.00000  Uiso   1.00
C672   C     0.40903   0.74657   0.40243   0.00000  Uiso   1.00
C673   C     0.25344   0.59097   0.59757   0.00000  Uiso   1.00
C674   C     0.25342   0.90903   0.40243   0.00000  Uiso   1.00
C675   C     0.46956   0.73687   0.45866   0.00000  Uiso   1.00
C676   C     0.26313   0.53044   0.54134   0.00000  Uiso   1.00
C677   C     0.26313   0.96956   0.45866   0.00000  Uiso   1.00
C678   C     0.21888   0.51248   0.08168   0.00000  Uiso   1.00
C679   C     0.28113   0.51247   0.91832   0.00000  Uiso   1.00
C680   C     0.48753   0.71888   0.08168   0.00000  Uiso   1.00
C681   C     0.28044   0.51313   0.95866   0.00000  Uiso   1.00
C682   C     0.48753   0.78112   0.91832   0.00000  Uiso   1.00
C683   C     0.28112   0.98752   0.08168   0.00000  Uiso   1.00
C684   C     0.21887   0.98753   0.91832   0.00000  Uiso   1.00
C685   C     0.01247   0.78112   0.08168   0.00000  Uiso   1.00
C686   C     0.01247   0.71888   0.91832   0.00000  Uiso   1.00
C687   C     0.46888   0.76247   0.58168   0.00000  Uiso   1.00
C688   C     0.03112   0.76247   0.41832   0.00000  Uiso   1.00
C689   C     0.23752   0.96888   0.58168   0.00000  Uiso   1.00
C690   C     0.23753   0.53113   0.41832   0.00000  Uiso   1.00
C691   C     0.03112   0.73753   0.58168   0.00000  Uiso   1.00
C692   C     0.48687   0.71956   0.04135   0.00000  Uiso   1.00
C693   C     0.46888   0.73753   0.41832   0.00000  Uiso   1.00
C694   C     0.26248   0.53112   0.58168   0.00000  Uiso   1.00
C695   C     0.26247   0.96887   0.41832   0.00000  Uiso   1.00
C696   C     0.25000   0.50000   0.02116   0.00000  Uiso   1.00
C697   C     0.25000   0.50000   0.97884   0.00000  Uiso   1.00
C698   C     0.00000   0.75000   0.02116   0.00000  Uiso   1.00
C699   C     0.00000   0.75000   0.97884   0.00000  Uiso   1.00
C700   C     0.00000   0.75000   0.52116   0.00000  Uiso   1.00
C701   C     0.00000   0.75000   0.47884   0.00000  Uiso   1.00
C702   C     0.25000   0.50000   0.52116   0.00000  Uiso   1.00
C703   C     0.48687   0.78044   0.95866   0.00000  Uiso   1.00
C704   C     0.25000   0.50000   0.47884   0.00000  Uiso   1.00
C705   C     0.25000   0.50000   0.35532   0.00000  Uiso   1.00
C706   C     0.25000   0.50000   0.64468   0.00000  Uiso   1.00
C707   C     0.00000   0.75000   0.35532   0.00000  Uiso   1.00
C708   C     0.00000   0.75000   0.64468   0.00000  Uiso   1.00
C709   C     0.00000   0.75000   0.85532   0.00000  Uiso   1.00
C710   C     0.00000   0.75000   0.14468   0.00000  Uiso   1.00
C711   C     0.25000   0.50000   0.85532   0.00000  Uiso   1.00
C712   C     0.25000   0.50000   0.14468   0.00000  Uiso   1.00
C713   C     0.17998   0.57002   0.25000   0.00000  Uiso   1.00
C714   C     0.28044   0.98687   0.04135   0.00000  Uiso   1.00
C715   C     0.32002   0.92998   0.75000   0.00000  Uiso   1.00
C716   C     0.42998   0.67998   0.25000   0.00000  Uiso   1.00
C717   C     0.07002   0.82002   0.75000   0.00000  Uiso   1.00
C718   C     0.32002   0.92998   0.25000   0.00000  Uiso   1.00
C719   C     0.17998   0.57002   0.75000   0.00000  Uiso   1.00
C720   C     0.07002   0.82002   0.25000   0.00000  Uiso   1.00
C721   C     0.42998   0.67998   0.75000   0.00000  Uiso   1.00
C722   C     0.17998   0.92998   0.75000   0.00000  Uiso   1.00
C723   C     0.32002   0.57002   0.25000   0.00000  Uiso   1.00
C724   C     0.42998   0.82002   0.75000   0.00000  Uiso   1.00
C725   C     0.21956   0.98687   0.95866   0.00000  Uiso   1.00
C726   C     0.07002   0.67998   0.25000   0.00000  Uiso   1.00
C727   C     0.32002   0.57002   0.75000   0.00000  Uiso   1.00
C728   C     0.17998   0.92998   0.25000   0.00000  Uiso   1.00
C729   C     0.07002   0.67998   0.75000   0.00000  Uiso   1.00
C730   C     0.42998   0.82002   0.25000   0.00000  Uiso   1.00
C731   C     0.14640   0.88075   0.21654   0.00000  Uiso   1.00
C732   C     0.35359   0.61928   0.78345   0.00000  Uiso   1.00
C733   C     0.11925   0.64640   0.21654   0.00000  Uiso   1.00
C734   C     0.38072   0.85359   0.78345   0.00000  Uiso   1.00
C735   C     0.35360   0.61925   0.21654   0.00000  Uiso   1.00
C736   C     0.01313   0.78044   0.04135   0.00000  Uiso   1.00
C737   C     0.14641   0.88072   0.78345   0.00000  Uiso   1.00
C738   C     0.38075   0.85360   0.21654   0.00000  Uiso   1.00
C739   C     0.11928   0.64641   0.78345   0.00000  Uiso   1.00
C740   C     0.14640   0.61925   0.78346   0.00000  Uiso   1.00
C741   C     0.35359   0.88072   0.21655   0.00000  Uiso   1.00
C742   C     0.11925   0.85360   0.78346   0.00000  Uiso   1.00
C743   C     0.38072   0.64641   0.21655   0.00000  Uiso   1.00
C744   C     0.35360   0.88075   0.78346   0.00000  Uiso   1.00
C745   C     0.14641   0.61928   0.21655   0.00000  Uiso   1.00
C746   C     0.38075   0.64640   0.78346   0.00000  Uiso   1.00
C747   C     0.01313   0.71956   0.95865   0.00000  Uiso   1.00
C748   C     0.11928   0.85359   0.21655   0.00000  Uiso   1.00
C749   C     0.39640   0.63075   0.71654   0.00000  Uiso   1.00
C750   C     0.10359   0.86928   0.28345   0.00000  Uiso   1.00
C751   C     0.36925   0.89640   0.71654   0.00000  Uiso   1.00
C752   C     0.13072   0.60359   0.28345   0.00000  Uiso   1.00
C753   C     0.10360   0.86925   0.71654   0.00000  Uiso   1.00
C754   C     0.39641   0.63072   0.28345   0.00000  Uiso   1.00
C755   C     0.13075   0.60360   0.71654   0.00000  Uiso   1.00
C756   C     0.36928   0.89641   0.28345   0.00000  Uiso   1.00
C757   C     0.39640   0.86925   0.28346   0.00000  Uiso   1.00
C758   C     0.46956   0.76313   0.54134   0.00000  Uiso   1.00
C759   C     0.10359   0.63072   0.71655   0.00000  Uiso   1.00
C760   C     0.36925   0.60360   0.28346   0.00000  Uiso   1.00
C761   C     0.13072   0.89641   0.71655   0.00000  Uiso   1.00
C762   C     0.10360   0.63075   0.28346   0.00000  Uiso   1.00
C763   C     0.39641   0.86928   0.71655   0.00000  Uiso   1.00
C764   C     0.13075   0.89640   0.28346   0.00000  Uiso   1.00
C765   C     0.36928   0.60359   0.71655   0.00000  Uiso   1.00
C766   C     0.09809   0.84809   0.25000   0.00000  Uiso   1.00
C767   C     0.40192   0.65192   0.75000   0.00000  Uiso   1.00
C768   C     0.15191   0.59809   0.25000   0.00000  Uiso   1.00
H769   H     0.19641   0.52438   0.02575   0.00000  Uiso   1.00
H770   H     0.05359   0.77438   0.47426   0.00000  Uiso   1.00
H771   H     0.22562   0.94641   0.52575   0.00000  Uiso   1.00
H772   H     0.22563   0.55359   0.47425   0.00000  Uiso   1.00
H773   H     0.05359   0.72562   0.52574   0.00000  Uiso   1.00
H774   H     0.44641   0.72562   0.47426   0.00000  Uiso   1.00
H775   H     0.27438   0.55359   0.52574   0.00000  Uiso   1.00
H776   H     0.27437   0.94641   0.47426   0.00000  Uiso   1.00
H777   H     0.13671   0.51355   0.11653   0.00000  Uiso   1.00
H778   H     0.16598   0.97513   0.10717   0.00000  Uiso   1.00
H779   H     0.14833   0.50309   0.06753   0.00000  Uiso   1.00
H780   H     0.30359   0.52437   0.97425   0.00000  Uiso   1.00
H781   H     0.36329   0.51353   0.88347   0.00000  Uiso   1.00
H782   H     0.33401   0.97511   0.89283   0.00000  Uiso   1.00
H783   H     0.35167   0.50306   0.93247   0.00000  Uiso   1.00
H784   H     0.48646   0.63671   0.11653   0.00000  Uiso   1.00
H785   H     0.02488   0.66598   0.10717   0.00000  Uiso   1.00
H786   H     0.49693   0.64833   0.06753   0.00000  Uiso   1.00
H787   H     0.48646   0.86329   0.88347   0.00000  Uiso   1.00
H788   H     0.02488   0.83402   0.89283   0.00000  Uiso   1.00
H789   H     0.49693   0.85167   0.93248   0.00000  Uiso   1.00
H790   H     0.36329   0.98645   0.11653   0.00000  Uiso   1.00
H791   H     0.47562   0.69641   0.02575   0.00000  Uiso   1.00
H792   H     0.33402   0.52487   0.10717   0.00000  Uiso   1.00
H793   H     0.35167   0.99691   0.06753   0.00000  Uiso   1.00
H794   H     0.13671   0.98647   0.88347   0.00000  Uiso   1.00
H795   H     0.16599   0.52489   0.89283   0.00000  Uiso   1.00
H796   H     0.14833   0.99694   0.93248   0.00000  Uiso   1.00
H797   H     0.01354   0.86329   0.11653   0.00000  Uiso   1.00
H798   H     0.47512   0.83402   0.10717   0.00000  Uiso   1.00
H799   H     0.00307   0.85167   0.06753   0.00000  Uiso   1.00
H800   H     0.01354   0.63671   0.88347   0.00000  Uiso   1.00
H801   H     0.47512   0.66598   0.89283   0.00000  Uiso   1.00
H802   H     0.47562   0.80359   0.97426   0.00000  Uiso   1.00
H803   H     0.00307   0.64833   0.93247   0.00000  Uiso   1.00
H804   H     0.38671   0.76354   0.61653   0.00000  Uiso   1.00
H805   H     0.41598   0.72512   0.60717   0.00000  Uiso   1.00
H806   H     0.39833   0.75307   0.56753   0.00000  Uiso   1.00
H807   H     0.11329   0.76354   0.38347   0.00000  Uiso   1.00
H808   H     0.08402   0.72512   0.39283   0.00000  Uiso   1.00
H809   H     0.10167   0.75307   0.43248   0.00000  Uiso   1.00
H810   H     0.23645   0.88671   0.61653   0.00000  Uiso   1.00
H811   H     0.27487   0.91598   0.60717   0.00000  Uiso   1.00
H812   H     0.24692   0.89833   0.56753   0.00000  Uiso   1.00
H813   H     0.30359   0.97562   0.02575   0.00000  Uiso   1.00
H814   H     0.23647   0.61329   0.38347   0.00000  Uiso   1.00
H815   H     0.27489   0.58401   0.39283   0.00000  Uiso   1.00
H816   H     0.24694   0.60167   0.43248   0.00000  Uiso   1.00
H817   H     0.11329   0.73646   0.61653   0.00000  Uiso   1.00
H818   H     0.08402   0.77488   0.60717   0.00000  Uiso   1.00
H819   H     0.10167   0.74693   0.56752   0.00000  Uiso   1.00
H820   H     0.38671   0.73646   0.38347   0.00000  Uiso   1.00
H821   H     0.41598   0.77488   0.39283   0.00000  Uiso   1.00
H822   H     0.39833   0.74693   0.43248   0.00000  Uiso   1.00
H823   H     0.26355   0.61329   0.61653   0.00000  Uiso   1.00
H824   H     0.19641   0.97563   0.97426   0.00000  Uiso   1.00
H825   H     0.22513   0.58402   0.60716   0.00000  Uiso   1.00
H826   H     0.25308   0.60167   0.56752   0.00000  Uiso   1.00
H827   H     0.26353   0.88671   0.38347   0.00000  Uiso   1.00
H828   H     0.22511   0.91599   0.39283   0.00000  Uiso   1.00
H829   H     0.25306   0.89833   0.43247   0.00000  Uiso   1.00
H830   H     0.02438   0.80359   0.02575   0.00000  Uiso   1.00
H831   H     0.02438   0.69641   0.97425   0.00000  Uiso   1.00
H832   H     0.44641   0.77438   0.52575   0.00000  Uiso   1.00
I833   I     0.18050   0.88898   0.16681   0.00000  Uiso   1.00
I834   I     0.31939   0.88884   0.16688   0.00000  Uiso   1.00
I835   I     0.11102   0.81950   0.83319   0.00000  Uiso   1.00
I836   I     0.38884   0.68061   0.16688   0.00000  Uiso   1.00
I837   I     0.31950   0.88898   0.83319   0.00000  Uiso   1.00
I838   I     0.18061   0.61116   0.16688   0.00000  Uiso   1.00
I839   I     0.38898   0.68050   0.83319   0.00000  Uiso   1.00
I840   I     0.11116   0.81939   0.16688   0.00000  Uiso   1.00
I841   I     0.43050   0.63898   0.66681   0.00000  Uiso   1.00
I842   I     0.06939   0.86116   0.33312   0.00000  Uiso   1.00
I843   I     0.36102   0.93050   0.66681   0.00000  Uiso   1.00
I844   I     0.31939   0.61116   0.83312   0.00000  Uiso   1.00
I845   I     0.13884   0.56939   0.33312   0.00000  Uiso   1.00
I846   I     0.06950   0.86102   0.66681   0.00000  Uiso   1.00
I847   I     0.43061   0.63884   0.33312   0.00000  Uiso   1.00
I848   I     0.13898   0.56950   0.66681   0.00000  Uiso   1.00
I849   I     0.36116   0.93061   0.33312   0.00000  Uiso   1.00
I850   I     0.43050   0.86102   0.33319   0.00000  Uiso   1.00
I851   I     0.06939   0.63884   0.66688   0.00000  Uiso   1.00
I852   I     0.36102   0.56950   0.33319   0.00000  Uiso   1.00
I853   I     0.13884   0.93061   0.66688   0.00000  Uiso   1.00
I854   I     0.06950   0.63898   0.33319   0.00000  Uiso   1.00
I855   I     0.11102   0.68050   0.16681   0.00000  Uiso   1.00
I856   I     0.43061   0.86116   0.66688   0.00000  Uiso   1.00
I857   I     0.13898   0.93050   0.33319   0.00000  Uiso   1.00
I858   I     0.36116   0.56939   0.66688   0.00000  Uiso   1.00
I859   I     0.38884   0.81939   0.83312   0.00000  Uiso   1.00
I860   I     0.31950   0.61102   0.16681   0.00000  Uiso   1.00
I861   I     0.18061   0.88884   0.83312   0.00000  Uiso   1.00
I862   I     0.38898   0.81950   0.16681   0.00000  Uiso   1.00
I863   I     0.11116   0.68061   0.83312   0.00000  Uiso   1.00
I864   I     0.18050   0.61102   0.83319   0.00000  Uiso   1.00
O865   O     0.25000   0.50000   0.25000   0.00000  Uiso   1.00
O866   O     0.25000   0.96964   0.66317   0.00000  Uiso   1.00
O867   O     0.46964   0.75000   0.33683   0.00000  Uiso   1.00
O868   O     0.03036   0.75000   0.66317   0.00000  Uiso   1.00
O869   O     0.00000   0.71964   0.83683   0.00000  Uiso   1.00
O870   O     0.00000   0.78036   0.16317   0.00000  Uiso   1.00
O871   O     0.28036   0.50000   0.83683   0.00000  Uiso   1.00
O872   O     0.21964   0.50000   0.16317   0.00000  Uiso   1.00
O873   O     0.00000   0.78036   0.83683   0.00000  Uiso   1.00
O874   O     0.00000   0.71964   0.16317   0.00000  Uiso   1.00
O875   O     0.21964   0.50000   0.83683   0.00000  Uiso   1.00
O876   O     0.25000   0.50000   0.75000   0.00000  Uiso   1.00
O877   O     0.28036   0.50000   0.16317   0.00000  Uiso   1.00
O878   O     0.20726   0.57307   0.27282   0.00000  Uiso   1.00
O879   O     0.29275   0.92693   0.72718   0.00000  Uiso   1.00
O880   O     0.42693   0.70726   0.27282   0.00000  Uiso   1.00
O881   O     0.07307   0.79275   0.72718   0.00000  Uiso   1.00
O882   O     0.29275   0.92693   0.27282   0.00000  Uiso   1.00
O883   O     0.20726   0.57307   0.72718   0.00000  Uiso   1.00
O884   O     0.07307   0.79275   0.27282   0.00000  Uiso   1.00
O885   O     0.42693   0.70726   0.72718   0.00000  Uiso   1.00
O886   O     0.20726   0.92693   0.72718   0.00000  Uiso   1.00
O887   O     0.00000   0.75000   0.25000   0.00000  Uiso   1.00
O888   O     0.29275   0.57307   0.27282   0.00000  Uiso   1.00
O889   O     0.42693   0.79275   0.72718   0.00000  Uiso   1.00
O890   O     0.07307   0.70726   0.27282   0.00000  Uiso   1.00
O891   O     0.29275   0.57307   0.72718   0.00000  Uiso   1.00
O892   O     0.20726   0.92693   0.27282   0.00000  Uiso   1.00
O893   O     0.07307   0.70726   0.72718   0.00000  Uiso   1.00
O894   O     0.42693   0.79275   0.27282   0.00000  Uiso   1.00
O895   O     0.45726   0.82307   0.77282   0.00000  Uiso   1.00
O896   O     0.04275   0.67693   0.22718   0.00000  Uiso   1.00
O897   O     0.17693   0.95726   0.77282   0.00000  Uiso   1.00
O898   O     0.00000   0.75000   0.75000   0.00000  Uiso   1.00
O899   O     0.32307   0.54275   0.22718   0.00000  Uiso   1.00
O900   O     0.04275   0.67693   0.77282   0.00000  Uiso   1.00
O901   O     0.45726   0.82307   0.22718   0.00000  Uiso   1.00
O902   O     0.32307   0.54275   0.77282   0.00000  Uiso   1.00
O903   O     0.17693   0.95726   0.22718   0.00000  Uiso   1.00
O904   O     0.45726   0.67693   0.22718   0.00000  Uiso   1.00
O905   O     0.04275   0.82307   0.77282   0.00000  Uiso   1.00
O906   O     0.17693   0.54275   0.22718   0.00000  Uiso   1.00
O907   O     0.32307   0.95726   0.77282   0.00000  Uiso   1.00
O908   O     0.04275   0.82307   0.22718   0.00000  Uiso   1.00
O909   O     0.25000   0.96964   0.33683   0.00000  Uiso   1.00
O910   O     0.45726   0.67693   0.77282   0.00000  Uiso   1.00
O911   O     0.32307   0.95726   0.22718   0.00000  Uiso   1.00
O912   O     0.17693   0.54275   0.77282   0.00000  Uiso   1.00
O913   O     0.18925   0.52733   0.10112   0.00000  Uiso   1.00
O914   O     0.31076   0.52732   0.89888   0.00000  Uiso   1.00
O915   O     0.47267   0.68924   0.10112   0.00000  Uiso   1.00
O916   O     0.47268   0.81076   0.89888   0.00000  Uiso   1.00
O917   O     0.31076   0.97267   0.10112   0.00000  Uiso   1.00
O918   O     0.18924   0.97268   0.89888   0.00000  Uiso   1.00
O919   O     0.02733   0.81076   0.10112   0.00000  Uiso   1.00
O920   O     0.25000   0.53036   0.66317   0.00000  Uiso   1.00
O921   O     0.02733   0.68924   0.89888   0.00000  Uiso   1.00
O922   O     0.43924   0.77733   0.60112   0.00000  Uiso   1.00
O923   O     0.06076   0.77733   0.39888   0.00000  Uiso   1.00
O924   O     0.22267   0.93924   0.60112   0.00000  Uiso   1.00
O925   O     0.22268   0.56076   0.39888   0.00000  Uiso   1.00
O926   O     0.06076   0.72268   0.60112   0.00000  Uiso   1.00
O927   O     0.43924   0.72267   0.39888   0.00000  Uiso   1.00
O928   O     0.27733   0.56076   0.60112   0.00000  Uiso   1.00
O929   O     0.27732   0.93924   0.39888   0.00000  Uiso   1.00
O930   O     0.03036   0.75000   0.33683   0.00000  Uiso   1.00
O931   O     0.46964   0.75000   0.66317   0.00000  Uiso   1.00
O932   O     0.25000   0.53036   0.33683   0.00000  Uiso   1.00
Zn933  Zn    0.20660   0.50000   0.21760   0.00000  Uiso   1.00
Zn934  Zn    0.04340   0.75000   0.28240   0.00000  Uiso   1.00
Zn935  Zn    0.25000   0.95660   0.71760   0.00000  Uiso   1.00
Zn936  Zn    0.25000   0.54340   0.28240   0.00000  Uiso   1.00
Zn937  Zn    0.04340   0.75000   0.71760   0.00000  Uiso   1.00
Zn938  Zn    0.45660   0.75000   0.28240   0.00000  Uiso   1.00
Zn939  Zn    0.25000   0.54340   0.71760   0.00000  Uiso   1.00
Zn940  Zn    0.25000   0.95660   0.28240   0.00000  Uiso   1.00
Zn941  Zn    0.29340   0.50000   0.78240   0.00000  Uiso   1.00
Zn942  Zn    0.00000   0.70660   0.21760   0.00000  Uiso   1.00
Zn943  Zn    0.00000   0.79340   0.78240   0.00000  Uiso   1.00
Zn944  Zn    0.29340   0.50000   0.21760   0.00000  Uiso   1.00
Zn945  Zn    0.20660   0.50000   0.78240   0.00000  Uiso   1.00
Zn946  Zn    0.00000   0.79340   0.21760   0.00000  Uiso   1.00
Zn947  Zn    0.00000   0.70660   0.78240   0.00000  Uiso   1.00
Zn948  Zn    0.45660   0.75000   0.71760   0.00000  Uiso   1.00
C949   C     0.71956   0.51313   0.04135   0.00000  Uiso   1.00
C950   C     0.53044   0.76313   0.45865   0.00000  Uiso   1.00
C951   C     0.84808   0.90192   0.75000   0.00000  Uiso   1.00
C952   C     0.90191   0.65191   0.25000   0.00000  Uiso   1.00
C953   C     0.59808   0.84808   0.75000   0.00000  Uiso   1.00
C954   C     0.84809   0.90191   0.25000   0.00000  Uiso   1.00
C955   C     0.65192   0.59808   0.75000   0.00000  Uiso   1.00
C956   C     0.59809   0.65191   0.75000   0.00000  Uiso   1.00
C957   C     0.90192   0.84808   0.25000   0.00000  Uiso   1.00
C958   C     0.65191   0.90191   0.75000   0.00000  Uiso   1.00
C959   C     0.84808   0.59808   0.25000   0.00000  Uiso   1.00
C960   C     0.90191   0.84809   0.75000   0.00000  Uiso   1.00
C961   C     0.73687   0.96956   0.54135   0.00000  Uiso   1.00
C962   C     0.59808   0.65192   0.25000   0.00000  Uiso   1.00
C963   C     0.84809   0.59809   0.75000   0.00000  Uiso   1.00
C964   C     0.65192   0.90192   0.25000   0.00000  Uiso   1.00
C965   C     0.75000   0.50000   0.10217   0.00000  Uiso   1.00
C966   C     0.75000   0.50000   0.89783   0.00000  Uiso   1.00
C967   C     0.50000   0.75000   0.10217   0.00000  Uiso   1.00
C968   C     0.50000   0.75000   0.89783   0.00000  Uiso   1.00
C969   C     0.50000   0.75000   0.60217   0.00000  Uiso   1.00
C970   C     0.50000   0.75000   0.39783   0.00000  Uiso   1.00
C971   C     0.75000   0.50000   0.60217   0.00000  Uiso   1.00
C972   C     0.73687   0.53044   0.45866   0.00000  Uiso   1.00
C973   C     0.75000   0.50000   0.39783   0.00000  Uiso   1.00
C974   C     0.65903   0.50344   0.09757   0.00000  Uiso   1.00
C975   C     0.84097   0.50342   0.90243   0.00000  Uiso   1.00
C976   C     0.99657   0.65903   0.09757   0.00000  Uiso   1.00
C977   C     0.99657   0.84097   0.90243   0.00000  Uiso   1.00
C978   C     0.84097   0.99656   0.09757   0.00000  Uiso   1.00
C979   C     0.65903   0.99658   0.90243   0.00000  Uiso   1.00
C980   C     0.50343   0.84097   0.09757   0.00000  Uiso   1.00
C981   C     0.50343   0.65903   0.90243   0.00000  Uiso   1.00
C982   C     0.90903   0.75343   0.59757   0.00000  Uiso   1.00
C983   C     0.53044   0.73687   0.54134   0.00000  Uiso   1.00
C984   C     0.59097   0.75343   0.40243   0.00000  Uiso   1.00
C985   C     0.74656   0.90903   0.59757   0.00000  Uiso   1.00
C986   C     0.74658   0.59097   0.40243   0.00000  Uiso   1.00
C987   C     0.59097   0.74657   0.59757   0.00000  Uiso   1.00
C988   C     0.90903   0.74657   0.40243   0.00000  Uiso   1.00
C989   C     0.75344   0.59097   0.59757   0.00000  Uiso   1.00
C990   C     0.75342   0.90903   0.40243   0.00000  Uiso   1.00
C991   C     0.96956   0.73687   0.45866   0.00000  Uiso   1.00
C992   C     0.76313   0.53044   0.54134   0.00000  Uiso   1.00
C993   C     0.76313   0.96956   0.45866   0.00000  Uiso   1.00
C994   C     0.71888   0.51248   0.08168   0.00000  Uiso   1.00
C995   C     0.78113   0.51247   0.91832   0.00000  Uiso   1.00
C996   C     0.98753   0.71888   0.08168   0.00000  Uiso   1.00
C997   C     0.78044   0.51313   0.95866   0.00000  Uiso   1.00
C998   C     0.98753   0.78112   0.91832   0.00000  Uiso   1.00
C999   C     0.78112   0.98752   0.08168   0.00000  Uiso   1.00
C1000  C     0.71887   0.98753   0.91832   0.00000  Uiso   1.00
C1001  C     0.51247   0.78112   0.08168   0.00000  Uiso   1.00
C1002  C     0.51247   0.71888   0.91832   0.00000  Uiso   1.00
C1003  C     0.96888   0.76247   0.58168   0.00000  Uiso   1.00
C1004  C     0.53112   0.76247   0.41832   0.00000  Uiso   1.00
C1005  C     0.73752   0.96888   0.58168   0.00000  Uiso   1.00
C1006  C     0.73753   0.53113   0.41832   0.00000  Uiso   1.00
C1007  C     0.53112   0.73753   0.58168   0.00000  Uiso   1.00
C1008  C     0.98687   0.71956   0.04135   0.00000  Uiso   1.00
C1009  C     0.96888   0.73753   0.41832   0.00000  Uiso   1.00
C1010  C     0.76248   0.53112   0.58168   0.00000  Uiso   1.00
C1011  C     0.76247   0.96887   0.41832   0.00000  Uiso   1.00
C1012  C     0.75000   0.50000   0.02116   0.00000  Uiso   1.00
C1013  C     0.75000   0.50000   0.97884   0.00000  Uiso   1.00
C1014  C     0.50000   0.75000   0.02116   0.00000  Uiso   1.00
C1015  C     0.50000   0.75000   0.97884   0.00000  Uiso   1.00
C1016  C     0.50000   0.75000   0.52116   0.00000  Uiso   1.00
C1017  C     0.50000   0.75000   0.47884   0.00000  Uiso   1.00
C1018  C     0.75000   0.50000   0.52116   0.00000  Uiso   1.00
C1019  C     0.98687   0.78044   0.95866   0.00000  Uiso   1.00
C1020  C     0.75000   0.50000   0.47884   0.00000  Uiso   1.00
C1021  C     0.75000   0.50000   0.35532   0.00000  Uiso   1.00
C1022  C     0.75000   0.50000   0.64468   0.00000  Uiso   1.00
C1023  C     0.50000   0.75000   0.35532   0.00000  Uiso   1.00
C1024  C     0.50000   0.75000   0.64468   0.00000  Uiso   1.00
C1025  C     0.50000   0.75000   0.85532   0.00000  Uiso   1.00
C1026  C     0.50000   0.75000   0.14468   0.00000  Uiso   1.00
C1027  C     0.75000   0.50000   0.85532   0.00000  Uiso   1.00
C1028  C     0.75000   0.50000   0.14468   0.00000  Uiso   1.00
C1029  C     0.67998   0.57002   0.25000   0.00000  Uiso   1.00
C1030  C     0.78044   0.98687   0.04135   0.00000  Uiso   1.00
C1031  C     0.82002   0.92998   0.75000   0.00000  Uiso   1.00
C1032  C     0.92998   0.67998   0.25000   0.00000  Uiso   1.00
C1033  C     0.57002   0.82002   0.75000   0.00000  Uiso   1.00
C1034  C     0.82002   0.92998   0.25000   0.00000  Uiso   1.00
C1035  C     0.67998   0.57002   0.75000   0.00000  Uiso   1.00
C1036  C     0.57002   0.82002   0.25000   0.00000  Uiso   1.00
C1037  C     0.92998   0.67998   0.75000   0.00000  Uiso   1.00
C1038  C     0.67998   0.92998   0.75000   0.00000  Uiso   1.00
C1039  C     0.82002   0.57002   0.25000   0.00000  Uiso   1.00
C1040  C     0.92998   0.82002   0.75000   0.00000  Uiso   1.00
C1041  C     0.71956   0.98687   0.95866   0.00000  Uiso   1.00
C1042  C     0.57002   0.67998   0.25000   0.00000  Uiso   1.00
C1043  C     0.82002   0.57002   0.75000   0.00000  Uiso   1.00
C1044  C     0.67998   0.92998   0.25000   0.00000  Uiso   1.00
C1045  C     0.57002   0.67998   0.75000   0.00000  Uiso   1.00
C1046  C     0.92998   0.82002   0.25000   0.00000  Uiso   1.00
C1047  C     0.64640   0.88075   0.21654   0.00000  Uiso   1.00
C1048  C     0.85359   0.61928   0.78345   0.00000  Uiso   1.00
C1049  C     0.61925   0.64640   0.21654   0.00000  Uiso   1.00
C1050  C     0.88072   0.85359   0.78345   0.00000  Uiso   1.00
C1051  C     0.85360   0.61925   0.21654   0.00000  Uiso   1.00
C1052  C     0.51313   0.78044   0.04135   0.00000  Uiso   1.00
C1053  C     0.64641   0.88072   0.78345   0.00000  Uiso   1.00
C1054  C     0.88075   0.85360   0.21654   0.00000  Uiso   1.00
C1055  C     0.61928   0.64641   0.78345   0.00000  Uiso   1.00
C1056  C     0.64640   0.61925   0.78346   0.00000  Uiso   1.00
C1057  C     0.85359   0.88072   0.21655   0.00000  Uiso   1.00
C1058  C     0.61925   0.85360   0.78346   0.00000  Uiso   1.00
C1059  C     0.88072   0.64641   0.21655   0.00000  Uiso   1.00
C1060  C     0.85360   0.88075   0.78346   0.00000  Uiso   1.00
C1061  C     0.64641   0.61928   0.21655   0.00000  Uiso   1.00
C1062  C     0.88075   0.64640   0.78346   0.00000  Uiso   1.00
C1063  C     0.51313   0.71956   0.95865   0.00000  Uiso   1.00
C1064  C     0.61928   0.85359   0.21655   0.00000  Uiso   1.00
C1065  C     0.89640   0.63075   0.71654   0.00000  Uiso   1.00
C1066  C     0.60359   0.86928   0.28345   0.00000  Uiso   1.00
C1067  C     0.86925   0.89640   0.71654   0.00000  Uiso   1.00
C1068  C     0.63072   0.60359   0.28345   0.00000  Uiso   1.00
C1069  C     0.60360   0.86925   0.71654   0.00000  Uiso   1.00
C1070  C     0.89641   0.63072   0.28345   0.00000  Uiso   1.00
C1071  C     0.63075   0.60360   0.71654   0.00000  Uiso   1.00
C1072  C     0.86928   0.89641   0.28345   0.00000  Uiso   1.00
C1073  C     0.89640   0.86925   0.28346   0.00000  Uiso   1.00
C1074  C     0.96956   0.76313   0.54134   0.00000  Uiso   1.00
C1075  C     0.60359   0.63072   0.71655   0.00000  Uiso   1.00
C1076  C     0.86925   0.60360   0.28346   0.00000  Uiso   1.00
C1077  C     0.63072   0.89641   0.71655   0.00000  Uiso   1.00
C1078  C     0.60360   0.63075   0.28346   0.00000  Uiso   1.00
C1079  C     0.89641   0.86928   0.71655   0.00000  Uiso   1.00
C1080  C     0.63075   0.89640   0.28346   0.00000  Uiso   1.00
C1081  C     0.86928   0.60359   0.71655   0.00000  Uiso   1.00
C1082  C     0.59809   0.84809   0.25000   0.00000  Uiso   1.00
C1083  C     0.90192   0.65192   0.75000   0.00000  Uiso   1.00
C1084  C     0.65191   0.59809   0.25000   0.00000  Uiso   1.00
H1085  H     0.69641   0.52438   0.02575   0.00000  Uiso   1.00
H1086  H     0.55359   0.77438   0.47426   0.00000  Uiso   1.00
H1087  H     0.72562   0.94641   0.52575   0.00000  Uiso   1.00
H1088  H     0.72563   0.55359   0.47425   0.00000  Uiso   1.00
H1089  H     0.55359   0.72562   0.52574   0.00000  Uiso   1.00
H1090  H     0.94641   0.72562   0.47426   0.00000  Uiso   1.00
H1091  H     0.77438   0.55359   0.52574   0.00000  Uiso   1.00
H1092  H     0.77437   0.94641   0.47426   0.00000  Uiso   1.00
H1093  H     0.63671   0.51355   0.11653   0.00000  Uiso   1.00
H1094  H     0.66598   0.97513   0.10717   0.00000  Uiso   1.00
H1095  H     0.64833   0.50309   0.06753   0.00000  Uiso   1.00
H1096  H     0.80359   0.52437   0.97425   0.00000  Uiso   1.00
H1097  H     0.86329   0.51353   0.88347   0.00000  Uiso   1.00
H1098  H     0.83401   0.97511   0.89283   0.00000  Uiso   1.00
H1099  H     0.85167   0.50306   0.93247   0.00000  Uiso   1.00
H1100  H     0.98646   0.63671   0.11653   0.00000  Uiso   1.00
H1101  H     0.52488   0.66598   0.10717   0.00000  Uiso   1.00
H1102  H     0.99693   0.64833   0.06753   0.00000  Uiso   1.00
H1103  H     0.98646   0.86329   0.88347   0.00000  Uiso   1.00
H1104  H     0.52488   0.83402   0.89283   0.00000  Uiso   1.00
H1105  H     0.99693   0.85167   0.93248   0.00000  Uiso   1.00
H1106  H     0.86329   0.98645   0.11653   0.00000  Uiso   1.00
H1107  H     0.97562   0.69641   0.02575   0.00000  Uiso   1.00
H1108  H     0.83402   0.52487   0.10717   0.00000  Uiso   1.00
H1109  H     0.85167   0.99691   0.06753   0.00000  Uiso   1.00
H1110  H     0.63671   0.98647   0.88347   0.00000  Uiso   1.00
H1111  H     0.66599   0.52489   0.89283   0.00000  Uiso   1.00
H1112  H     0.64833   0.99694   0.93248   0.00000  Uiso   1.00
H1113  H     0.51354   0.86329   0.11653   0.00000  Uiso   1.00
H1114  H     0.97512   0.83402   0.10717   0.00000  Uiso   1.00
H1115  H     0.50307   0.85167   0.06753   0.00000  Uiso   1.00
H1116  H     0.51354   0.63671   0.88347   0.00000  Uiso   1.00
H1117  H     0.97512   0.66598   0.89283   0.00000  Uiso   1.00
H1118  H     0.97562   0.80359   0.97426   0.00000  Uiso   1.00
H1119  H     0.50307   0.64833   0.93247   0.00000  Uiso   1.00
H1120  H     0.88671   0.76354   0.61653   0.00000  Uiso   1.00
H1121  H     0.91598   0.72512   0.60717   0.00000  Uiso   1.00
H1122  H     0.89833   0.75307   0.56753   0.00000  Uiso   1.00
H1123  H     0.61329   0.76354   0.38347   0.00000  Uiso   1.00
H1124  H     0.58402   0.72512   0.39283   0.00000  Uiso   1.00
H1125  H     0.60167   0.75307   0.43248   0.00000  Uiso   1.00
H1126  H     0.73645   0.88671   0.61653   0.00000  Uiso   1.00
H1127  H     0.77487   0.91598   0.60717   0.00000  Uiso   1.00
H1128  H     0.74692   0.89833   0.56753   0.00000  Uiso   1.00
H1129  H     0.80359   0.97562   0.02575   0.00000  Uiso   1.00
H1130  H     0.73647   0.61329   0.38347   0.00000  Uiso   1.00
H1131  H     0.77489   0.58401   0.39283   0.00000  Uiso   1.00
H1132  H     0.74694   0.60167   0.43248   0.00000  Uiso   1.00
H1133  H     0.61329   0.73646   0.61653   0.00000  Uiso   1.00
H1134  H     0.58402   0.77488   0.60717   0.00000  Uiso   1.00
H1135  H     0.60167   0.74693   0.56752   0.00000  Uiso   1.00
H1136  H     0.88671   0.73646   0.38347   0.00000  Uiso   1.00
H1137  H     0.91598   0.77488   0.39283   0.00000  Uiso   1.00
H1138  H     0.89833   0.74693   0.43248   0.00000  Uiso   1.00
H1139  H     0.76355   0.61329   0.61653   0.00000  Uiso   1.00
H1140  H     0.69641   0.97563   0.97426   0.00000  Uiso   1.00
H1141  H     0.72513   0.58402   0.60716   0.00000  Uiso   1.00
H1142  H     0.75308   0.60167   0.56752   0.00000  Uiso   1.00
H1143  H     0.76353   0.88671   0.38347   0.00000  Uiso   1.00
H1144  H     0.72511   0.91599   0.39283   0.00000  Uiso   1.00
H1145  H     0.75306   0.89833   0.43247   0.00000  Uiso   1.00
H1146  H     0.52438   0.80359   0.02575   0.00000  Uiso   1.00
H1147  H     0.52438   0.69641   0.97425   0.00000  Uiso   1.00
H1148  H     0.94641   0.77438   0.52575   0.00000  Uiso   1.00
I1149  I     0.68050   0.88898   0.16681   0.00000  Uiso   1.00
I1150  I     0.81939   0.88884   0.16688   0.00000  Uiso   1.00
I1151  I     0.61102   0.81950   0.83319   0.00000  Uiso   1.00
I1152  I     0.88884   0.68061   0.16688   0.00000  Uiso   1.00
I1153  I     0.81950   0.88898   0.83319   0.00000  Uiso   1.00
I1154  I     0.68061   0.61116   0.16688   0.00000  Uiso   1.00
I1155  I     0.88898   0.68050   0.83319   0.00000  Uiso   1.00
I1156  I     0.61116   0.81939   0.16688   0.00000  Uiso   1.00
I1157  I     0.93050   0.63898   0.66681   0.00000  Uiso   1.00
I1158  I     0.56939   0.86116   0.33312   0.00000  Uiso   1.00
I1159  I     0.86102   0.93050   0.66681   0.00000  Uiso   1.00
I1160  I     0.81939   0.61116   0.83312   0.00000  Uiso   1.00
I1161  I     0.63884   0.56939   0.33312   0.00000  Uiso   1.00
I1162  I     0.56950   0.86102   0.66681   0.00000  Uiso   1.00
I1163  I     0.93061   0.63884   0.33312   0.00000  Uiso   1.00
I1164  I     0.63898   0.56950   0.66681   0.00000  Uiso   1.00
I1165  I     0.86116   0.93061   0.33312   0.00000  Uiso   1.00
I1166  I     0.93050   0.86102   0.33319   0.00000  Uiso   1.00
I1167  I     0.56939   0.63884   0.66688   0.00000  Uiso   1.00
I1168  I     0.86102   0.56950   0.33319   0.00000  Uiso   1.00
I1169  I     0.63884   0.93061   0.66688   0.00000  Uiso   1.00
I1170  I     0.56950   0.63898   0.33319   0.00000  Uiso   1.00
I1171  I     0.61102   0.68050   0.16681   0.00000  Uiso   1.00
I1172  I     0.93061   0.86116   0.66688   0.00000  Uiso   1.00
I1173  I     0.63898   0.93050   0.33319   0.00000  Uiso   1.00
I1174  I     0.86116   0.56939   0.66688   0.00000  Uiso   1.00
I1175  I     0.88884   0.81939   0.83312   0.00000  Uiso   1.00
I1176  I     0.81950   0.61102   0.16681   0.00000  Uiso   1.00
I1177  I     0.68061   0.88884   0.83312   0.00000  Uiso   1.00
I1178  I     0.88898   0.81950   0.16681   0.00000  Uiso   1.00
I1179  I     0.61116   0.68061   0.83312   0.00000  Uiso   1.00
I1180  I     0.68050   0.61102   0.83319   0.00000  Uiso   1.00
O1181  O     0.75000   0.50000   0.25000   0.00000  Uiso   1.00
O1182  O     0.75000   0.96964   0.66317   0.00000  Uiso   1.00
O1183  O     0.96964   0.75000   0.33683   0.00000  Uiso   1.00
O1184  O     0.53036   0.75000   0.66317   0.00000  Uiso   1.00
O1185  O     0.50000   0.71964   0.83683   0.00000  Uiso   1.00
O1186  O     0.50000   0.78036   0.16317   0.00000  Uiso   1.00
O1187  O     0.78036   0.50000   0.83683   0.00000  Uiso   1.00
O1188  O     0.71964   0.50000   0.16317   0.00000  Uiso   1.00
O1189  O     0.50000   0.78036   0.83683   0.00000  Uiso   1.00
O1190  O     0.50000   0.71964   0.16317   0.00000  Uiso   1.00
O1191  O     0.71964   0.50000   0.83683   0.00000  Uiso   1.00
O1192  O     0.75000   0.50000   0.75000   0.00000  Uiso   1.00
O1193  O     0.78036   0.50000   0.16317   0.00000  Uiso   1.00
O1194  O     0.70726   0.57307   0.27282   0.00000  Uiso   1.00
O1195  O     0.79275   0.92693   0.72718   0.00000  Uiso   1.00
O1196  O     0.92693   0.70726   0.27282   0.00000  Uiso   1.00
O1197  O     0.57307   0.79275   0.72718   0.00000  Uiso   1.00
O1198  O     0.79275   0.92693   0.27282   0.00000  Uiso   1.00
O1199  O     0.70726   0.57307   0.72718   0.00000  Uiso   1.00
O1200  O     0.57307   0.79275   0.27282   0.00000  Uiso   1.00
O1201  O     0.92693   0.70726   0.72718   0.00000  Uiso   1.00
O1202  O     0.70726   0.92693   0.72718   0.00000  Uiso   1.00
O1203  O     0.50000   0.75000   0.25000   0.00000  Uiso   1.00
O1204  O     0.79275   0.57307   0.27282   0.00000  Uiso   1.00
O1205  O     0.92693   0.79275   0.72718   0.00000  Uiso   1.00
O1206  O     0.57307   0.70726   0.27282   0.00000  Uiso   1.00
O1207  O     0.79275   0.57307   0.72718   0.00000  Uiso   1.00
O1208  O     0.70726   0.92693   0.27282   0.00000  Uiso   1.00
O1209  O     0.57307   0.70726   0.72718   0.00000  Uiso   1.00
O1210  O     0.92693   0.79275   0.27282   0.00000  Uiso   1.00
O1211  O     0.95726   0.82307   0.77282   0.00000  Uiso   1.00
O1212  O     0.54275   0.67693   0.22718   0.00000  Uiso   1.00
O1213  O     0.67693   0.95726   0.77282   0.00000  Uiso   1.00
O1214  O     0.50000   0.75000   0.75000   0.00000  Uiso   1.00
O1215  O     0.82307   0.54275   0.22718   0.00000  Uiso   1.00
O1216  O     0.54275   0.67693   0.77282   0.00000  Uiso   1.00
O1217  O     0.95726   0.82307   0.22718   0.00000  Uiso   1.00
O1218  O     0.82307   0.54275   0.77282   0.00000  Uiso   1.00
O1219  O     0.67693   0.95726   0.22718   0.00000  Uiso   1.00
O1220  O     0.95726   0.67693   0.22718   0.00000  Uiso   1.00
O1221  O     0.54275   0.82307   0.77282   0.00000  Uiso   1.00
O1222  O     0.67693   0.54275   0.22718   0.00000  Uiso   1.00
O1223  O     0.82307   0.95726   0.77282   0.00000  Uiso   1.00
O1224  O     0.54275   0.82307   0.22718   0.00000  Uiso   1.00
O1225  O     0.75000   0.96964   0.33683   0.00000  Uiso   1.00
O1226  O     0.95726   0.67693   0.77282   0.00000  Uiso   1.00
O1227  O     0.82307   0.95726   0.22718   0.00000  Uiso   1.00
O1228  O     0.67693   0.54275   0.77282   0.00000  Uiso   1.00
O1229  O     0.68925   0.52733   0.10112   0.00000  Uiso   1.00
O1230  O     0.81076   0.52732   0.89888   0.00000  Uiso   1.00
O1231  O     0.97267   0.68924   0.10112   0.00000  Uiso   1.00
O1232  O     0.97268   0.81076   0.89888   0.00000  Uiso   1.00
O1233  O     0.81076   0.97267   0.10112   0.00000  Uiso   1.00
O1234  O     0.68924   0.97268   0.89888   0.00000  Uiso   1.00
O1235  O     0.52733   0.81076   0.10112   0.00000  Uiso   1.00
O1236  O     0.75000   0.53036   0.66317   0.00000  Uiso   1.00
O1237  O     0.52733   0.68924   0.89888   0.00000  Uiso   1.00
O1238  O     0.93924   0.77733   0.60112   0.00000  Uiso   1.00
O1239  O     0.56076   0.77733   0.39888   0.00000  Uiso   1.00
O1240  O     0.72267   0.93924   0.60112   0.00000  Uiso   1.00
O1241  O     0.72268   0.56076   0.39888   0.00000  Uiso   1.00
O1242  O     0.56076   0.72268   0.60112   0.00000  Uiso   1.00
O1243  O     0.93924   0.72267   0.39888   0.00000  Uiso   1.00
O1244  O     0.77733   0.56076   0.60112   0.00000  Uiso   1.00
O1245  O     0.77732   0.93924   0.39888   0.00000  Uiso   1.00
O1246  O     0.53036   0.75000   0.33683   0.00000  Uiso   1.00
O1247  O     0.96964   0.75000   0.66317   0.00000  Uiso   1.00
O1248  O     0.75000   0.53036   0.33683   0.00000  Uiso   1.00
Zn1249 Zn    0.70660   0.50000   0.21760   0.00000  Uiso   1.00
Zn1250 Zn    0.54340   0.75000   0.28240   0.00000  Uiso   1.00
Zn1251 Zn    0.75000   0.95660   0.71760   0.00000  Uiso   1.00
Zn1252 Zn    0.75000   0.54340   0.28240   0.00000  Uiso   1.00
Zn1253 Zn    0.54340   0.75000   0.71760   0.00000  Uiso   1.00
Zn1254 Zn    0.95660   0.75000   0.28240   0.00000  Uiso   1.00
Zn1255 Zn    0.75000   0.54340   0.71760   0.00000  Uiso   1.00
Zn1256 Zn    0.75000   0.95660   0.28240   0.00000  Uiso   1.00
Zn1257 Zn    0.79340   0.50000   0.78240   0.00000  Uiso   1.00
Zn1258 Zn    0.50000   0.70660   0.21760   0.00000  Uiso   1.00
Zn1259 Zn    0.50000   0.79340   0.78240   0.00000  Uiso   1.00
Zn1260 Zn    0.79340   0.50000   0.21760   0.00000  Uiso   1.00
Zn1261 Zn    0.70660   0.50000   0.78240   0.00000  Uiso   1.00
Zn1262 Zn    0.50000   0.79340   0.21760   0.00000  Uiso   1.00
Zn1263 Zn    0.50000   0.70660   0.78240   0.00000  Uiso   1.00
Zn1264 Zn    0.95660   0.75000   0.71760   0.00000  Uiso   1.00
loop_
_geom_bond_atom_site_label_1
_geom_bond_atom_site_label_2
_geom_bond_distance
_geom_bond_site_symmetry_2
_ccdc_geom_bond_type
C1     C46     1.398   .     A
C1     H137    1.083   .     S
C1     C64     1.397   .     A
C2     H138    1.083   .     S
C2     C56     1.398   .     A
C2     C69     1.397   .     S
C3     C112    1.407   .     A
C3     C83     1.448   .     S
C3     C119    1.407   .     A
C4     C84     1.448   .     S
C4     C122    1.407   .     A
C4     C111    1.407   .     A
C5     C110    1.407   .     A
C5     C85     1.448   .     S
C5     C121    1.407   .     A
C6     C109    1.407   .     A
C6     C124    1.407   .     A
C6     C86     1.448   .     S
C7     C123    1.407   .     A
C7     C87     1.448   .     S
C7     C108    1.407   .     A
C8     C127    1.407   .     A
C8     C107    1.407   .     A
C8     C97     1.448   .     S
C9     C98     1.448   .     S
C9     C125    1.407   .     A
C9     C106    1.407   .     A
C10    C129    1.407   .     A
C10    C90     1.448   .     S
C10    C105    1.407   .     A
C11    C91     1.448   .     S
C11    C128    1.407   .     A
C11    C103    1.407   .     A
C12    C92     1.448   .     S
C12    C131    1.407   .     A
C12    C102    1.407   .     A
C13    H139    1.083   .     S
C13    C57     1.398   .     A
C13    C702    1.397   .     S
C14    C130    1.407   .     A
C14    C101    1.407   .     A
C14    C94     1.448   .     S
C15    C100    1.407   .     A
C15    C95     1.448   .     S
C15    C133    1.407   .     A
C16    C96     1.448   .     S
C16    C132    1.407   .     A
C16    C99     1.407   .     A
C17    C683    1.414   1_545 A
C17    C46     1.414   .     S
C17    C80     1.473   .     S
C18    C79     1.473   .     S
C18    C684    1.414   1_545 A
C18    C47     1.414   .     S
C19    C78     1.473   .     S
C19    C53     1.414   .     A
C19    C364    1.414   1_455 S
C20    C54     1.414   .     A
C20    C77     1.473   .     S
C20    C366    1.414   1_455 S
C21    C76     1.473   .     S
C21    C371    1.414   1_455 A
C21    C59     1.414   .     S
C22    C56     1.414   .     A
C22    C75     1.473   .     S
C22    C377    1.414   1_455 S
C23    C74     1.473   .     S
C23    C689    1.414   1_545 A
C23    C62     1.414   .     S
C24    H140    1.083   .     S
C24    C72     1.397   .     A
C24    C58     1.398   .     A
C25    C73     1.473   .     S
C25    C58     1.414   .     A
C25    C695    1.414   1_545 S
C26    O281    1.411   .     S
C26    H147    1.112   .     S
C26    H145    1.109   .     S
C26    H778    1.114   1_545 S
C27    O282    1.411   .     S
C27    H151    1.112   .     S
C27    H149    1.109   .     S
C27    H782    1.114   1_545 S
C28    O283    1.411   .     S
C28    H154    1.112   .     S
C28    H152    1.109   .     S
C28    H469    1.114   .     S
C29    H155    1.109   .     S
C29    H157    1.112   .     S
C29    O284    1.411   .     S
C29    H472    1.114   .     S
C30    H161    1.112   .     S
C30    O285    1.411   .     S
C30    H158    1.109   .     S
C30    H792    1.114   .     S
C31    O286    1.411   .     S
C31    H164    1.112   .     S
C31    H162    1.109   .     S
C31    H795    1.114   .     S
C32    O287    1.411   .     S
C32    H165    1.109   .     S
C32    H167    1.112   .     S
C32    H482    1.114   1_455 S
C33    H171    1.112   .     S
C33    O289    1.411   .     S
C33    H168    1.109   .     S
C33    H485    1.114   1_455 S
C34    H174    1.112   .     S
C34    H172    1.109   .     S
C34    H173    1.114   .     S
C34    O290    1.411   .     S
C35    C59     1.398   .     A
C35    H141    1.083   .     S
C35    C68     1.397   .     S
C36    H175    1.109   .     S
C36    O291    1.411   .     S
C36    H176    1.114   .     S
C36    H177    1.112   .     S
C37    H178    1.109   .     S
C37    H180    1.112   .     S
C37    O292    1.411   .     S
C37    H179    1.114   .     S
C38    O293    1.411   .     S
C38    H184    1.112   .     S
C38    H182    1.109   .     S
C38    H183    1.114   .     S
C39    O294    1.411   .     S
C39    H186    1.114   .     S
C39    H187    1.112   .     S
C39    H185    1.109   .     S
C40    H188    1.109   .     S
C40    H189    1.114   .     S
C40    H190    1.112   .     S
C40    O295    1.411   .     S
C41    H193    1.114   .     S
C41    H191    1.109   .     S
C41    H194    1.112   .     S
C41    O296    1.411   .     S
C42    O297    1.411   .     S
C42    H195    1.109   .     S
C42    H196    1.114   .     S
C42    H197    1.112   .     S
C43    C61     1.398   .     A
C43    H142    1.083   .     S
C43    C385    1.397   .     A
C44    C70     1.397   .     A
C44    H143    1.083   .     S
C44    C62     1.398   .     A
C45    H144    1.083   .     S
C45    C63     1.398   .     A
C45    C704    1.397   .     S
C46    O281    1.384   .     S
C47    O282    1.384   .     S
C47    C49     1.398   .     A
C48    O283    1.384   .     S
C48    C60     1.398   .     A
C48    C335    1.414   .     S
C49    H148    1.083   .     S
C49    C65     1.397   .     A
C50    O284    1.384   .     S
C50    C71     1.398   .     A
C50    C336    1.414   .     S
C51    C649    1.414   .     A
C51    O285    1.384   .     S
C51    C82     1.398   .     A
C52    O286    1.384   .     S
C52    C93     1.398   .     A
C52    C650    1.414   .     A
C53    O287    1.384   .     S
C53    C104    1.398   .     A
C54    O289    1.384   .     S
C54    C115    1.398   .     A
C55    C337    1.414   .     A
C55    C126    1.398   .     A
C55    O290    1.384   .     S
C56    O291    1.384   .     S
C57    O292    1.384   .     S
C57    C655    1.414   .     A
C58    O293    1.384   .     S
C59    O294    1.384   .     S
C60    H159    1.083   .     S
C60    C382    1.397   .     S
C61    O295    1.384   .     S
C61    C338    1.414   .     S
C62    O296    1.384   .     S
C63    O297    1.384   .     S
C63    C657    1.414   .     S
C64    C65     1.466   1_554 S
C64    C714    1.397   1_545 S
C65    C64     1.466   1_556 S
C65    C725    1.397   1_545 S
C66    C104    1.397   .     A
C66    C376    1.397   1_455 S
C66    C67     1.466   1_554 S
C67    C115    1.397   .     A
C67    C66     1.466   1_556 S
C67    C387    1.397   1_455 S
C68    C69     1.466   .     S
C68    C442    1.397   1_455 A
C69    C359    1.397   1_455 A
C70    C72     1.466   .     S
C70    C645    1.397   1_545 S
C71    H170    1.083   .     S
C71    C383    1.397   .     S
C72    C677    1.397   1_545 S
C73    O300    1.280   .     A
C73    O909    1.280   1_545 S
C74    O866    1.280   1_545 A
C74    O288    1.280   .     S
C75    O298    1.280   .     A
C75    O551    1.280   1_455 S
C76    O615    1.280   1_455 A
C76    O236    1.280   .     S
C77    O237    1.280   .     S
C77    O241    1.280   .     S
C78    O238    1.280   .     A
C78    O242    1.280   .     A
C79    O243    1.280   .     A
C79    O239    1.280   .     A
C80    O240    1.280   .     A
C80    O245    1.280   .     A
C81    C136    1.448   .     S
C81    O274    1.276   .     A
C81    O246    1.276   .     A
C82    H181    1.083   .     S
C82    C696    1.397   .     S
C83    O247    1.276   .     A
C83    O275    1.276   .     A
C84    O248    1.276   .     A
C84    O272    1.276   .     A
C85    O249    1.276   .     A
C85    O273    1.276   .     A
C86    O250    1.276   .     A
C86    O279    1.276   .     A
C87    O280    1.276   .     A
C87    O251    1.276   .     A
C88    O252    1.276   .     A
C88    C134    1.448   .     S
C88    O276    1.276   .     A
C89    C135    1.448   .     S
C89    O278    1.276   .     A
C89    O253    1.276   .     A
C90    O254    1.276   .     A
C90    O265    1.276   .     A
C91    O267    1.276   .     A
C91    O256    1.276   .     A
C92    O257    1.276   .     A
C92    O263    1.276   .     A
C93    H192    1.083   .     S
C93    C697    1.397   .     S
C94    O264    1.276   .     A
C94    O258    1.276   .     A
C95    O270    1.276   .     A
C95    O259    1.276   .     A
C96    O271    1.276   .     A
C96    O260    1.276   .     A
C97    O261    1.276   .     A
C97    O268    1.276   .     A
C98    O269    1.276   .     A
C98    O262    1.276   .     A
C99    C116    1.401   .     A
C99    I201    2.146   .     S
C100   I212    2.146   .     S
C100   C114    1.401   .     A
C101   C113    1.401   .     A
C101   I223    2.146   .     S
C102   C112    1.401   .     A
C102   I227    2.146   .     S
C103   C111    1.401   .     A
C103   I228    2.146   .     S
C104   H198    1.083   .     S
C105   C110    1.401   .     A
C105   I229    2.146   .     S
C106   I230    2.146   .     S
C106   C109    1.401   .     A
C107   I231    2.146   .     S
C107   C108    1.401   .     A
C108   I232    2.146   .     S
C109   I202    2.146   .     S
C110   I203    2.146   .     S
C111   I204    2.146   .     S
C112   I205    2.146   .     S
C113   C136    1.407   .     A
C113   I206    2.146   .     S
C114   I207    2.146   .     S
C114   C135    1.407   .     A
C115   H199    1.083   .     S
C116   I208    2.146   .     S
C116   C134    1.407   .     A
C117   C133    1.401   .     A
C117   C135    1.407   .     A
C117   I209    2.146   .     S
C118   C134    1.407   .     A
C118   C132    1.401   .     A
C118   I210    2.146   .     S
C119   C131    1.401   .     A
C119   I211    2.146   .     S
C120   I213    2.146   .     S
C120   C136    1.407   .     A
C120   C130    1.401   .     A
C121   I214    2.146   .     S
C121   C129    1.401   .     A
C122   I215    2.146   .     S
C122   C128    1.401   .     A
C123   I216    2.146   .     S
C123   C127    1.401   .     A
C124   I217    2.146   .     S
C124   C125    1.401   .     A
C125   I218    2.146   .     S
C126   H200    1.083   .     S
C126   C384    1.397   .     A
C127   I219    2.146   .     S
C128   I220    2.146   .     S
C129   I221    2.146   .     S
C130   I222    2.146   .     S
C131   I224    2.146   .     S
C132   I225    2.146   .     S
C133   I226    2.146   .     S
H146   C658    1.114   .     S
H150   C659    1.114   .     S
H153   C344    1.114   1_455 S
H156   C345    1.114   1_455 S
H160   C662    1.114   1_545 S
H163   C663    1.114   1_545 S
H166   C348    1.114   .     S
H169   C349    1.114   .     S
O233   Zn304   1.941   .     S
O233   Zn301   1.941   .     S
O233   Zn940   1.941   1_545 S
O233   Zn312   1.941   .     S
O234   Zn303   1.945   .     S
O234   C706    1.280   .     A
O235   Zn306   1.945   .     S
O235   C391    1.280   .     S
O236   Zn305   1.945   .     S
O237   Zn315   1.945   .     S
O238   Zn314   1.945   .     S
O239   Zn309   1.945   .     S
O240   Zn301   1.945   .     S
O241   Zn311   1.945   .     S
O242   Zn310   1.945   .     S
O243   Zn313   1.945   .     S
O244   Zn313   1.941   .     S
O244   Zn935   1.941   1_545 S
O244   Zn309   1.941   .     S
O244   Zn307   1.941   .     S
O245   Zn312   1.945   .     S
O246   Zn304   1.927   .     S
O247   Zn303   1.927   .     S
O248   Zn306   1.927   .     S
O249   Zn305   1.927   .     S
O250   Zn308   1.927   .     S
O251   Zn307   1.927   .     S
O252   Zn302   1.927   .     S
O253   Zn316   1.927   .     S
O254   Zn303   1.927   .     S
O255   Zn302   1.941   .     S
O255   Zn622   1.941   1_455 S
O255   Zn310   1.941   .     S
O255   Zn314   1.941   .     S
O256   Zn304   1.927   .     S
O257   Zn316   1.927   .     S
O258   Zn302   1.927   .     S
O259   Zn307   1.927   .     S
O260   Zn308   1.927   .     S
O261   Zn305   1.927   .     S
O262   Zn306   1.927   .     S
O263   Zn627   1.927   .     S
O264   Zn310   1.927   .     S
O265   Zn945   1.927   .     S
O266   Zn315   1.941   .     S
O266   Zn632   1.941   1_455 S
O266   Zn311   1.941   .     S
O266   Zn305   1.941   .     S
O267   Zn312   1.927   .     S
O268   Zn315   1.927   .     S
O269   Zn630   1.927   .     S
O270   Zn309   1.927   .     S
O271   Zn933   1.927   .     S
O272   Zn626   1.927   .     S
O273   Zn311   1.927   .     S
O274   Zn301   1.927   .     S
O275   Zn941   1.927   .     S
O276   Zn314   1.927   .     S
O277   Zn308   1.945   .     S
O277   C705    1.280   .     S
O278   Zn631   1.927   .     S
O279   Zn944   1.927   .     S
O280   Zn313   1.927   .     S
O288   Zn307   1.945   .     S
O298   Zn302   1.945   .     S
O299   Zn316   1.945   .     S
O299   C392    1.280   .     A
O300   Zn304   1.945   .     S
Zn301  O903    1.927   1_545 S
Zn303  O876    1.941   .     S
Zn306  O571    1.941   .     S
Zn308  O865    1.941   .     S
Zn309  O907    1.927   1_545 S
Zn310  O588    1.927   1_455 S
Zn311  O579    1.927   1_455 S
Zn312  O911    1.927   1_545 S
Zn313  O897    1.927   1_545 S
Zn314  O585    1.927   1_455 S
Zn315  O594    1.927   1_455 S
Zn316  O582    1.941   .     S
C317   C362    1.398   .     A
C317   H453    1.083   .     S
C317   C380    1.397   .     A
C318   H454    1.083   .     S
C318   C372    1.398   .     A
C318   C385    1.397   .     S
C319   C428    1.407   .     A
C319   C399    1.448   .     S
C319   C435    1.407   .     A
C320   C400    1.448   .     S
C320   C438    1.407   .     A
C320   C427    1.407   .     A
C321   C426    1.407   .     A
C321   C401    1.448   .     S
C321   C437    1.407   .     A
C322   C425    1.407   .     A
C322   C440    1.407   .     A
C322   C402    1.448   .     S
C323   C439    1.407   .     A
C323   C403    1.448   .     S
C323   C424    1.407   .     A
C324   C443    1.407   .     A
C324   C423    1.407   .     A
C324   C413    1.448   .     S
C325   C414    1.448   .     S
C325   C441    1.407   .     A
C325   C422    1.407   .     A
C326   C445    1.407   .     A
C326   C406    1.448   .     S
C326   C421    1.407   .     A
C327   C407    1.448   .     S
C327   C444    1.407   .     A
C327   C419    1.407   .     A
C328   C408    1.448   .     S
C328   C447    1.407   .     A
C328   C418    1.407   .     A
C329   H455    1.083   .     S
C329   C373    1.398   .     A
C329   C1018   1.397   .     S
C330   C446    1.407   .     A
C330   C417    1.407   .     A
C330   C410    1.448   .     S
C331   C416    1.407   .     A
C331   C411    1.448   .     S
C331   C449    1.407   .     A
C332   C412    1.448   .     S
C332   C448    1.407   .     A
C332   C415    1.407   .     A
C333   C999    1.414   1_545 A
C333   C362    1.414   .     S
C333   C396    1.473   .     S
C334   C395    1.473   .     S
C334   C1000   1.414   1_545 A
C334   C363    1.414   .     S
C335   C394    1.473   .     S
C335   C369    1.414   .     A
C336   C370    1.414   .     A
C336   C393    1.473   .     S
C337   C392    1.473   .     S
C337   C375    1.414   .     S
C338   C372    1.414   .     A
C338   C391    1.473   .     S
C339   C390    1.473   .     S
C339   C1005   1.414   1_545 A
C339   C378    1.414   .     S
C340   H456    1.083   .     S
C340   C388    1.397   .     A
C340   C374    1.398   .     A
C341   C389    1.473   .     S
C341   C374    1.414   .     A
C341   C1011   1.414   1_545 S
C342   O597    1.411   .     S
C342   H463    1.112   .     S
C342   H461    1.109   .     S
C342   H1094   1.114   1_545 S
C343   O598    1.411   .     S
C343   H467    1.112   .     S
C343   H465    1.109   .     S
C343   H1098   1.114   1_545 S
C344   O599    1.411   .     S
C344   H470    1.112   .     S
C344   H468    1.109   .     S
C344   H153    1.114   1_655 S
C345   H471    1.109   .     S
C345   H473    1.112   .     S
C345   O600    1.411   .     S
C345   H156    1.114   1_655 S
C346   H477    1.112   .     S
C346   O601    1.411   .     S
C346   H474    1.109   .     S
C346   H1108   1.114   .     S
C347   O602    1.411   .     S
C347   H480    1.112   .     S
C347   H478    1.109   .     S
C347   H1111   1.114   .     S
C348   O603    1.411   .     S
C348   H481    1.109   .     S
C348   H483    1.112   .     S
C349   H487    1.112   .     S
C349   O605    1.411   .     S
C349   H484    1.109   .     S
C350   H490    1.112   .     S
C350   H488    1.109   .     S
C350   H489    1.114   .     S
C350   O606    1.411   .     S
C351   C375    1.398   .     A
C351   H457    1.083   .     S
C351   C384    1.397   .     S
C352   H491    1.109   .     S
C352   O607    1.411   .     S
C352   H492    1.114   .     S
C352   H493    1.112   .     S
C353   H494    1.109   .     S
C353   H496    1.112   .     S
C353   O608    1.411   .     S
C353   H495    1.114   .     S
C354   O609    1.411   .     S
C354   H500    1.112   .     S
C354   H498    1.109   .     S
C354   H499    1.114   .     S
C355   O610    1.411   .     S
C355   H502    1.114   .     S
C355   H503    1.112   .     S
C355   H501    1.109   .     S
C356   H504    1.109   .     S
C356   H505    1.114   .     S
C356   H506    1.112   .     S
C356   O611    1.411   .     S
C357   H509    1.114   .     S
C357   H507    1.109   .     S
C357   H510    1.112   .     S
C357   O612    1.411   .     S
C358   O613    1.411   .     S
C358   H511    1.109   .     S
C358   H512    1.114   .     S
C358   H513    1.112   .     S
C359   C377    1.398   .     A
C359   H458    1.083   .     S
C359   C69     1.397   1_655 A
C360   C386    1.397   .     A
C360   H459    1.083   .     S
C360   C378    1.398   .     A
C361   H460    1.083   .     S
C361   C379    1.398   .     A
C361   C1020   1.397   .     S
C362   O597    1.384   .     S
C363   O598    1.384   .     S
C363   C365    1.398   .     A
C364   O599    1.384   .     S
C364   C376    1.398   .     A
C364   C19     1.414   1_655 S
C365   H464    1.083   .     S
C365   C381    1.397   .     A
C366   O600    1.384   .     S
C366   C387    1.398   .     A
C366   C20     1.414   1_655 S
C367   C965    1.414   .     A
C367   O601    1.384   .     S
C367   C398    1.398   .     A
C368   O602    1.384   .     S
C368   C409    1.398   .     A
C368   C966    1.414   .     A
C369   O603    1.384   .     S
C369   C420    1.398   .     A
C370   O605    1.384   .     S
C370   C431    1.398   .     A
C371   C21     1.414   1_655 A
C371   C442    1.398   .     A
C371   O606    1.384   .     S
C372   O607    1.384   .     S
C373   O608    1.384   .     S
C373   C971    1.414   .     A
C374   O609    1.384   .     S
C375   O610    1.384   .     S
C376   H475    1.083   .     S
C376   C66     1.397   1_655 S
C377   O611    1.384   .     S
C377   C22     1.414   1_655 S
C378   O612    1.384   .     S
C379   O613    1.384   .     S
C379   C973    1.414   .     S
C380   C381    1.466   1_554 S
C380   C1030   1.397   1_545 S
C381   C380    1.466   1_556 S
C381   C1041   1.397   1_545 S
C382   C420    1.397   .     A
C382   C383    1.466   1_554 S
C383   C431    1.397   .     A
C383   C382    1.466   1_556 S
C384   C385    1.466   .     S
C386   C388    1.466   .     S
C386   C961    1.397   1_545 S
C387   H486    1.083   .     S
C387   C67     1.397   1_655 S
C388   C993    1.397   1_545 S
C389   O616    1.280   .     A
C389   O1225   1.280   1_545 S
C390   O1182   1.280   1_545 A
C390   O604    1.280   .     S
C391   O614    1.280   .     A
C392   O552    1.280   .     S
C393   O553    1.280   .     S
C393   O557    1.280   .     S
C394   O554    1.280   .     A
C394   O558    1.280   .     A
C395   O559    1.280   .     A
C395   O555    1.280   .     A
C396   O556    1.280   .     A
C396   O561    1.280   .     A
C397   C452    1.448   .     S
C397   O590    1.276   .     A
C397   O562    1.276   .     A
C398   H497    1.083   .     S
C398   C1012   1.397   .     S
C399   O563    1.276   .     A
C399   O591    1.276   .     A
C400   O564    1.276   .     A
C400   O588    1.276   .     A
C401   O565    1.276   .     A
C401   O589    1.276   .     A
C402   O566    1.276   .     A
C402   O595    1.276   .     A
C403   O596    1.276   .     A
C403   O567    1.276   .     A
C404   O568    1.276   .     A
C404   C450    1.448   .     S
C404   O592    1.276   .     A
C405   C451    1.448   .     S
C405   O594    1.276   .     A
C405   O569    1.276   .     A
C406   O570    1.276   .     A
C406   O581    1.276   .     A
C407   O583    1.276   .     A
C407   O572    1.276   .     A
C408   O573    1.276   .     A
C408   O579    1.276   .     A
C409   H508    1.083   .     S
C409   C1013   1.397   .     S
C410   O580    1.276   .     A
C410   O574    1.276   .     A
C411   O586    1.276   .     A
C411   O575    1.276   .     A
C412   O587    1.276   .     A
C412   O576    1.276   .     A
C413   O577    1.276   .     A
C413   O584    1.276   .     A
C414   O585    1.276   .     A
C414   O578    1.276   .     A
C415   C432    1.401   .     A
C415   I517    2.146   .     S
C416   I528    2.146   .     S
C416   C430    1.401   .     A
C417   C429    1.401   .     A
C417   I539    2.146   .     S
C418   C428    1.401   .     A
C418   I543    2.146   .     S
C419   C427    1.401   .     A
C419   I544    2.146   .     S
C420   H514    1.083   .     S
C421   C426    1.401   .     A
C421   I545    2.146   .     S
C422   I546    2.146   .     S
C422   C425    1.401   .     A
C423   I547    2.146   .     S
C423   C424    1.401   .     A
C424   I548    2.146   .     S
C425   I518    2.146   .     S
C426   I519    2.146   .     S
C427   I520    2.146   .     S
C428   I521    2.146   .     S
C429   C452    1.407   .     A
C429   I522    2.146   .     S
C430   I523    2.146   .     S
C430   C451    1.407   .     A
C431   H515    1.083   .     S
C432   I524    2.146   .     S
C432   C450    1.407   .     A
C433   C449    1.401   .     A
C433   C451    1.407   .     A
C433   I525    2.146   .     S
C434   C450    1.407   .     A
C434   C448    1.401   .     A
C434   I526    2.146   .     S
C435   C447    1.401   .     A
C435   I527    2.146   .     S
C436   I529    2.146   .     S
C436   C452    1.407   .     A
C436   C446    1.401   .     A
C437   I530    2.146   .     S
C437   C445    1.401   .     A
C438   I531    2.146   .     S
C438   C444    1.401   .     A
C439   I532    2.146   .     S
C439   C443    1.401   .     A
C440   I533    2.146   .     S
C440   C441    1.401   .     A
C441   I534    2.146   .     S
C442   H516    1.083   .     S
C442   C68     1.397   1_655 A
C443   I535    2.146   .     S
C444   I536    2.146   .     S
C445   I537    2.146   .     S
C446   I538    2.146   .     S
C447   I540    2.146   .     S
C448   I541    2.146   .     S
C449   I542    2.146   .     S
H462   C974    1.114   .     S
H466   C975    1.114   .     S
H476   C978    1.114   1_545 S
H479   C979    1.114   1_545 S
H482   C32     1.114   1_655 S
H485   C33     1.114   1_655 S
O549   Zn620   1.941   .     S
O549   Zn617   1.941   .     S
O549   Zn1256  1.941   1_545 S
O549   Zn628   1.941   .     S
O550   Zn619   1.945   .     S
O550   C1022   1.280   .     A
O551   Zn622   1.945   .     S
O551   C75     1.280   1_655 S
O552   Zn621   1.945   .     S
O553   Zn631   1.945   .     S
O554   Zn630   1.945   .     S
O555   Zn625   1.945   .     S
O556   Zn617   1.945   .     S
O557   Zn627   1.945   .     S
O558   Zn626   1.945   .     S
O559   Zn629   1.945   .     S
O560   Zn629   1.941   .     S
O560   Zn1251  1.941   1_545 S
O560   Zn625   1.941   .     S
O560   Zn623   1.941   .     S
O561   Zn628   1.945   .     S
O562   Zn620   1.927   .     S
O563   Zn619   1.927   .     S
O564   Zn622   1.927   .     S
O565   Zn621   1.927   .     S
O566   Zn624   1.927   .     S
O567   Zn623   1.927   .     S
O568   Zn618   1.927   .     S
O569   Zn632   1.927   .     S
O570   Zn619   1.927   .     S
O571   Zn618   1.941   .     S
O571   Zn626   1.941   .     S
O571   Zn630   1.941   .     S
O572   Zn620   1.927   .     S
O573   Zn632   1.927   .     S
O574   Zn618   1.927   .     S
O575   Zn623   1.927   .     S
O576   Zn624   1.927   .     S
O577   Zn621   1.927   .     S
O578   Zn622   1.927   .     S
O579   Zn311   1.927   1_655 S
O580   Zn626   1.927   .     S
O581   Zn1261  1.927   .     S
O582   Zn631   1.941   .     S
O582   Zn627   1.941   .     S
O582   Zn621   1.941   .     S
O583   Zn628   1.927   .     S
O584   Zn631   1.927   .     S
O585   Zn314   1.927   1_655 S
O586   Zn625   1.927   .     S
O587   Zn1249  1.927   .     S
O588   Zn310   1.927   1_655 S
O589   Zn627   1.927   .     S
O590   Zn617   1.927   .     S
O591   Zn1257  1.927   .     S
O592   Zn630   1.927   .     S
O593   Zn624   1.945   .     S
O593   C1021   1.280   .     S
O594   Zn315   1.927   1_655 S
O595   Zn1260  1.927   .     S
O596   Zn629   1.927   .     S
O604   Zn623   1.945   .     S
O614   Zn618   1.945   .     S
O615   Zn632   1.945   .     S
O615   C76     1.280   1_655 A
O616   Zn620   1.945   .     S
Zn617  O1219   1.927   1_545 S
Zn619  O1192   1.941   .     S
Zn622  O255    1.941   1_655 S
Zn624  O1181   1.941   .     S
Zn625  O1223   1.927   1_545 S
Zn628  O1227   1.927   1_545 S
Zn629  O1213   1.927   1_545 S
Zn632  O266    1.941   1_655 S
C633   C678    1.398   .     A
C633   H769    1.083   .     S
C633   C696    1.397   .     A
C634   H770    1.083   .     S
C634   C688    1.398   .     A
C634   C701    1.397   .     S
C635   C744    1.407   .     A
C635   C715    1.448   .     S
C635   C751    1.407   .     A
C636   C716    1.448   .     S
C636   C754    1.407   .     A
C636   C743    1.407   .     A
C637   C742    1.407   .     A
C637   C717    1.448   .     S
C637   C753    1.407   .     A
C638   C741    1.407   .     A
C638   C756    1.407   .     A
C638   C718    1.448   .     S
C639   C755    1.407   .     A
C639   C719    1.448   .     S
C639   C740    1.407   .     A
C640   C759    1.407   .     A
C640   C739    1.407   .     A
C640   C729    1.448   .     S
C641   C730    1.448   .     S
C641   C757    1.407   .     A
C641   C738    1.407   .     A
C642   C761    1.407   .     A
C642   C722    1.448   .     S
C642   C737    1.407   .     A
C643   C723    1.448   .     S
C643   C760    1.407   .     A
C643   C735    1.407   .     A
C644   C724    1.448   .     S
C644   C763    1.407   .     A
C644   C734    1.407   .     A
C645   H771    1.083   .     S
C645   C689    1.398   .     A
C645   C70     1.397   1_565 S
C646   C762    1.407   .     A
C646   C733    1.407   .     A
C646   C726    1.448   .     S
C647   C732    1.407   .     A
C647   C727    1.448   .     S
C647   C765    1.407   .     A
C648   C728    1.448   .     S
C648   C764    1.407   .     A
C648   C731    1.407   .     A
C649   C678    1.414   .     S
C649   C712    1.473   .     S
C650   C711    1.473   .     S
C650   C679    1.414   .     S
C651   C710    1.473   .     S
C651   C685    1.414   .     A
C651   C996    1.414   1_455 S
C652   C686    1.414   .     A
C652   C709    1.473   .     S
C652   C998    1.414   1_455 S
C653   C708    1.473   .     S
C653   C1003   1.414   1_455 A
C653   C691    1.414   .     S
C654   C688    1.414   .     A
C654   C707    1.473   .     S
C654   C1009   1.414   1_455 S
C655   C706    1.473   .     S
C655   C694    1.414   .     S
C656   H772    1.083   .     S
C656   C704    1.397   .     A
C656   C690    1.398   .     A
C657   C705    1.473   .     S
C657   C690    1.414   .     A
C658   O913    1.411   .     S
C658   H779    1.112   .     S
C658   H777    1.109   .     S
C659   O914    1.411   .     S
C659   H783    1.112   .     S
C659   H781    1.109   .     S
C660   O915    1.411   .     S
C660   H786    1.112   .     S
C660   H784    1.109   .     S
C660   H1101   1.114   .     S
C661   H787    1.109   .     S
C661   H789    1.112   .     S
C661   O916    1.411   .     S
C661   H1104   1.114   .     S
C662   H793    1.112   .     S
C662   O917    1.411   .     S
C662   H790    1.109   .     S
C662   H160    1.114   1_565 S
C663   O918    1.411   .     S
C663   H796    1.112   .     S
C663   H794    1.109   .     S
C663   H163    1.114   1_565 S
C664   O919    1.411   .     S
C664   H797    1.109   .     S
C664   H799    1.112   .     S
C664   H1114   1.114   1_455 S
C665   H803    1.112   .     S
C665   O921    1.411   .     S
C665   H800    1.109   .     S
C665   H1117   1.114   1_455 S
C666   H806    1.112   .     S
C666   H804    1.109   .     S
C666   H805    1.114   .     S
C666   O922    1.411   .     S
C667   C691    1.398   .     A
C667   H773    1.083   .     S
C667   C700    1.397   .     S
C668   H807    1.109   .     S
C668   O923    1.411   .     S
C668   H808    1.114   .     S
C668   H809    1.112   .     S
C669   H810    1.109   .     S
C669   H812    1.112   .     S
C669   O924    1.411   .     S
C669   H811    1.114   .     S
C670   O925    1.411   .     S
C670   H816    1.112   .     S
C670   H814    1.109   .     S
C670   H815    1.114   .     S
C671   O926    1.411   .     S
C671   H818    1.114   .     S
C671   H819    1.112   .     S
C671   H817    1.109   .     S
C672   H820    1.109   .     S
C672   H821    1.114   .     S
C672   H822    1.112   .     S
C672   O927    1.411   .     S
C673   H825    1.114   .     S
C673   H823    1.109   .     S
C673   H826    1.112   .     S
C673   O928    1.411   .     S
C674   O929    1.411   .     S
C674   H827    1.109   .     S
C674   H828    1.114   .     S
C674   H829    1.112   .     S
C675   C693    1.398   .     A
C675   H774    1.083   .     S
C675   C1017   1.397   .     A
C676   C702    1.397   .     A
C676   H775    1.083   .     S
C676   C694    1.398   .     A
C677   H776    1.083   .     S
C677   C695    1.398   .     A
C677   C72     1.397   1_565 S
C678   O913    1.384   .     S
C679   O914    1.384   .     S
C679   C681    1.398   .     A
C680   O915    1.384   .     S
C680   C692    1.398   .     A
C680   C967    1.414   .     S
C681   H780    1.083   .     S
C681   C697    1.397   .     A
C682   O916    1.384   .     S
C682   C703    1.398   .     A
C682   C968    1.414   .     S
C683   C17     1.414   1_565 A
C683   O917    1.384   .     S
C683   C714    1.398   .     A
C684   O918    1.384   .     S
C684   C725    1.398   .     A
C684   C18     1.414   1_565 A
C685   O919    1.384   .     S
C685   C736    1.398   .     A
C686   O921    1.384   .     S
C686   C747    1.398   .     A
C687   C969    1.414   .     A
C687   C758    1.398   .     A
C687   O922    1.384   .     S
C688   O923    1.384   .     S
C689   O924    1.384   .     S
C689   C23     1.414   1_565 A
C690   O925    1.384   .     S
C691   O926    1.384   .     S
C692   H791    1.083   .     S
C692   C1014   1.397   .     S
C693   O927    1.384   .     S
C693   C970    1.414   .     S
C694   O928    1.384   .     S
C695   O929    1.384   .     S
C695   C25     1.414   1_565 S
C696   C697    1.466   1_554 S
C697   C696    1.466   1_556 S
C698   C736    1.397   .     A
C698   C1008   1.397   1_455 S
C698   C699    1.466   1_554 S
C699   C747    1.397   .     A
C699   C698    1.466   1_556 S
C699   C1019   1.397   1_455 S
C700   C701    1.466   .     S
C700   C1074   1.397   1_455 A
C701   C991    1.397   1_455 A
C702   C704    1.466   .     S
C703   H802    1.083   .     S
C703   C1015   1.397   .     S
C705   O932    1.280   .     A
C706   O920    1.280   .     S
C707   O930    1.280   .     A
C707   O1183   1.280   1_455 S
C708   O1247   1.280   1_455 A
C708   O868    1.280   .     S
C709   O869    1.280   .     S
C709   O873    1.280   .     S
C710   O870    1.280   .     A
C710   O874    1.280   .     A
C711   O875    1.280   .     A
C711   O871    1.280   .     A
C712   O872    1.280   .     A
C712   O877    1.280   .     A
C713   C768    1.448   .     S
C713   O906    1.276   .     A
C713   O878    1.276   .     A
C714   H813    1.083   .     S
C714   C64     1.397   1_565 S
C715   O879    1.276   .     A
C715   O907    1.276   .     A
C716   O880    1.276   .     A
C716   O904    1.276   .     A
C717   O881    1.276   .     A
C717   O905    1.276   .     A
C718   O882    1.276   .     A
C718   O911    1.276   .     A
C719   O912    1.276   .     A
C719   O883    1.276   .     A
C720   O884    1.276   .     A
C720   C766    1.448   .     S
C720   O908    1.276   .     A
C721   C767    1.448   .     S
C721   O910    1.276   .     A
C721   O885    1.276   .     A
C722   O886    1.276   .     A
C722   O897    1.276   .     A
C723   O899    1.276   .     A
C723   O888    1.276   .     A
C724   O889    1.276   .     A
C724   O895    1.276   .     A
C725   H824    1.083   .     S
C725   C65     1.397   1_565 S
C726   O896    1.276   .     A
C726   O890    1.276   .     A
C727   O902    1.276   .     A
C727   O891    1.276   .     A
C728   O903    1.276   .     A
C728   O892    1.276   .     A
C729   O893    1.276   .     A
C729   O900    1.276   .     A
C730   O901    1.276   .     A
C730   O894    1.276   .     A
C731   C748    1.401   .     A
C731   I833    2.146   .     S
C732   I844    2.146   .     S
C732   C746    1.401   .     A
C733   C745    1.401   .     A
C733   I855    2.146   .     S
C734   C744    1.401   .     A
C734   I859    2.146   .     S
C735   C743    1.401   .     A
C735   I860    2.146   .     S
C736   H830    1.083   .     S
C737   C742    1.401   .     A
C737   I861    2.146   .     S
C738   I862    2.146   .     S
C738   C741    1.401   .     A
C739   I863    2.146   .     S
C739   C740    1.401   .     A
C740   I864    2.146   .     S
C741   I834    2.146   .     S
C742   I835    2.146   .     S
C743   I836    2.146   .     S
C744   I837    2.146   .     S
C745   C768    1.407   .     A
C745   I838    2.146   .     S
C746   I839    2.146   .     S
C746   C767    1.407   .     A
C747   H831    1.083   .     S
C748   I840    2.146   .     S
C748   C766    1.407   .     A
C749   C765    1.401   .     A
C749   C767    1.407   .     A
C749   I841    2.146   .     S
C750   C766    1.407   .     A
C750   C764    1.401   .     A
C750   I842    2.146   .     S
C751   C763    1.401   .     A
C751   I843    2.146   .     S
C752   I845    2.146   .     S
C752   C768    1.407   .     A
C752   C762    1.401   .     A
C753   I846    2.146   .     S
C753   C761    1.401   .     A
C754   I847    2.146   .     S
C754   C760    1.401   .     A
C755   I848    2.146   .     S
C755   C759    1.401   .     A
C756   I849    2.146   .     S
C756   C757    1.401   .     A
C757   I850    2.146   .     S
C758   H832    1.083   .     S
C758   C1016   1.397   .     A
C759   I851    2.146   .     S
C760   I852    2.146   .     S
C761   I853    2.146   .     S
C762   I854    2.146   .     S
C763   I856    2.146   .     S
C764   I857    2.146   .     S
C765   I858    2.146   .     S
H778   C26     1.114   1_565 S
H782   C27     1.114   1_565 S
H785   C976    1.114   1_455 S
H788   C977    1.114   1_455 S
H798   C980    1.114   .     S
H801   C981    1.114   .     S
O865   Zn936   1.941   .     S
O865   Zn933   1.941   .     S
O865   Zn944   1.941   .     S
O866   Zn935   1.945   .     S
O866   C74     1.280   1_565 A
O867   Zn938   1.945   .     S
O867   C1023   1.280   .     S
O868   Zn937   1.945   .     S
O869   Zn947   1.945   .     S
O870   Zn946   1.945   .     S
O871   Zn941   1.945   .     S
O872   Zn933   1.945   .     S
O873   Zn943   1.945   .     S
O874   Zn942   1.945   .     S
O875   Zn945   1.945   .     S
O876   Zn945   1.941   .     S
O876   Zn941   1.941   .     S
O876   Zn939   1.941   .     S
O877   Zn944   1.945   .     S
O878   Zn936   1.927   .     S
O879   Zn935   1.927   .     S
O880   Zn938   1.927   .     S
O881   Zn937   1.927   .     S
O882   Zn940   1.927   .     S
O883   Zn939   1.927   .     S
O884   Zn934   1.927   .     S
O885   Zn948   1.927   .     S
O886   Zn935   1.927   .     S
O887   Zn934   1.941   .     S
O887   Zn1254  1.941   1_455 S
O887   Zn942   1.941   .     S
O887   Zn946   1.941   .     S
O888   Zn936   1.927   .     S
O889   Zn948   1.927   .     S
O890   Zn934   1.927   .     S
O891   Zn939   1.927   .     S
O892   Zn940   1.927   .     S
O893   Zn937   1.927   .     S
O894   Zn938   1.927   .     S
O895   Zn1259  1.927   .     S
O896   Zn942   1.927   .     S
O897   Zn313   1.927   1_565 S
O898   Zn947   1.941   .     S
O898   Zn1264  1.941   1_455 S
O898   Zn943   1.941   .     S
O898   Zn937   1.941   .     S
O899   Zn944   1.927   .     S
O900   Zn947   1.927   .     S
O901   Zn1262  1.927   .     S
O902   Zn941   1.927   .     S
O903   Zn301   1.927   1_565 S
O904   Zn1258  1.927   .     S
O905   Zn943   1.927   .     S
O906   Zn933   1.927   .     S
O907   Zn309   1.927   1_565 S
O908   Zn946   1.927   .     S
O909   Zn940   1.945   .     S
O909   C73     1.280   1_565 S
O910   Zn1263  1.927   .     S
O911   Zn312   1.927   1_565 S
O912   Zn945   1.927   .     S
O920   Zn939   1.945   .     S
O930   Zn934   1.945   .     S
O931   Zn948   1.945   .     S
O931   C1024   1.280   .     A
O932   Zn936   1.945   .     S
Zn935  O244    1.941   1_565 S
Zn938  O1203   1.941   .     S
Zn940  O233    1.941   1_565 S
Zn942  O1220   1.927   1_455 S
Zn943  O1211   1.927   1_455 S
Zn946  O1217   1.927   1_455 S
Zn947  O1226   1.927   1_455 S
Zn948  O1214   1.941   .     S
C949   C994    1.398   .     A
C949   H1085   1.083   .     S
C949   C1012   1.397   .     A
C950   H1086   1.083   .     S
C950   C1004   1.398   .     A
C950   C1017   1.397   .     S
C951   C1060   1.407   .     A
C951   C1031   1.448   .     S
C951   C1067   1.407   .     A
C952   C1032   1.448   .     S
C952   C1070   1.407   .     A
C952   C1059   1.407   .     A
C953   C1058   1.407   .     A
C953   C1033   1.448   .     S
C953   C1069   1.407   .     A
C954   C1057   1.407   .     A
C954   C1072   1.407   .     A
C954   C1034   1.448   .     S
C955   C1071   1.407   .     A
C955   C1035   1.448   .     S
C955   C1056   1.407   .     A
C956   C1075   1.407   .     A
C956   C1055   1.407   .     A
C956   C1045   1.448   .     S
C957   C1046   1.448   .     S
C957   C1073   1.407   .     A
C957   C1054   1.407   .     A
C958   C1077   1.407   .     A
C958   C1038   1.448   .     S
C958   C1053   1.407   .     A
C959   C1039   1.448   .     S
C959   C1076   1.407   .     A
C959   C1051   1.407   .     A
C960   C1040   1.448   .     S
C960   C1079   1.407   .     A
C960   C1050   1.407   .     A
C961   H1087   1.083   .     S
C961   C1005   1.398   .     A
C961   C386    1.397   1_565 S
C962   C1078   1.407   .     A
C962   C1049   1.407   .     A
C962   C1042   1.448   .     S
C963   C1048   1.407   .     A
C963   C1043   1.448   .     S
C963   C1081   1.407   .     A
C964   C1044   1.448   .     S
C964   C1080   1.407   .     A
C964   C1047   1.407   .     A
C965   C994    1.414   .     S
C965   C1028   1.473   .     S
C966   C1027   1.473   .     S
C966   C995    1.414   .     S
C967   C1026   1.473   .     S
C967   C1001   1.414   .     A
C968   C1002   1.414   .     A
C968   C1025   1.473   .     S
C969   C1024   1.473   .     S
C969   C1007   1.414   .     S
C970   C1004   1.414   .     A
C970   C1023   1.473   .     S
C971   C1022   1.473   .     S
C971   C1010   1.414   .     S
C972   H1088   1.083   .     S
C972   C1020   1.397   .     A
C972   C1006   1.398   .     A
C973   C1021   1.473   .     S
C973   C1006   1.414   .     A
C974   O1229   1.411   .     S
C974   H1095   1.112   .     S
C974   H1093   1.109   .     S
C975   O1230   1.411   .     S
C975   H1099   1.112   .     S
C975   H1097   1.109   .     S
C976   O1231   1.411   .     S
C976   H1102   1.112   .     S
C976   H1100   1.109   .     S
C976   H785    1.114   1_655 S
C977   H1103   1.109   .     S
C977   H1105   1.112   .     S
C977   O1232   1.411   .     S
C977   H788    1.114   1_655 S
C978   H1109   1.112   .     S
C978   O1233   1.411   .     S
C978   H1106   1.109   .     S
C978   H476    1.114   1_565 S
C979   O1234   1.411   .     S
C979   H1112   1.112   .     S
C979   H1110   1.109   .     S
C979   H479    1.114   1_565 S
C980   O1235   1.411   .     S
C980   H1113   1.109   .     S
C980   H1115   1.112   .     S
C981   H1119   1.112   .     S
C981   O1237   1.411   .     S
C981   H1116   1.109   .     S
C982   H1122   1.112   .     S
C982   H1120   1.109   .     S
C982   H1121   1.114   .     S
C982   O1238   1.411   .     S
C983   C1007   1.398   .     A
C983   H1089   1.083   .     S
C983   C1016   1.397   .     S
C984   H1123   1.109   .     S
C984   O1239   1.411   .     S
C984   H1124   1.114   .     S
C984   H1125   1.112   .     S
C985   H1126   1.109   .     S
C985   H1128   1.112   .     S
C985   O1240   1.411   .     S
C985   H1127   1.114   .     S
C986   O1241   1.411   .     S
C986   H1132   1.112   .     S
C986   H1130   1.109   .     S
C986   H1131   1.114   .     S
C987   O1242   1.411   .     S
C987   H1134   1.114   .     S
C987   H1135   1.112   .     S
C987   H1133   1.109   .     S
C988   H1136   1.109   .     S
C988   H1137   1.114   .     S
C988   H1138   1.112   .     S
C988   O1243   1.411   .     S
C989   H1141   1.114   .     S
C989   H1139   1.109   .     S
C989   H1142   1.112   .     S
C989   O1244   1.411   .     S
C990   O1245   1.411   .     S
C990   H1143   1.109   .     S
C990   H1144   1.114   .     S
C990   H1145   1.112   .     S
C991   C1009   1.398   .     A
C991   H1090   1.083   .     S
C991   C701    1.397   1_655 A
C992   C1018   1.397   .     A
C992   H1091   1.083   .     S
C992   C1010   1.398   .     A
C993   H1092   1.083   .     S
C993   C1011   1.398   .     A
C993   C388    1.397   1_565 S
C994   O1229   1.384   .     S
C995   O1230   1.384   .     S
C995   C997    1.398   .     A
C996   O1231   1.384   .     S
C996   C1008   1.398   .     A
C996   C651    1.414   1_655 S
C997   H1096   1.083   .     S
C997   C1013   1.397   .     A
C998   O1232   1.384   .     S
C998   C1019   1.398   .     A
C998   C652    1.414   1_655 S
C999   C333    1.414   1_565 A
C999   O1233   1.384   .     S
C999   C1030   1.398   .     A
C1000  O1234   1.384   .     S
C1000  C1041   1.398   .     A
C1000  C334    1.414   1_565 A
C1001  O1235   1.384   .     S
C1001  C1052   1.398   .     A
C1002  O1237   1.384   .     S
C1002  C1063   1.398   .     A
C1003  C653    1.414   1_655 A
C1003  C1074   1.398   .     A
C1003  O1238   1.384   .     S
C1004  O1239   1.384   .     S
C1005  O1240   1.384   .     S
C1005  C339    1.414   1_565 A
C1006  O1241   1.384   .     S
C1007  O1242   1.384   .     S
C1008  H1107   1.083   .     S
C1008  C698    1.397   1_655 S
C1009  O1243   1.384   .     S
C1009  C654    1.414   1_655 S
C1010  O1244   1.384   .     S
C1011  O1245   1.384   .     S
C1011  C341    1.414   1_565 S
C1012  C1013   1.466   1_554 S
C1013  C1012   1.466   1_556 S
C1014  C1052   1.397   .     A
C1014  C1015   1.466   1_554 S
C1015  C1063   1.397   .     A
C1015  C1014   1.466   1_556 S
C1016  C1017   1.466   .     S
C1018  C1020   1.466   .     S
C1019  H1118   1.083   .     S
C1019  C699    1.397   1_655 S
C1021  O1248   1.280   .     A
C1022  O1236   1.280   .     S
C1023  O1246   1.280   .     A
C1024  O1184   1.280   .     S
C1025  O1185   1.280   .     S
C1025  O1189   1.280   .     S
C1026  O1186   1.280   .     A
C1026  O1190   1.280   .     A
C1027  O1191   1.280   .     A
C1027  O1187   1.280   .     A
C1028  O1188   1.280   .     A
C1028  O1193   1.280   .     A
C1029  C1084   1.448   .     S
C1029  O1222   1.276   .     A
C1029  O1194   1.276   .     A
C1030  H1129   1.083   .     S
C1030  C380    1.397   1_565 S
C1031  O1195   1.276   .     A
C1031  O1223   1.276   .     A
C1032  O1196   1.276   .     A
C1032  O1220   1.276   .     A
C1033  O1197   1.276   .     A
C1033  O1221   1.276   .     A
C1034  O1198   1.276   .     A
C1034  O1227   1.276   .     A
C1035  O1228   1.276   .     A
C1035  O1199   1.276   .     A
C1036  O1200   1.276   .     A
C1036  C1082   1.448   .     S
C1036  O1224   1.276   .     A
C1037  C1083   1.448   .     S
C1037  O1226   1.276   .     A
C1037  O1201   1.276   .     A
C1038  O1202   1.276   .     A
C1038  O1213   1.276   .     A
C1039  O1215   1.276   .     A
C1039  O1204   1.276   .     A
C1040  O1205   1.276   .     A
C1040  O1211   1.276   .     A
C1041  H1140   1.083   .     S
C1041  C381    1.397   1_565 S
C1042  O1212   1.276   .     A
C1042  O1206   1.276   .     A
C1043  O1218   1.276   .     A
C1043  O1207   1.276   .     A
C1044  O1219   1.276   .     A
C1044  O1208   1.276   .     A
C1045  O1209   1.276   .     A
C1045  O1216   1.276   .     A
C1046  O1217   1.276   .     A
C1046  O1210   1.276   .     A
C1047  C1064   1.401   .     A
C1047  I1149   2.146   .     S
C1048  I1160   2.146   .     S
C1048  C1062   1.401   .     A
C1049  C1061   1.401   .     A
C1049  I1171   2.146   .     S
C1050  C1060   1.401   .     A
C1050  I1175   2.146   .     S
C1051  C1059   1.401   .     A
C1051  I1176   2.146   .     S
C1052  H1146   1.083   .     S
C1053  C1058   1.401   .     A
C1053  I1177   2.146   .     S
C1054  I1178   2.146   .     S
C1054  C1057   1.401   .     A
C1055  I1179   2.146   .     S
C1055  C1056   1.401   .     A
C1056  I1180   2.146   .     S
C1057  I1150   2.146   .     S
C1058  I1151   2.146   .     S
C1059  I1152   2.146   .     S
C1060  I1153   2.146   .     S
C1061  C1084   1.407   .     A
C1061  I1154   2.146   .     S
C1062  I1155   2.146   .     S
C1062  C1083   1.407   .     A
C1063  H1147   1.083   .     S
C1064  I1156   2.146   .     S
C1064  C1082   1.407   .     A
C1065  C1081   1.401   .     A
C1065  C1083   1.407   .     A
C1065  I1157   2.146   .     S
C1066  C1082   1.407   .     A
C1066  C1080   1.401   .     A
C1066  I1158   2.146   .     S
C1067  C1079   1.401   .     A
C1067  I1159   2.146   .     S
C1068  I1161   2.146   .     S
C1068  C1084   1.407   .     A
C1068  C1078   1.401   .     A
C1069  I1162   2.146   .     S
C1069  C1077   1.401   .     A
C1070  I1163   2.146   .     S
C1070  C1076   1.401   .     A
C1071  I1164   2.146   .     S
C1071  C1075   1.401   .     A
C1072  I1165   2.146   .     S
C1072  C1073   1.401   .     A
C1073  I1166   2.146   .     S
C1074  H1148   1.083   .     S
C1074  C700    1.397   1_655 A
C1075  I1167   2.146   .     S
C1076  I1168   2.146   .     S
C1077  I1169   2.146   .     S
C1078  I1170   2.146   .     S
C1079  I1172   2.146   .     S
C1080  I1173   2.146   .     S
C1081  I1174   2.146   .     S
H1094  C342    1.114   1_565 S
H1098  C343    1.114   1_565 S
H1114  C664    1.114   1_655 S
H1117  C665    1.114   1_655 S
O1181  Zn1252  1.941   .     S
O1181  Zn1249  1.941   .     S
O1181  Zn1260  1.941   .     S
O1182  Zn1251  1.945   .     S
O1182  C390    1.280   1_565 A
O1183  Zn1254  1.945   .     S
O1183  C707    1.280   1_655 S
O1184  Zn1253  1.945   .     S
O1185  Zn1263  1.945   .     S
O1186  Zn1262  1.945   .     S
O1187  Zn1257  1.945   .     S
O1188  Zn1249  1.945   .     S
O1189  Zn1259  1.945   .     S
O1190  Zn1258  1.945   .     S
O1191  Zn1261  1.945   .     S
O1192  Zn1261  1.941   .     S
O1192  Zn1257  1.941   .     S
O1192  Zn1255  1.941   .     S
O1193  Zn1260  1.945   .     S
O1194  Zn1252  1.927   .     S
O1195  Zn1251  1.927   .     S
O1196  Zn1254  1.927   .     S
O1197  Zn1253  1.927   .     S
O1198  Zn1256  1.927   .     S
O1199  Zn1255  1.927   .     S
O1200  Zn1250  1.927   .     S
O1201  Zn1264  1.927   .     S
O1202  Zn1251  1.927   .     S
O1203  Zn1250  1.941   .     S
O1203  Zn1258  1.941   .     S
O1203  Zn1262  1.941   .     S
O1204  Zn1252  1.927   .     S
O1205  Zn1264  1.927   .     S
O1206  Zn1250  1.927   .     S
O1207  Zn1255  1.927   .     S
O1208  Zn1256  1.927   .     S
O1209  Zn1253  1.927   .     S
O1210  Zn1254  1.927   .     S
O1211  Zn943   1.927   1_655 S
O1212  Zn1258  1.927   .     S
O1213  Zn629   1.927   1_565 S
O1214  Zn1263  1.941   .     S
O1214  Zn1259  1.941   .     S
O1214  Zn1253  1.941   .     S
O1215  Zn1260  1.927   .     S
O1216  Zn1263  1.927   .     S
O1217  Zn946   1.927   1_655 S
O1218  Zn1257  1.927   .     S
O1219  Zn617   1.927   1_565 S
O1220  Zn942   1.927   1_655 S
O1221  Zn1259  1.927   .     S
O1222  Zn1249  1.927   .     S
O1223  Zn625   1.927   1_565 S
O1224  Zn1262  1.927   .     S
O1225  Zn1256  1.945   .     S
O1225  C389    1.280   1_565 S
O1226  Zn947   1.927   1_655 S
O1227  Zn628   1.927   1_565 S
O1228  Zn1261  1.927   .     S
O1236  Zn1255  1.945   .     S
O1246  Zn1250  1.945   .     S
O1247  Zn1264  1.945   .     S
O1247  C708    1.280   1_655 A
O1248  Zn1252  1.945   .     S
Zn1251 O560    1.941   1_565 S
Zn1254 O887    1.941   1_655 S
Zn1256 O549    1.941   1_565 S
Zn1264 O898    1.941   1_655 S
