data_str_m1_o10_o18_pcu_sym.9
_audit_creation_date              2020-01-03
_audit_creation_method            'Materials Studio'
_symmetry_space_group_name_H-M    'P1'
_symmetry_Int_Tables_number       1
_symmetry_cell_setting            triclinic
loop_
_symmetry_equiv_pos_as_xyz
  x,y,z
_cell_length_a                    32.6241
_cell_length_b                    32.5429
_cell_length_c                    35.6760
_cell_angle_alpha                 98.3927
_cell_angle_beta                  73.5209
_cell_angle_gamma                 99.4259
loop_
_atom_site_label
_atom_site_type_symbol
_atom_site_fract_x
_atom_site_fract_y
_atom_site_fract_z
_atom_site_U_iso_or_equiv
_atom_site_adp_type
_atom_site_occupancy
Zn1    Zn    0.19244   0.14090   0.28278   0.00000  Uiso   1.00
Zn2    Zn    0.13459   0.12378   0.22258   0.00000  Uiso   1.00
Zn3    Zn    0.21166   0.19664   0.21188   0.00000  Uiso   1.00
Zn4    Zn    0.12798   0.20535   0.28277   0.00000  Uiso   1.00
O5     O     0.16667   0.16667   0.25000   0.00000  Uiso   1.00
O6     O     0.06990   0.18960   0.27820   0.00000  Uiso   1.00
O7     O     0.25440   0.15277   0.26768   0.00000  Uiso   1.00
O8     O     0.13800   0.06903   0.23607   0.00000  Uiso   1.00
O9     O     0.20437   0.25527   0.21806   0.00000  Uiso   1.00
O10    O     0.15693   0.12393   0.16625   0.00000  Uiso   1.00
O11    O     0.12687   0.20646   0.33749   0.00000  Uiso   1.00
O12    O     0.21088   0.17493   0.15877   0.00000  Uiso   1.00
O13    O     0.17198   0.16135   0.33749   0.00000  Uiso   1.00
O14    O     0.17849   0.08101   0.27821   0.00000  Uiso   1.00
O15    O     0.14581   0.26136   0.26767   0.00000  Uiso   1.00
O16    O     0.07452   0.13251   0.23607   0.00000  Uiso   1.00
O17    O     0.26785   0.19179   0.21806   0.00000  Uiso   1.00
C18    C     0.05257   0.15929   0.25845   0.00000  Uiso   1.00
C19    C     0.28107   0.17452   0.24192   0.00000  Uiso   1.00
C20    C     0.15531   0.05604   0.25905   0.00000  Uiso   1.00
C21    C     0.17760   0.27780   0.24169   0.00000  Uiso   1.00
C22    C     0.18820   0.14481   0.14400   0.00000  Uiso   1.00
C23    C     0.14596   0.18794   0.35594   0.00000  Uiso   1.00
C24    C     0.14184   0.20037   0.39795   0.00000  Uiso   1.00
C25    C     0.19638   0.13431   0.10171   0.00000  Uiso   1.00
C26    C     0.13216   0.25398   0.45365   0.00000  Uiso   1.00
C27    C     0.13320   0.24079   0.41426   0.00000  Uiso   1.00
C28    C     0.15035   0.17289   0.42082   0.00000  Uiso   1.00
C29    C     0.15682   0.18800   0.45835   0.00000  Uiso   1.00
C30    C     0.14424   0.22759   0.47563   0.00000  Uiso   1.00
C31    C     0.17419   0.16452   0.47953   0.00000  Uiso   1.00
C32    C     0.17063   0.17632   0.02023   0.00000  Uiso   1.00
C33    C     0.15021   0.21254   0.03845   0.00000  Uiso   1.00
C34    C     0.14125   0.23926   0.01541   0.00000  Uiso   1.00
C35    C     0.19739   0.13108   0.46038   0.00000  Uiso   1.00
C36    C     0.20884   0.10376   0.48109   0.00000  Uiso   1.00
C37    C     0.19933   0.11114   0.02240   0.00000  Uiso   1.00
C38    C     0.18681   0.15077   0.04080   0.00000  Uiso   1.00
C39    C     0.20330   0.08111   0.04600   0.00000  Uiso   1.00
C40    C     0.20083   0.09307   0.08571   0.00000  Uiso   1.00
C41    C     0.19182   0.16343   0.07885   0.00000  Uiso   1.00
H42    H     0.12779   0.26762   0.02978   0.00000  Uiso   1.00
H43    H     0.19093   0.19540   0.09189   0.00000  Uiso   1.00
H44    H     0.20163   0.06997   0.10444   0.00000  Uiso   1.00
H45    H     0.12795   0.26236   0.39618   0.00000  Uiso   1.00
H46    H     0.20889   0.12678   0.42875   0.00000  Uiso   1.00
C47    C     0.32667   0.18141   0.24268   0.00000  Uiso   1.00
C48    C     0.00717   0.15417   0.25997   0.00000  Uiso   1.00
C49    C     0.18382   0.32292   0.23930   0.00000  Uiso   1.00
C50    C     0.15184   0.01159   0.25996   0.00000  Uiso   1.00
H51    H     0.12126   0.32968   0.27656   0.00000  Uiso   1.00
N52    N     0.20430   0.03755   0.03173   0.00000  Uiso   1.00
O53    O     0.22572   0.01499   0.04473   0.00000  Uiso   1.00
O54    O     0.17797   0.01883   0.01134   0.00000  Uiso   1.00
O55    O     0.01956   0.21893   0.23365   0.00000  Uiso   1.00
C56    C     0.02274   0.22750   0.19521   0.00000  Uiso   1.00
H57    H     0.32890   0.24420   0.19542   0.00000  Uiso   1.00
H58    H     0.02350   0.19860   0.17404   0.00000  Uiso   1.00
C59    C     0.06418   0.25658   0.18110   0.00000  Uiso   1.00
H60    H     0.09249   0.24059   0.17890   0.00000  Uiso   1.00
H61    H     0.06589   0.26559   0.15181   0.00000  Uiso   1.00
H62    H     0.06489   0.28541   0.20198   0.00000  Uiso   1.00
O63    O     0.31594   0.11554   0.26757   0.00000  Uiso   1.00
C64    C     0.31846   0.10391   0.30341   0.00000  Uiso   1.00
H65    H     0.31459   0.13058   0.32711   0.00000  Uiso   1.00
H66    H     0.01648   0.09229   0.29944   0.00000  Uiso   1.00
C67    C     0.28238   0.06876   0.31651   0.00000  Uiso   1.00
H68    H     0.28538   0.04140   0.29375   0.00000  Uiso   1.00
H69    H     0.28423   0.05898   0.34447   0.00000  Uiso   1.00
H70    H     0.25059   0.07968   0.32123   0.00000  Uiso   1.00
N71    N     0.22386   0.00916   0.21549   0.00000  Uiso   1.00
O72    O     0.25992   0.32850   0.21252   0.00000  Uiso   1.00
O73    O     0.22416   0.03856   0.19425   0.00000  Uiso   1.00
N74    N     0.23457   0.07188   0.45922   0.00000  Uiso   1.00
O75    O     0.26963   0.06737   0.46789   0.00000  Uiso   1.00
O76    O     0.22698   0.05210   0.42695   0.00000  Uiso   1.00
O77    O     0.12460   0.29440   0.46968   0.00000  Uiso   1.00
C78    C     0.08306   0.30120   0.46927   0.00000  Uiso   1.00
H79    H     0.05818   0.27452   0.47983   0.00000  Uiso   1.00
H80    H     0.08274   0.30619   0.43918   0.00000  Uiso   1.00
C81    C     0.07114   0.00716   0.49648   0.00000  Uiso   1.00
H82    H     0.09552   0.03440   0.48710   0.00000  Uiso   1.00
H83    H     0.03909   0.01372   0.49558   0.00000  Uiso   1.00
H84    H     0.06980   0.00270   0.02712   0.00000  Uiso   1.00
O85    O     0.15101   0.13107   0.40635   0.00000  Uiso   1.00
C86    C     0.10990   0.10897   0.42132   0.00000  Uiso   1.00
H87    H     0.08464   0.12181   0.41269   0.00000  Uiso   1.00
H88    H     0.10172   0.11034   0.45395   0.00000  Uiso   1.00
C89    C     0.11007   0.06329   0.40439   0.00000  Uiso   1.00
H90    H     0.13449   0.04935   0.41303   0.00000  Uiso   1.00
H91    H     0.07781   0.04553   0.41576   0.00000  Uiso   1.00
H92    H     0.11787   0.06087   0.37181   0.00000  Uiso   1.00
N93    N     0.13352   0.22066   0.08016   0.00000  Uiso   1.00
O94    O     0.10689   0.19209   0.09989   0.00000  Uiso   1.00
O95    O     0.13960   0.25838   0.09739   0.00000  Uiso   1.00
Zn96   Zn    0.52577   0.14090   0.28278   0.00000  Uiso   1.00
Zn97   Zn    0.46792   0.12378   0.22258   0.00000  Uiso   1.00
Zn98   Zn    0.54500   0.19664   0.21188   0.00000  Uiso   1.00
Zn99   Zn    0.46131   0.20535   0.28277   0.00000  Uiso   1.00
O100   O     0.50000   0.16667   0.25000   0.00000  Uiso   1.00
O101   O     0.40323   0.18960   0.27820   0.00000  Uiso   1.00
O102   O     0.58773   0.15277   0.26768   0.00000  Uiso   1.00
O103   O     0.47133   0.06903   0.23607   0.00000  Uiso   1.00
O104   O     0.53771   0.25527   0.21806   0.00000  Uiso   1.00
O105   O     0.49027   0.12393   0.16625   0.00000  Uiso   1.00
O106   O     0.46020   0.20646   0.33749   0.00000  Uiso   1.00
O107   O     0.54421   0.17493   0.15877   0.00000  Uiso   1.00
O108   O     0.50532   0.16135   0.33749   0.00000  Uiso   1.00
O109   O     0.51182   0.08101   0.27821   0.00000  Uiso   1.00
O110   O     0.47914   0.26136   0.26767   0.00000  Uiso   1.00
O111   O     0.40785   0.13251   0.23607   0.00000  Uiso   1.00
O112   O     0.60119   0.19179   0.21806   0.00000  Uiso   1.00
C113   C     0.38590   0.15929   0.25845   0.00000  Uiso   1.00
C114   C     0.61440   0.17452   0.24192   0.00000  Uiso   1.00
C115   C     0.48865   0.05604   0.25905   0.00000  Uiso   1.00
C116   C     0.51093   0.27780   0.24169   0.00000  Uiso   1.00
C117   C     0.52153   0.14481   0.14400   0.00000  Uiso   1.00
C118   C     0.47929   0.18794   0.35594   0.00000  Uiso   1.00
C119   C     0.47517   0.20037   0.39795   0.00000  Uiso   1.00
C120   C     0.52971   0.13431   0.10171   0.00000  Uiso   1.00
C121   C     0.46550   0.25398   0.45365   0.00000  Uiso   1.00
C122   C     0.46654   0.24079   0.41426   0.00000  Uiso   1.00
C123   C     0.48369   0.17289   0.42082   0.00000  Uiso   1.00
C124   C     0.49015   0.18800   0.45835   0.00000  Uiso   1.00
C125   C     0.47757   0.22759   0.47563   0.00000  Uiso   1.00
C126   C     0.50752   0.16452   0.47953   0.00000  Uiso   1.00
C127   C     0.50397   0.17632   0.02023   0.00000  Uiso   1.00
C128   C     0.48354   0.21254   0.03845   0.00000  Uiso   1.00
C129   C     0.47459   0.23926   0.01541   0.00000  Uiso   1.00
C130   C     0.53072   0.13108   0.46038   0.00000  Uiso   1.00
C131   C     0.54218   0.10376   0.48109   0.00000  Uiso   1.00
C132   C     0.53266   0.11114   0.02240   0.00000  Uiso   1.00
C133   C     0.52015   0.15077   0.04080   0.00000  Uiso   1.00
C134   C     0.53663   0.08111   0.04600   0.00000  Uiso   1.00
C135   C     0.53416   0.09307   0.08571   0.00000  Uiso   1.00
C136   C     0.52515   0.16343   0.07885   0.00000  Uiso   1.00
H137   H     0.46112   0.26762   0.02978   0.00000  Uiso   1.00
H138   H     0.52426   0.19540   0.09189   0.00000  Uiso   1.00
H139   H     0.53497   0.06997   0.10444   0.00000  Uiso   1.00
H140   H     0.46128   0.26236   0.39618   0.00000  Uiso   1.00
H141   H     0.54222   0.12678   0.42875   0.00000  Uiso   1.00
C142   C     0.66000   0.18141   0.24268   0.00000  Uiso   1.00
C143   C     0.34051   0.15417   0.25997   0.00000  Uiso   1.00
C144   C     0.51715   0.32292   0.23930   0.00000  Uiso   1.00
C145   C     0.48518   0.01159   0.25996   0.00000  Uiso   1.00
H146   H     0.45459   0.32968   0.27656   0.00000  Uiso   1.00
N147   N     0.53763   0.03755   0.03173   0.00000  Uiso   1.00
O148   O     0.55905   0.01499   0.04473   0.00000  Uiso   1.00
O149   O     0.51130   0.01883   0.01134   0.00000  Uiso   1.00
O150   O     0.35289   0.21893   0.23365   0.00000  Uiso   1.00
C151   C     0.35608   0.22750   0.19521   0.00000  Uiso   1.00
H152   H     0.66224   0.24420   0.19542   0.00000  Uiso   1.00
H153   H     0.35683   0.19860   0.17404   0.00000  Uiso   1.00
C154   C     0.39751   0.25658   0.18110   0.00000  Uiso   1.00
H155   H     0.42583   0.24059   0.17890   0.00000  Uiso   1.00
H156   H     0.39923   0.26559   0.15181   0.00000  Uiso   1.00
H157   H     0.39822   0.28541   0.20198   0.00000  Uiso   1.00
O158   O     0.64928   0.11554   0.26757   0.00000  Uiso   1.00
C159   C     0.65180   0.10391   0.30341   0.00000  Uiso   1.00
H160   H     0.64792   0.13058   0.32711   0.00000  Uiso   1.00
H161   H     0.34981   0.09229   0.29944   0.00000  Uiso   1.00
C162   C     0.61571   0.06876   0.31651   0.00000  Uiso   1.00
H163   H     0.61871   0.04140   0.29375   0.00000  Uiso   1.00
H164   H     0.61757   0.05898   0.34447   0.00000  Uiso   1.00
H165   H     0.58392   0.07968   0.32123   0.00000  Uiso   1.00
N166   N     0.55719   0.00916   0.21549   0.00000  Uiso   1.00
O167   O     0.59325   0.32850   0.21252   0.00000  Uiso   1.00
O168   O     0.55749   0.03856   0.19425   0.00000  Uiso   1.00
N169   N     0.56790   0.07188   0.45922   0.00000  Uiso   1.00
O170   O     0.60296   0.06737   0.46789   0.00000  Uiso   1.00
O171   O     0.56031   0.05210   0.42695   0.00000  Uiso   1.00
O172   O     0.45793   0.29440   0.46968   0.00000  Uiso   1.00
C173   C     0.41640   0.30120   0.46927   0.00000  Uiso   1.00
H174   H     0.39152   0.27452   0.47983   0.00000  Uiso   1.00
H175   H     0.41607   0.30619   0.43918   0.00000  Uiso   1.00
C176   C     0.40447   0.00716   0.49648   0.00000  Uiso   1.00
H177   H     0.42885   0.03440   0.48710   0.00000  Uiso   1.00
H178   H     0.37242   0.01372   0.49558   0.00000  Uiso   1.00
H179   H     0.40313   0.00270   0.02712   0.00000  Uiso   1.00
O180   O     0.48435   0.13107   0.40635   0.00000  Uiso   1.00
C181   C     0.44324   0.10897   0.42132   0.00000  Uiso   1.00
H182   H     0.41798   0.12181   0.41269   0.00000  Uiso   1.00
H183   H     0.43505   0.11034   0.45395   0.00000  Uiso   1.00
C184   C     0.44340   0.06329   0.40439   0.00000  Uiso   1.00
H185   H     0.46783   0.04935   0.41303   0.00000  Uiso   1.00
H186   H     0.41115   0.04553   0.41576   0.00000  Uiso   1.00
H187   H     0.45120   0.06087   0.37181   0.00000  Uiso   1.00
N188   N     0.46685   0.22066   0.08016   0.00000  Uiso   1.00
O189   O     0.44022   0.19209   0.09989   0.00000  Uiso   1.00
O190   O     0.47293   0.25838   0.09739   0.00000  Uiso   1.00
Zn191  Zn    0.85910   0.14090   0.28278   0.00000  Uiso   1.00
Zn192  Zn    0.80125   0.12378   0.22258   0.00000  Uiso   1.00
Zn193  Zn    0.87833   0.19664   0.21188   0.00000  Uiso   1.00
Zn194  Zn    0.79465   0.20535   0.28277   0.00000  Uiso   1.00
O195   O     0.83333   0.16667   0.25000   0.00000  Uiso   1.00
O196   O     0.73656   0.18960   0.27820   0.00000  Uiso   1.00
O197   O     0.92106   0.15277   0.26768   0.00000  Uiso   1.00
O198   O     0.80467   0.06903   0.23607   0.00000  Uiso   1.00
O199   O     0.87104   0.25527   0.21806   0.00000  Uiso   1.00
O200   O     0.82360   0.12393   0.16625   0.00000  Uiso   1.00
O201   O     0.79354   0.20646   0.33749   0.00000  Uiso   1.00
O202   O     0.87755   0.17493   0.15877   0.00000  Uiso   1.00
O203   O     0.83865   0.16135   0.33749   0.00000  Uiso   1.00
O204   O     0.84515   0.08101   0.27821   0.00000  Uiso   1.00
O205   O     0.81247   0.26136   0.26767   0.00000  Uiso   1.00
O206   O     0.74119   0.13251   0.23607   0.00000  Uiso   1.00
O207   O     0.93452   0.19179   0.21806   0.00000  Uiso   1.00
C208   C     0.71924   0.15929   0.25845   0.00000  Uiso   1.00
C209   C     0.94773   0.17452   0.24192   0.00000  Uiso   1.00
C210   C     0.82198   0.05604   0.25905   0.00000  Uiso   1.00
C211   C     0.84427   0.27780   0.24169   0.00000  Uiso   1.00
C212   C     0.85487   0.14481   0.14400   0.00000  Uiso   1.00
C213   C     0.81262   0.18794   0.35594   0.00000  Uiso   1.00
C214   C     0.80851   0.20037   0.39795   0.00000  Uiso   1.00
C215   C     0.86304   0.13431   0.10171   0.00000  Uiso   1.00
C216   C     0.79883   0.25398   0.45365   0.00000  Uiso   1.00
C217   C     0.79987   0.24079   0.41426   0.00000  Uiso   1.00
C218   C     0.81702   0.17289   0.42082   0.00000  Uiso   1.00
C219   C     0.82348   0.18800   0.45835   0.00000  Uiso   1.00
C220   C     0.81091   0.22759   0.47563   0.00000  Uiso   1.00
C221   C     0.84085   0.16452   0.47953   0.00000  Uiso   1.00
C222   C     0.83730   0.17632   0.02023   0.00000  Uiso   1.00
C223   C     0.81687   0.21254   0.03845   0.00000  Uiso   1.00
C224   C     0.80792   0.23926   0.01541   0.00000  Uiso   1.00
C225   C     0.86405   0.13108   0.46038   0.00000  Uiso   1.00
C226   C     0.87551   0.10376   0.48109   0.00000  Uiso   1.00
C227   C     0.86600   0.11114   0.02240   0.00000  Uiso   1.00
C228   C     0.85348   0.15077   0.04080   0.00000  Uiso   1.00
C229   C     0.86997   0.08111   0.04600   0.00000  Uiso   1.00
C230   C     0.86749   0.09307   0.08571   0.00000  Uiso   1.00
C231   C     0.85848   0.16343   0.07885   0.00000  Uiso   1.00
H232   H     0.79446   0.26762   0.02978   0.00000  Uiso   1.00
H233   H     0.85760   0.19540   0.09189   0.00000  Uiso   1.00
H234   H     0.86830   0.06997   0.10444   0.00000  Uiso   1.00
H235   H     0.79462   0.26236   0.39618   0.00000  Uiso   1.00
H236   H     0.87556   0.12678   0.42875   0.00000  Uiso   1.00
C237   C     0.99333   0.18141   0.24268   0.00000  Uiso   1.00
C238   C     0.67384   0.15417   0.25997   0.00000  Uiso   1.00
C239   C     0.85048   0.32292   0.23930   0.00000  Uiso   1.00
C240   C     0.81851   0.01159   0.25996   0.00000  Uiso   1.00
H241   H     0.78792   0.32968   0.27656   0.00000  Uiso   1.00
N242   N     0.87097   0.03755   0.03173   0.00000  Uiso   1.00
O243   O     0.89238   0.01499   0.04473   0.00000  Uiso   1.00
O244   O     0.84464   0.01883   0.01134   0.00000  Uiso   1.00
O245   O     0.68622   0.21893   0.23365   0.00000  Uiso   1.00
C246   C     0.68941   0.22750   0.19521   0.00000  Uiso   1.00
H247   H     0.99557   0.24420   0.19542   0.00000  Uiso   1.00
H248   H     0.69017   0.19860   0.17404   0.00000  Uiso   1.00
C249   C     0.73084   0.25658   0.18110   0.00000  Uiso   1.00
H250   H     0.75916   0.24059   0.17890   0.00000  Uiso   1.00
H251   H     0.73256   0.26559   0.15181   0.00000  Uiso   1.00
H252   H     0.73155   0.28541   0.20198   0.00000  Uiso   1.00
O253   O     0.98261   0.11554   0.26757   0.00000  Uiso   1.00
C254   C     0.98513   0.10391   0.30341   0.00000  Uiso   1.00
H255   H     0.98125   0.13058   0.32711   0.00000  Uiso   1.00
H256   H     0.68315   0.09229   0.29944   0.00000  Uiso   1.00
C257   C     0.94905   0.06876   0.31651   0.00000  Uiso   1.00
H258   H     0.95205   0.04140   0.29375   0.00000  Uiso   1.00
H259   H     0.95090   0.05898   0.34447   0.00000  Uiso   1.00
H260   H     0.91725   0.07968   0.32123   0.00000  Uiso   1.00
N261   N     0.89052   0.00916   0.21549   0.00000  Uiso   1.00
O262   O     0.92658   0.32850   0.21252   0.00000  Uiso   1.00
O263   O     0.89083   0.03856   0.19425   0.00000  Uiso   1.00
N264   N     0.90124   0.07188   0.45922   0.00000  Uiso   1.00
O265   O     0.93629   0.06737   0.46789   0.00000  Uiso   1.00
O266   O     0.89365   0.05210   0.42695   0.00000  Uiso   1.00
O267   O     0.79126   0.29440   0.46968   0.00000  Uiso   1.00
C268   C     0.74973   0.30120   0.46927   0.00000  Uiso   1.00
H269   H     0.72485   0.27452   0.47983   0.00000  Uiso   1.00
H270   H     0.74941   0.30619   0.43918   0.00000  Uiso   1.00
C271   C     0.73780   0.00716   0.49648   0.00000  Uiso   1.00
H272   H     0.76219   0.03440   0.48710   0.00000  Uiso   1.00
H273   H     0.70576   0.01372   0.49558   0.00000  Uiso   1.00
H274   H     0.73646   0.00270   0.02712   0.00000  Uiso   1.00
O275   O     0.81768   0.13107   0.40635   0.00000  Uiso   1.00
C276   C     0.77657   0.10897   0.42132   0.00000  Uiso   1.00
H277   H     0.75131   0.12181   0.41269   0.00000  Uiso   1.00
H278   H     0.76839   0.11034   0.45395   0.00000  Uiso   1.00
C279   C     0.77673   0.06329   0.40439   0.00000  Uiso   1.00
H280   H     0.80116   0.04935   0.41303   0.00000  Uiso   1.00
H281   H     0.74448   0.04553   0.41576   0.00000  Uiso   1.00
H282   H     0.78454   0.06087   0.37181   0.00000  Uiso   1.00
N283   N     0.80019   0.22066   0.08016   0.00000  Uiso   1.00
O284   O     0.77356   0.19209   0.09989   0.00000  Uiso   1.00
O285   O     0.80626   0.25838   0.09739   0.00000  Uiso   1.00
Zn286  Zn    0.19244   0.47423   0.28278   0.00000  Uiso   1.00
Zn287  Zn    0.13459   0.45711   0.22258   0.00000  Uiso   1.00
Zn288  Zn    0.21166   0.52997   0.21188   0.00000  Uiso   1.00
Zn289  Zn    0.12798   0.53868   0.28277   0.00000  Uiso   1.00
O290   O     0.16667   0.50000   0.25000   0.00000  Uiso   1.00
O291   O     0.06990   0.52293   0.27820   0.00000  Uiso   1.00
O292   O     0.25440   0.48610   0.26768   0.00000  Uiso   1.00
O293   O     0.13800   0.40236   0.23607   0.00000  Uiso   1.00
O294   O     0.20437   0.58860   0.21806   0.00000  Uiso   1.00
O295   O     0.15693   0.45726   0.16625   0.00000  Uiso   1.00
O296   O     0.12687   0.53979   0.33749   0.00000  Uiso   1.00
O297   O     0.21088   0.50826   0.15877   0.00000  Uiso   1.00
O298   O     0.17198   0.49468   0.33749   0.00000  Uiso   1.00
O299   O     0.17849   0.41434   0.27821   0.00000  Uiso   1.00
O300   O     0.14581   0.59469   0.26767   0.00000  Uiso   1.00
O301   O     0.07452   0.46584   0.23607   0.00000  Uiso   1.00
O302   O     0.26785   0.52512   0.21806   0.00000  Uiso   1.00
C303   C     0.05257   0.49262   0.25845   0.00000  Uiso   1.00
C304   C     0.28107   0.50785   0.24192   0.00000  Uiso   1.00
C305   C     0.15531   0.38937   0.25905   0.00000  Uiso   1.00
C306   C     0.17760   0.61114   0.24169   0.00000  Uiso   1.00
C307   C     0.18820   0.47814   0.14400   0.00000  Uiso   1.00
C308   C     0.14596   0.52128   0.35594   0.00000  Uiso   1.00
C309   C     0.14184   0.53370   0.39795   0.00000  Uiso   1.00
C310   C     0.19638   0.46764   0.10171   0.00000  Uiso   1.00
C311   C     0.13216   0.58732   0.45365   0.00000  Uiso   1.00
C312   C     0.13320   0.57413   0.41426   0.00000  Uiso   1.00
C313   C     0.15035   0.50622   0.42082   0.00000  Uiso   1.00
C314   C     0.15682   0.52133   0.45835   0.00000  Uiso   1.00
C315   C     0.14424   0.56092   0.47563   0.00000  Uiso   1.00
C316   C     0.17419   0.49786   0.47953   0.00000  Uiso   1.00
C317   C     0.17063   0.50965   0.02023   0.00000  Uiso   1.00
C318   C     0.15021   0.54587   0.03845   0.00000  Uiso   1.00
C319   C     0.14125   0.57259   0.01541   0.00000  Uiso   1.00
C320   C     0.19739   0.46441   0.46038   0.00000  Uiso   1.00
C321   C     0.20884   0.43709   0.48109   0.00000  Uiso   1.00
C322   C     0.19933   0.44448   0.02240   0.00000  Uiso   1.00
C323   C     0.18681   0.48411   0.04080   0.00000  Uiso   1.00
C324   C     0.20330   0.41445   0.04600   0.00000  Uiso   1.00
C325   C     0.20083   0.42641   0.08571   0.00000  Uiso   1.00
C326   C     0.19182   0.49676   0.07885   0.00000  Uiso   1.00
H327   H     0.12779   0.60096   0.02978   0.00000  Uiso   1.00
H328   H     0.19093   0.52874   0.09189   0.00000  Uiso   1.00
H329   H     0.20163   0.40331   0.10444   0.00000  Uiso   1.00
H330   H     0.12795   0.59570   0.39618   0.00000  Uiso   1.00
H331   H     0.20889   0.46012   0.42875   0.00000  Uiso   1.00
C332   C     0.32667   0.51475   0.24268   0.00000  Uiso   1.00
C333   C     0.00717   0.48751   0.25997   0.00000  Uiso   1.00
C334   C     0.18382   0.65625   0.23930   0.00000  Uiso   1.00
C335   C     0.15184   0.34492   0.25996   0.00000  Uiso   1.00
H336   H     0.12126   0.66301   0.27656   0.00000  Uiso   1.00
N337   N     0.20430   0.37088   0.03173   0.00000  Uiso   1.00
O338   O     0.22572   0.34832   0.04473   0.00000  Uiso   1.00
O339   O     0.17797   0.35217   0.01134   0.00000  Uiso   1.00
O340   O     0.01956   0.55226   0.23365   0.00000  Uiso   1.00
C341   C     0.02274   0.56084   0.19521   0.00000  Uiso   1.00
H342   H     0.32890   0.57753   0.19542   0.00000  Uiso   1.00
H343   H     0.02350   0.53193   0.17404   0.00000  Uiso   1.00
C344   C     0.06418   0.58991   0.18110   0.00000  Uiso   1.00
H345   H     0.09249   0.57393   0.17890   0.00000  Uiso   1.00
H346   H     0.06589   0.59892   0.15181   0.00000  Uiso   1.00
H347   H     0.06489   0.61875   0.20198   0.00000  Uiso   1.00
O348   O     0.31594   0.44887   0.26757   0.00000  Uiso   1.00
C349   C     0.31846   0.43724   0.30341   0.00000  Uiso   1.00
H350   H     0.31459   0.46391   0.32711   0.00000  Uiso   1.00
H351   H     0.01648   0.42562   0.29944   0.00000  Uiso   1.00
C352   C     0.28238   0.40210   0.31651   0.00000  Uiso   1.00
H353   H     0.28538   0.37474   0.29375   0.00000  Uiso   1.00
H354   H     0.28423   0.39232   0.34447   0.00000  Uiso   1.00
H355   H     0.25059   0.41301   0.32123   0.00000  Uiso   1.00
N356   N     0.22386   0.34249   0.21549   0.00000  Uiso   1.00
O357   O     0.25992   0.66183   0.21252   0.00000  Uiso   1.00
O358   O     0.22416   0.37190   0.19425   0.00000  Uiso   1.00
N359   N     0.23457   0.40521   0.45922   0.00000  Uiso   1.00
O360   O     0.26963   0.40071   0.46789   0.00000  Uiso   1.00
O361   O     0.22698   0.38543   0.42695   0.00000  Uiso   1.00
O362   O     0.12460   0.62773   0.46968   0.00000  Uiso   1.00
C363   C     0.08306   0.63453   0.46927   0.00000  Uiso   1.00
H364   H     0.05818   0.60785   0.47983   0.00000  Uiso   1.00
H365   H     0.08274   0.63952   0.43918   0.00000  Uiso   1.00
C366   C     0.07114   0.34049   0.49648   0.00000  Uiso   1.00
H367   H     0.09552   0.36773   0.48710   0.00000  Uiso   1.00
H368   H     0.03909   0.34706   0.49558   0.00000  Uiso   1.00
H369   H     0.06980   0.33603   0.02712   0.00000  Uiso   1.00
O370   O     0.15101   0.46440   0.40635   0.00000  Uiso   1.00
C371   C     0.10990   0.44230   0.42132   0.00000  Uiso   1.00
H372   H     0.08464   0.45515   0.41269   0.00000  Uiso   1.00
H373   H     0.10172   0.44367   0.45395   0.00000  Uiso   1.00
C374   C     0.11007   0.39662   0.40439   0.00000  Uiso   1.00
H375   H     0.13449   0.38269   0.41303   0.00000  Uiso   1.00
H376   H     0.07781   0.37886   0.41576   0.00000  Uiso   1.00
H377   H     0.11787   0.39420   0.37181   0.00000  Uiso   1.00
N378   N     0.13352   0.55399   0.08016   0.00000  Uiso   1.00
O379   O     0.10689   0.52542   0.09989   0.00000  Uiso   1.00
O380   O     0.13960   0.59171   0.09739   0.00000  Uiso   1.00
Zn381  Zn    0.52577   0.47423   0.28278   0.00000  Uiso   1.00
Zn382  Zn    0.46792   0.45711   0.22258   0.00000  Uiso   1.00
Zn383  Zn    0.54500   0.52997   0.21188   0.00000  Uiso   1.00
Zn384  Zn    0.46131   0.53868   0.28277   0.00000  Uiso   1.00
O385   O     0.50000   0.50000   0.25000   0.00000  Uiso   1.00
O386   O     0.40323   0.52293   0.27820   0.00000  Uiso   1.00
O387   O     0.58773   0.48610   0.26768   0.00000  Uiso   1.00
O388   O     0.47133   0.40236   0.23607   0.00000  Uiso   1.00
O389   O     0.53771   0.58860   0.21806   0.00000  Uiso   1.00
O390   O     0.49027   0.45726   0.16625   0.00000  Uiso   1.00
O391   O     0.46020   0.53979   0.33749   0.00000  Uiso   1.00
O392   O     0.54421   0.50826   0.15877   0.00000  Uiso   1.00
O393   O     0.50532   0.49468   0.33749   0.00000  Uiso   1.00
O394   O     0.51182   0.41434   0.27821   0.00000  Uiso   1.00
O395   O     0.47914   0.59469   0.26767   0.00000  Uiso   1.00
O396   O     0.40785   0.46584   0.23607   0.00000  Uiso   1.00
O397   O     0.60119   0.52512   0.21806   0.00000  Uiso   1.00
C398   C     0.38590   0.49262   0.25845   0.00000  Uiso   1.00
C399   C     0.61440   0.50785   0.24192   0.00000  Uiso   1.00
C400   C     0.48865   0.38937   0.25905   0.00000  Uiso   1.00
C401   C     0.51093   0.61114   0.24169   0.00000  Uiso   1.00
C402   C     0.52153   0.47814   0.14400   0.00000  Uiso   1.00
C403   C     0.47929   0.52128   0.35594   0.00000  Uiso   1.00
C404   C     0.47517   0.53370   0.39795   0.00000  Uiso   1.00
C405   C     0.52971   0.46764   0.10171   0.00000  Uiso   1.00
C406   C     0.46550   0.58732   0.45365   0.00000  Uiso   1.00
C407   C     0.46654   0.57413   0.41426   0.00000  Uiso   1.00
C408   C     0.48369   0.50622   0.42082   0.00000  Uiso   1.00
C409   C     0.49015   0.52133   0.45835   0.00000  Uiso   1.00
C410   C     0.47757   0.56092   0.47563   0.00000  Uiso   1.00
C411   C     0.50752   0.49786   0.47953   0.00000  Uiso   1.00
C412   C     0.50397   0.50965   0.02023   0.00000  Uiso   1.00
C413   C     0.48354   0.54587   0.03845   0.00000  Uiso   1.00
C414   C     0.47459   0.57259   0.01541   0.00000  Uiso   1.00
C415   C     0.53072   0.46441   0.46038   0.00000  Uiso   1.00
C416   C     0.54218   0.43709   0.48109   0.00000  Uiso   1.00
C417   C     0.53266   0.44448   0.02240   0.00000  Uiso   1.00
C418   C     0.52015   0.48411   0.04080   0.00000  Uiso   1.00
C419   C     0.53663   0.41445   0.04600   0.00000  Uiso   1.00
C420   C     0.53416   0.42641   0.08571   0.00000  Uiso   1.00
C421   C     0.52515   0.49676   0.07885   0.00000  Uiso   1.00
H422   H     0.46112   0.60096   0.02978   0.00000  Uiso   1.00
H423   H     0.52426   0.52874   0.09189   0.00000  Uiso   1.00
H424   H     0.53497   0.40331   0.10444   0.00000  Uiso   1.00
H425   H     0.46128   0.59570   0.39618   0.00000  Uiso   1.00
H426   H     0.54222   0.46012   0.42875   0.00000  Uiso   1.00
C427   C     0.66000   0.51475   0.24268   0.00000  Uiso   1.00
C428   C     0.34051   0.48751   0.25997   0.00000  Uiso   1.00
C429   C     0.51715   0.65625   0.23930   0.00000  Uiso   1.00
C430   C     0.48518   0.34492   0.25996   0.00000  Uiso   1.00
H431   H     0.45459   0.66301   0.27656   0.00000  Uiso   1.00
N432   N     0.53763   0.37088   0.03173   0.00000  Uiso   1.00
O433   O     0.55905   0.34832   0.04473   0.00000  Uiso   1.00
O434   O     0.51130   0.35217   0.01134   0.00000  Uiso   1.00
O435   O     0.35289   0.55226   0.23365   0.00000  Uiso   1.00
C436   C     0.35608   0.56084   0.19521   0.00000  Uiso   1.00
H437   H     0.66224   0.57753   0.19542   0.00000  Uiso   1.00
H438   H     0.35683   0.53193   0.17404   0.00000  Uiso   1.00
C439   C     0.39751   0.58991   0.18110   0.00000  Uiso   1.00
H440   H     0.42583   0.57393   0.17890   0.00000  Uiso   1.00
H441   H     0.39923   0.59892   0.15181   0.00000  Uiso   1.00
H442   H     0.39822   0.61875   0.20198   0.00000  Uiso   1.00
O443   O     0.64928   0.44887   0.26757   0.00000  Uiso   1.00
C444   C     0.65180   0.43724   0.30341   0.00000  Uiso   1.00
H445   H     0.64792   0.46391   0.32711   0.00000  Uiso   1.00
H446   H     0.34981   0.42562   0.29944   0.00000  Uiso   1.00
C447   C     0.61571   0.40210   0.31651   0.00000  Uiso   1.00
H448   H     0.61871   0.37474   0.29375   0.00000  Uiso   1.00
H449   H     0.61757   0.39232   0.34447   0.00000  Uiso   1.00
H450   H     0.58392   0.41301   0.32123   0.00000  Uiso   1.00
N451   N     0.55719   0.34249   0.21549   0.00000  Uiso   1.00
O452   O     0.59325   0.66183   0.21252   0.00000  Uiso   1.00
O453   O     0.55749   0.37190   0.19425   0.00000  Uiso   1.00
N454   N     0.56790   0.40521   0.45922   0.00000  Uiso   1.00
O455   O     0.60296   0.40071   0.46789   0.00000  Uiso   1.00
O456   O     0.56031   0.38543   0.42695   0.00000  Uiso   1.00
O457   O     0.45793   0.62773   0.46968   0.00000  Uiso   1.00
C458   C     0.41640   0.63453   0.46927   0.00000  Uiso   1.00
H459   H     0.39152   0.60785   0.47983   0.00000  Uiso   1.00
H460   H     0.41607   0.63952   0.43918   0.00000  Uiso   1.00
C461   C     0.40447   0.34049   0.49648   0.00000  Uiso   1.00
H462   H     0.42885   0.36773   0.48710   0.00000  Uiso   1.00
H463   H     0.37242   0.34706   0.49558   0.00000  Uiso   1.00
H464   H     0.40313   0.33603   0.02712   0.00000  Uiso   1.00
O465   O     0.48435   0.46440   0.40635   0.00000  Uiso   1.00
C466   C     0.44324   0.44230   0.42132   0.00000  Uiso   1.00
H467   H     0.41798   0.45515   0.41269   0.00000  Uiso   1.00
H468   H     0.43505   0.44367   0.45395   0.00000  Uiso   1.00
C469   C     0.44340   0.39662   0.40439   0.00000  Uiso   1.00
H470   H     0.46783   0.38269   0.41303   0.00000  Uiso   1.00
H471   H     0.41115   0.37886   0.41576   0.00000  Uiso   1.00
H472   H     0.45120   0.39420   0.37181   0.00000  Uiso   1.00
N473   N     0.46685   0.55399   0.08016   0.00000  Uiso   1.00
O474   O     0.44022   0.52542   0.09989   0.00000  Uiso   1.00
O475   O     0.47293   0.59171   0.09739   0.00000  Uiso   1.00
Zn476  Zn    0.85910   0.47423   0.28278   0.00000  Uiso   1.00
Zn477  Zn    0.80125   0.45711   0.22258   0.00000  Uiso   1.00
Zn478  Zn    0.87833   0.52997   0.21188   0.00000  Uiso   1.00
Zn479  Zn    0.79465   0.53868   0.28277   0.00000  Uiso   1.00
O480   O     0.83333   0.50000   0.25000   0.00000  Uiso   1.00
O481   O     0.73656   0.52293   0.27820   0.00000  Uiso   1.00
O482   O     0.92106   0.48610   0.26768   0.00000  Uiso   1.00
O483   O     0.80467   0.40236   0.23607   0.00000  Uiso   1.00
O484   O     0.87104   0.58860   0.21806   0.00000  Uiso   1.00
O485   O     0.82360   0.45726   0.16625   0.00000  Uiso   1.00
O486   O     0.79354   0.53979   0.33749   0.00000  Uiso   1.00
O487   O     0.87755   0.50826   0.15877   0.00000  Uiso   1.00
O488   O     0.83865   0.49468   0.33749   0.00000  Uiso   1.00
O489   O     0.84515   0.41434   0.27821   0.00000  Uiso   1.00
O490   O     0.81247   0.59469   0.26767   0.00000  Uiso   1.00
O491   O     0.74119   0.46584   0.23607   0.00000  Uiso   1.00
O492   O     0.93452   0.52512   0.21806   0.00000  Uiso   1.00
C493   C     0.71924   0.49262   0.25845   0.00000  Uiso   1.00
C494   C     0.94773   0.50785   0.24192   0.00000  Uiso   1.00
C495   C     0.82198   0.38937   0.25905   0.00000  Uiso   1.00
C496   C     0.84427   0.61114   0.24169   0.00000  Uiso   1.00
C497   C     0.85487   0.47814   0.14400   0.00000  Uiso   1.00
C498   C     0.81262   0.52128   0.35594   0.00000  Uiso   1.00
C499   C     0.80851   0.53370   0.39795   0.00000  Uiso   1.00
C500   C     0.86304   0.46764   0.10171   0.00000  Uiso   1.00
C501   C     0.79883   0.58732   0.45365   0.00000  Uiso   1.00
C502   C     0.79987   0.57413   0.41426   0.00000  Uiso   1.00
C503   C     0.81702   0.50622   0.42082   0.00000  Uiso   1.00
C504   C     0.82348   0.52133   0.45835   0.00000  Uiso   1.00
C505   C     0.81091   0.56092   0.47563   0.00000  Uiso   1.00
C506   C     0.84085   0.49786   0.47953   0.00000  Uiso   1.00
C507   C     0.83730   0.50965   0.02023   0.00000  Uiso   1.00
C508   C     0.81687   0.54587   0.03845   0.00000  Uiso   1.00
C509   C     0.80792   0.57259   0.01541   0.00000  Uiso   1.00
C510   C     0.86405   0.46441   0.46038   0.00000  Uiso   1.00
C511   C     0.87551   0.43709   0.48109   0.00000  Uiso   1.00
C512   C     0.86600   0.44448   0.02240   0.00000  Uiso   1.00
C513   C     0.85348   0.48411   0.04080   0.00000  Uiso   1.00
C514   C     0.86997   0.41445   0.04600   0.00000  Uiso   1.00
C515   C     0.86749   0.42641   0.08571   0.00000  Uiso   1.00
C516   C     0.85848   0.49676   0.07885   0.00000  Uiso   1.00
H517   H     0.79446   0.60096   0.02978   0.00000  Uiso   1.00
H518   H     0.85760   0.52874   0.09189   0.00000  Uiso   1.00
H519   H     0.86830   0.40331   0.10444   0.00000  Uiso   1.00
H520   H     0.79462   0.59570   0.39618   0.00000  Uiso   1.00
H521   H     0.87556   0.46012   0.42875   0.00000  Uiso   1.00
C522   C     0.99333   0.51475   0.24268   0.00000  Uiso   1.00
C523   C     0.67384   0.48751   0.25997   0.00000  Uiso   1.00
C524   C     0.85048   0.65625   0.23930   0.00000  Uiso   1.00
C525   C     0.81851   0.34492   0.25996   0.00000  Uiso   1.00
H526   H     0.78792   0.66301   0.27656   0.00000  Uiso   1.00
N527   N     0.87097   0.37088   0.03173   0.00000  Uiso   1.00
O528   O     0.89238   0.34832   0.04473   0.00000  Uiso   1.00
O529   O     0.84464   0.35217   0.01134   0.00000  Uiso   1.00
O530   O     0.68622   0.55226   0.23365   0.00000  Uiso   1.00
C531   C     0.68941   0.56084   0.19521   0.00000  Uiso   1.00
H532   H     0.99557   0.57753   0.19542   0.00000  Uiso   1.00
H533   H     0.69017   0.53193   0.17404   0.00000  Uiso   1.00
C534   C     0.73084   0.58991   0.18110   0.00000  Uiso   1.00
H535   H     0.75916   0.57393   0.17890   0.00000  Uiso   1.00
H536   H     0.73256   0.59892   0.15181   0.00000  Uiso   1.00
H537   H     0.73155   0.61875   0.20198   0.00000  Uiso   1.00
O538   O     0.98261   0.44887   0.26757   0.00000  Uiso   1.00
C539   C     0.98513   0.43724   0.30341   0.00000  Uiso   1.00
H540   H     0.98125   0.46391   0.32711   0.00000  Uiso   1.00
H541   H     0.68315   0.42562   0.29944   0.00000  Uiso   1.00
C542   C     0.94905   0.40210   0.31651   0.00000  Uiso   1.00
H543   H     0.95205   0.37474   0.29375   0.00000  Uiso   1.00
H544   H     0.95090   0.39232   0.34447   0.00000  Uiso   1.00
H545   H     0.91725   0.41301   0.32123   0.00000  Uiso   1.00
N546   N     0.89052   0.34249   0.21549   0.00000  Uiso   1.00
O547   O     0.92658   0.66183   0.21252   0.00000  Uiso   1.00
O548   O     0.89083   0.37190   0.19425   0.00000  Uiso   1.00
N549   N     0.90124   0.40521   0.45922   0.00000  Uiso   1.00
O550   O     0.93629   0.40071   0.46789   0.00000  Uiso   1.00
O551   O     0.89365   0.38543   0.42695   0.00000  Uiso   1.00
O552   O     0.79126   0.62773   0.46968   0.00000  Uiso   1.00
C553   C     0.74973   0.63453   0.46927   0.00000  Uiso   1.00
H554   H     0.72485   0.60785   0.47983   0.00000  Uiso   1.00
H555   H     0.74941   0.63952   0.43918   0.00000  Uiso   1.00
C556   C     0.73780   0.34049   0.49648   0.00000  Uiso   1.00
H557   H     0.76219   0.36773   0.48710   0.00000  Uiso   1.00
H558   H     0.70576   0.34706   0.49558   0.00000  Uiso   1.00
H559   H     0.73646   0.33603   0.02712   0.00000  Uiso   1.00
O560   O     0.81768   0.46440   0.40635   0.00000  Uiso   1.00
C561   C     0.77657   0.44230   0.42132   0.00000  Uiso   1.00
H562   H     0.75131   0.45515   0.41269   0.00000  Uiso   1.00
H563   H     0.76839   0.44367   0.45395   0.00000  Uiso   1.00
C564   C     0.77673   0.39662   0.40439   0.00000  Uiso   1.00
H565   H     0.80116   0.38269   0.41303   0.00000  Uiso   1.00
H566   H     0.74448   0.37886   0.41576   0.00000  Uiso   1.00
H567   H     0.78454   0.39420   0.37181   0.00000  Uiso   1.00
N568   N     0.80019   0.55399   0.08016   0.00000  Uiso   1.00
O569   O     0.77356   0.52542   0.09989   0.00000  Uiso   1.00
O570   O     0.80626   0.59171   0.09739   0.00000  Uiso   1.00
Zn571  Zn    0.19244   0.80756   0.28278   0.00000  Uiso   1.00
Zn572  Zn    0.13459   0.79044   0.22258   0.00000  Uiso   1.00
Zn573  Zn    0.21166   0.86331   0.21188   0.00000  Uiso   1.00
Zn574  Zn    0.12798   0.87202   0.28277   0.00000  Uiso   1.00
O575   O     0.16667   0.83333   0.25000   0.00000  Uiso   1.00
O576   O     0.06990   0.85627   0.27820   0.00000  Uiso   1.00
O577   O     0.25440   0.81944   0.26768   0.00000  Uiso   1.00
O578   O     0.13800   0.73570   0.23607   0.00000  Uiso   1.00
O579   O     0.20437   0.92193   0.21806   0.00000  Uiso   1.00
O580   O     0.15693   0.79060   0.16625   0.00000  Uiso   1.00
O581   O     0.12687   0.87313   0.33749   0.00000  Uiso   1.00
O582   O     0.21088   0.84159   0.15877   0.00000  Uiso   1.00
O583   O     0.17198   0.82802   0.33749   0.00000  Uiso   1.00
O584   O     0.17849   0.74768   0.27821   0.00000  Uiso   1.00
O585   O     0.14581   0.92803   0.26767   0.00000  Uiso   1.00
O586   O     0.07452   0.79917   0.23607   0.00000  Uiso   1.00
O587   O     0.26785   0.85845   0.21806   0.00000  Uiso   1.00
C588   C     0.05257   0.82596   0.25845   0.00000  Uiso   1.00
C589   C     0.28107   0.84118   0.24192   0.00000  Uiso   1.00
C590   C     0.15531   0.72270   0.25905   0.00000  Uiso   1.00
C591   C     0.17760   0.94447   0.24169   0.00000  Uiso   1.00
C592   C     0.18820   0.81148   0.14400   0.00000  Uiso   1.00
C593   C     0.14596   0.85461   0.35594   0.00000  Uiso   1.00
C594   C     0.14184   0.86703   0.39795   0.00000  Uiso   1.00
C595   C     0.19638   0.80097   0.10171   0.00000  Uiso   1.00
C596   C     0.13216   0.92065   0.45365   0.00000  Uiso   1.00
C597   C     0.13320   0.90746   0.41426   0.00000  Uiso   1.00
C598   C     0.15035   0.83955   0.42082   0.00000  Uiso   1.00
C599   C     0.15682   0.85467   0.45835   0.00000  Uiso   1.00
C600   C     0.14424   0.89426   0.47563   0.00000  Uiso   1.00
C601   C     0.17419   0.83119   0.47953   0.00000  Uiso   1.00
C602   C     0.17063   0.84299   0.02023   0.00000  Uiso   1.00
C603   C     0.15021   0.87921   0.03845   0.00000  Uiso   1.00
C604   C     0.14125   0.90592   0.01541   0.00000  Uiso   1.00
C605   C     0.19739   0.79774   0.46038   0.00000  Uiso   1.00
C606   C     0.20884   0.77042   0.48109   0.00000  Uiso   1.00
C607   C     0.19933   0.77781   0.02240   0.00000  Uiso   1.00
C608   C     0.18681   0.81744   0.04080   0.00000  Uiso   1.00
C609   C     0.20330   0.74778   0.04600   0.00000  Uiso   1.00
C610   C     0.20083   0.75974   0.08571   0.00000  Uiso   1.00
C611   C     0.19182   0.83009   0.07885   0.00000  Uiso   1.00
H612   H     0.12779   0.93429   0.02978   0.00000  Uiso   1.00
H613   H     0.19093   0.86207   0.09189   0.00000  Uiso   1.00
H614   H     0.20163   0.73664   0.10444   0.00000  Uiso   1.00
H615   H     0.12795   0.92903   0.39618   0.00000  Uiso   1.00
H616   H     0.20889   0.79345   0.42875   0.00000  Uiso   1.00
C617   C     0.32667   0.84808   0.24268   0.00000  Uiso   1.00
C618   C     0.00717   0.82084   0.25997   0.00000  Uiso   1.00
C619   C     0.18382   0.98958   0.23930   0.00000  Uiso   1.00
C620   C     0.15184   0.67825   0.25996   0.00000  Uiso   1.00
H621   H     0.12126   0.99634   0.27656   0.00000  Uiso   1.00
N622   N     0.20430   0.70421   0.03173   0.00000  Uiso   1.00
O623   O     0.22572   0.68165   0.04473   0.00000  Uiso   1.00
O624   O     0.17797   0.68550   0.01134   0.00000  Uiso   1.00
O625   O     0.01956   0.88559   0.23365   0.00000  Uiso   1.00
C626   C     0.02274   0.89417   0.19521   0.00000  Uiso   1.00
H627   H     0.32890   0.91086   0.19542   0.00000  Uiso   1.00
H628   H     0.02350   0.86526   0.17404   0.00000  Uiso   1.00
C629   C     0.06418   0.92325   0.18110   0.00000  Uiso   1.00
H630   H     0.09249   0.90726   0.17890   0.00000  Uiso   1.00
H631   H     0.06589   0.93225   0.15181   0.00000  Uiso   1.00
H632   H     0.06489   0.95208   0.20198   0.00000  Uiso   1.00
O633   O     0.31594   0.78221   0.26757   0.00000  Uiso   1.00
C634   C     0.31846   0.77057   0.30341   0.00000  Uiso   1.00
H635   H     0.31459   0.79724   0.32711   0.00000  Uiso   1.00
H636   H     0.01648   0.75895   0.29944   0.00000  Uiso   1.00
C637   C     0.28238   0.73543   0.31651   0.00000  Uiso   1.00
H638   H     0.28538   0.70807   0.29375   0.00000  Uiso   1.00
H639   H     0.28423   0.72565   0.34447   0.00000  Uiso   1.00
H640   H     0.25059   0.74634   0.32123   0.00000  Uiso   1.00
N641   N     0.22386   0.67582   0.21549   0.00000  Uiso   1.00
O642   O     0.25992   0.99516   0.21252   0.00000  Uiso   1.00
O643   O     0.22416   0.70523   0.19425   0.00000  Uiso   1.00
N644   N     0.23457   0.73854   0.45922   0.00000  Uiso   1.00
O645   O     0.26963   0.73404   0.46789   0.00000  Uiso   1.00
O646   O     0.22698   0.71877   0.42695   0.00000  Uiso   1.00
O647   O     0.12460   0.96107   0.46968   0.00000  Uiso   1.00
C648   C     0.08306   0.96787   0.46927   0.00000  Uiso   1.00
H649   H     0.05818   0.94118   0.47983   0.00000  Uiso   1.00
H650   H     0.08274   0.97285   0.43918   0.00000  Uiso   1.00
C651   C     0.07114   0.67383   0.49648   0.00000  Uiso   1.00
H652   H     0.09552   0.70107   0.48710   0.00000  Uiso   1.00
H653   H     0.03909   0.68039   0.49558   0.00000  Uiso   1.00
H654   H     0.06980   0.66937   0.02712   0.00000  Uiso   1.00
O655   O     0.15101   0.79774   0.40635   0.00000  Uiso   1.00
C656   C     0.10990   0.77563   0.42132   0.00000  Uiso   1.00
H657   H     0.08464   0.78848   0.41269   0.00000  Uiso   1.00
H658   H     0.10172   0.77700   0.45395   0.00000  Uiso   1.00
C659   C     0.11007   0.72996   0.40439   0.00000  Uiso   1.00
H660   H     0.13449   0.71602   0.41303   0.00000  Uiso   1.00
H661   H     0.07781   0.71220   0.41576   0.00000  Uiso   1.00
H662   H     0.11787   0.72753   0.37181   0.00000  Uiso   1.00
N663   N     0.13352   0.88732   0.08016   0.00000  Uiso   1.00
O664   O     0.10689   0.85876   0.09989   0.00000  Uiso   1.00
O665   O     0.13960   0.92505   0.09739   0.00000  Uiso   1.00
Zn666  Zn    0.52577   0.80756   0.28278   0.00000  Uiso   1.00
Zn667  Zn    0.46792   0.79044   0.22258   0.00000  Uiso   1.00
Zn668  Zn    0.54500   0.86331   0.21188   0.00000  Uiso   1.00
Zn669  Zn    0.46131   0.87202   0.28277   0.00000  Uiso   1.00
O670   O     0.50000   0.83333   0.25000   0.00000  Uiso   1.00
O671   O     0.40323   0.85627   0.27820   0.00000  Uiso   1.00
O672   O     0.58773   0.81944   0.26768   0.00000  Uiso   1.00
O673   O     0.47133   0.73570   0.23607   0.00000  Uiso   1.00
O674   O     0.53771   0.92193   0.21806   0.00000  Uiso   1.00
O675   O     0.49027   0.79060   0.16625   0.00000  Uiso   1.00
O676   O     0.46020   0.87313   0.33749   0.00000  Uiso   1.00
O677   O     0.54421   0.84159   0.15877   0.00000  Uiso   1.00
O678   O     0.50532   0.82802   0.33749   0.00000  Uiso   1.00
O679   O     0.51182   0.74768   0.27821   0.00000  Uiso   1.00
O680   O     0.47914   0.92803   0.26767   0.00000  Uiso   1.00
O681   O     0.40785   0.79917   0.23607   0.00000  Uiso   1.00
O682   O     0.60119   0.85845   0.21806   0.00000  Uiso   1.00
C683   C     0.38590   0.82596   0.25845   0.00000  Uiso   1.00
C684   C     0.61440   0.84118   0.24192   0.00000  Uiso   1.00
C685   C     0.48865   0.72270   0.25905   0.00000  Uiso   1.00
C686   C     0.51093   0.94447   0.24169   0.00000  Uiso   1.00
C687   C     0.52153   0.81148   0.14400   0.00000  Uiso   1.00
C688   C     0.47929   0.85461   0.35594   0.00000  Uiso   1.00
C689   C     0.47517   0.86703   0.39795   0.00000  Uiso   1.00
C690   C     0.52971   0.80097   0.10171   0.00000  Uiso   1.00
C691   C     0.46550   0.92065   0.45365   0.00000  Uiso   1.00
C692   C     0.46654   0.90746   0.41426   0.00000  Uiso   1.00
C693   C     0.48369   0.83955   0.42082   0.00000  Uiso   1.00
C694   C     0.49015   0.85467   0.45835   0.00000  Uiso   1.00
C695   C     0.47757   0.89426   0.47563   0.00000  Uiso   1.00
C696   C     0.50752   0.83119   0.47953   0.00000  Uiso   1.00
C697   C     0.50397   0.84299   0.02023   0.00000  Uiso   1.00
C698   C     0.48354   0.87921   0.03845   0.00000  Uiso   1.00
C699   C     0.47459   0.90592   0.01541   0.00000  Uiso   1.00
C700   C     0.53072   0.79774   0.46038   0.00000  Uiso   1.00
C701   C     0.54218   0.77042   0.48109   0.00000  Uiso   1.00
C702   C     0.53266   0.77781   0.02240   0.00000  Uiso   1.00
C703   C     0.52015   0.81744   0.04080   0.00000  Uiso   1.00
C704   C     0.53663   0.74778   0.04600   0.00000  Uiso   1.00
C705   C     0.53416   0.75974   0.08571   0.00000  Uiso   1.00
C706   C     0.52515   0.83009   0.07885   0.00000  Uiso   1.00
H707   H     0.46112   0.93429   0.02978   0.00000  Uiso   1.00
H708   H     0.52426   0.86207   0.09189   0.00000  Uiso   1.00
H709   H     0.53497   0.73664   0.10444   0.00000  Uiso   1.00
H710   H     0.46128   0.92903   0.39618   0.00000  Uiso   1.00
H711   H     0.54222   0.79345   0.42875   0.00000  Uiso   1.00
C712   C     0.66000   0.84808   0.24268   0.00000  Uiso   1.00
C713   C     0.34051   0.82084   0.25997   0.00000  Uiso   1.00
C714   C     0.51715   0.98958   0.23930   0.00000  Uiso   1.00
C715   C     0.48518   0.67825   0.25996   0.00000  Uiso   1.00
H716   H     0.45459   0.99634   0.27656   0.00000  Uiso   1.00
N717   N     0.53763   0.70421   0.03173   0.00000  Uiso   1.00
O718   O     0.55905   0.68165   0.04473   0.00000  Uiso   1.00
O719   O     0.51130   0.68550   0.01134   0.00000  Uiso   1.00
O720   O     0.35289   0.88559   0.23365   0.00000  Uiso   1.00
C721   C     0.35608   0.89417   0.19521   0.00000  Uiso   1.00
H722   H     0.66224   0.91086   0.19542   0.00000  Uiso   1.00
H723   H     0.35683   0.86526   0.17404   0.00000  Uiso   1.00
C724   C     0.39751   0.92325   0.18110   0.00000  Uiso   1.00
H725   H     0.42583   0.90726   0.17890   0.00000  Uiso   1.00
H726   H     0.39923   0.93225   0.15181   0.00000  Uiso   1.00
H727   H     0.39822   0.95208   0.20198   0.00000  Uiso   1.00
O728   O     0.64928   0.78221   0.26757   0.00000  Uiso   1.00
C729   C     0.65180   0.77057   0.30341   0.00000  Uiso   1.00
H730   H     0.64792   0.79724   0.32711   0.00000  Uiso   1.00
H731   H     0.34981   0.75895   0.29944   0.00000  Uiso   1.00
C732   C     0.61571   0.73543   0.31651   0.00000  Uiso   1.00
H733   H     0.61871   0.70807   0.29375   0.00000  Uiso   1.00
H734   H     0.61757   0.72565   0.34447   0.00000  Uiso   1.00
H735   H     0.58392   0.74634   0.32123   0.00000  Uiso   1.00
N736   N     0.55719   0.67582   0.21549   0.00000  Uiso   1.00
O737   O     0.59325   0.99516   0.21252   0.00000  Uiso   1.00
O738   O     0.55749   0.70523   0.19425   0.00000  Uiso   1.00
N739   N     0.56790   0.73854   0.45922   0.00000  Uiso   1.00
O740   O     0.60296   0.73404   0.46789   0.00000  Uiso   1.00
O741   O     0.56031   0.71877   0.42695   0.00000  Uiso   1.00
O742   O     0.45793   0.96107   0.46968   0.00000  Uiso   1.00
C743   C     0.41640   0.96787   0.46927   0.00000  Uiso   1.00
H744   H     0.39152   0.94118   0.47983   0.00000  Uiso   1.00
H745   H     0.41607   0.97285   0.43918   0.00000  Uiso   1.00
C746   C     0.40447   0.67383   0.49648   0.00000  Uiso   1.00
H747   H     0.42885   0.70107   0.48710   0.00000  Uiso   1.00
H748   H     0.37242   0.68039   0.49558   0.00000  Uiso   1.00
H749   H     0.40313   0.66937   0.02712   0.00000  Uiso   1.00
O750   O     0.48435   0.79774   0.40635   0.00000  Uiso   1.00
C751   C     0.44324   0.77563   0.42132   0.00000  Uiso   1.00
H752   H     0.41798   0.78848   0.41269   0.00000  Uiso   1.00
H753   H     0.43505   0.77700   0.45395   0.00000  Uiso   1.00
C754   C     0.44340   0.72996   0.40439   0.00000  Uiso   1.00
H755   H     0.46783   0.71602   0.41303   0.00000  Uiso   1.00
H756   H     0.41115   0.71220   0.41576   0.00000  Uiso   1.00
H757   H     0.45120   0.72753   0.37181   0.00000  Uiso   1.00
N758   N     0.46685   0.88732   0.08016   0.00000  Uiso   1.00
O759   O     0.44022   0.85876   0.09989   0.00000  Uiso   1.00
O760   O     0.47293   0.92505   0.09739   0.00000  Uiso   1.00
Zn761  Zn    0.85910   0.80756   0.28278   0.00000  Uiso   1.00
Zn762  Zn    0.80125   0.79044   0.22258   0.00000  Uiso   1.00
Zn763  Zn    0.87833   0.86331   0.21188   0.00000  Uiso   1.00
Zn764  Zn    0.79465   0.87202   0.28277   0.00000  Uiso   1.00
O765   O     0.83333   0.83333   0.25000   0.00000  Uiso   1.00
O766   O     0.73656   0.85627   0.27820   0.00000  Uiso   1.00
O767   O     0.92106   0.81944   0.26768   0.00000  Uiso   1.00
O768   O     0.80467   0.73570   0.23607   0.00000  Uiso   1.00
O769   O     0.87104   0.92193   0.21806   0.00000  Uiso   1.00
O770   O     0.82360   0.79060   0.16625   0.00000  Uiso   1.00
O771   O     0.79354   0.87313   0.33749   0.00000  Uiso   1.00
O772   O     0.87755   0.84159   0.15877   0.00000  Uiso   1.00
O773   O     0.83865   0.82802   0.33749   0.00000  Uiso   1.00
O774   O     0.84515   0.74768   0.27821   0.00000  Uiso   1.00
O775   O     0.81247   0.92803   0.26767   0.00000  Uiso   1.00
O776   O     0.74119   0.79917   0.23607   0.00000  Uiso   1.00
O777   O     0.93452   0.85845   0.21806   0.00000  Uiso   1.00
C778   C     0.71924   0.82596   0.25845   0.00000  Uiso   1.00
C779   C     0.94773   0.84118   0.24192   0.00000  Uiso   1.00
C780   C     0.82198   0.72270   0.25905   0.00000  Uiso   1.00
C781   C     0.84427   0.94447   0.24169   0.00000  Uiso   1.00
C782   C     0.85487   0.81148   0.14400   0.00000  Uiso   1.00
C783   C     0.81262   0.85461   0.35594   0.00000  Uiso   1.00
C784   C     0.80851   0.86703   0.39795   0.00000  Uiso   1.00
C785   C     0.86304   0.80097   0.10171   0.00000  Uiso   1.00
C786   C     0.79883   0.92065   0.45365   0.00000  Uiso   1.00
C787   C     0.79987   0.90746   0.41426   0.00000  Uiso   1.00
C788   C     0.81702   0.83955   0.42082   0.00000  Uiso   1.00
C789   C     0.82348   0.85467   0.45835   0.00000  Uiso   1.00
C790   C     0.81091   0.89426   0.47563   0.00000  Uiso   1.00
C791   C     0.84085   0.83119   0.47953   0.00000  Uiso   1.00
C792   C     0.83730   0.84299   0.02023   0.00000  Uiso   1.00
C793   C     0.81687   0.87921   0.03845   0.00000  Uiso   1.00
C794   C     0.80792   0.90592   0.01541   0.00000  Uiso   1.00
C795   C     0.86405   0.79774   0.46038   0.00000  Uiso   1.00
C796   C     0.87551   0.77042   0.48109   0.00000  Uiso   1.00
C797   C     0.86600   0.77781   0.02240   0.00000  Uiso   1.00
C798   C     0.85348   0.81744   0.04080   0.00000  Uiso   1.00
C799   C     0.86997   0.74778   0.04600   0.00000  Uiso   1.00
C800   C     0.86749   0.75974   0.08571   0.00000  Uiso   1.00
C801   C     0.85848   0.83009   0.07885   0.00000  Uiso   1.00
H802   H     0.79446   0.93429   0.02978   0.00000  Uiso   1.00
H803   H     0.85760   0.86207   0.09189   0.00000  Uiso   1.00
H804   H     0.86830   0.73664   0.10444   0.00000  Uiso   1.00
H805   H     0.79462   0.92903   0.39618   0.00000  Uiso   1.00
H806   H     0.87556   0.79345   0.42875   0.00000  Uiso   1.00
C807   C     0.99333   0.84808   0.24268   0.00000  Uiso   1.00
C808   C     0.67384   0.82084   0.25997   0.00000  Uiso   1.00
C809   C     0.85048   0.98958   0.23930   0.00000  Uiso   1.00
C810   C     0.81851   0.67825   0.25996   0.00000  Uiso   1.00
H811   H     0.78792   0.99634   0.27656   0.00000  Uiso   1.00
N812   N     0.87097   0.70421   0.03173   0.00000  Uiso   1.00
O813   O     0.89238   0.68165   0.04473   0.00000  Uiso   1.00
O814   O     0.84464   0.68550   0.01134   0.00000  Uiso   1.00
O815   O     0.68622   0.88559   0.23365   0.00000  Uiso   1.00
C816   C     0.68941   0.89417   0.19521   0.00000  Uiso   1.00
H817   H     0.99557   0.91086   0.19542   0.00000  Uiso   1.00
H818   H     0.69017   0.86526   0.17404   0.00000  Uiso   1.00
C819   C     0.73084   0.92325   0.18110   0.00000  Uiso   1.00
H820   H     0.75916   0.90726   0.17890   0.00000  Uiso   1.00
H821   H     0.73256   0.93225   0.15181   0.00000  Uiso   1.00
H822   H     0.73155   0.95208   0.20198   0.00000  Uiso   1.00
O823   O     0.98261   0.78221   0.26757   0.00000  Uiso   1.00
C824   C     0.98513   0.77057   0.30341   0.00000  Uiso   1.00
H825   H     0.98125   0.79724   0.32711   0.00000  Uiso   1.00
H826   H     0.68315   0.75895   0.29944   0.00000  Uiso   1.00
C827   C     0.94905   0.73543   0.31651   0.00000  Uiso   1.00
H828   H     0.95205   0.70807   0.29375   0.00000  Uiso   1.00
H829   H     0.95090   0.72565   0.34447   0.00000  Uiso   1.00
H830   H     0.91725   0.74634   0.32123   0.00000  Uiso   1.00
N831   N     0.89052   0.67582   0.21549   0.00000  Uiso   1.00
O832   O     0.92658   0.99516   0.21252   0.00000  Uiso   1.00
O833   O     0.89083   0.70523   0.19425   0.00000  Uiso   1.00
N834   N     0.90124   0.73854   0.45922   0.00000  Uiso   1.00
O835   O     0.93629   0.73404   0.46789   0.00000  Uiso   1.00
O836   O     0.89365   0.71877   0.42695   0.00000  Uiso   1.00
O837   O     0.79126   0.96107   0.46968   0.00000  Uiso   1.00
C838   C     0.74973   0.96787   0.46927   0.00000  Uiso   1.00
H839   H     0.72485   0.94118   0.47983   0.00000  Uiso   1.00
H840   H     0.74941   0.97285   0.43918   0.00000  Uiso   1.00
C841   C     0.73780   0.67383   0.49648   0.00000  Uiso   1.00
H842   H     0.76219   0.70107   0.48710   0.00000  Uiso   1.00
H843   H     0.70576   0.68039   0.49558   0.00000  Uiso   1.00
H844   H     0.73646   0.66937   0.02712   0.00000  Uiso   1.00
O845   O     0.81768   0.79774   0.40635   0.00000  Uiso   1.00
C846   C     0.77657   0.77563   0.42132   0.00000  Uiso   1.00
H847   H     0.75131   0.78848   0.41269   0.00000  Uiso   1.00
H848   H     0.76839   0.77700   0.45395   0.00000  Uiso   1.00
C849   C     0.77673   0.72996   0.40439   0.00000  Uiso   1.00
H850   H     0.80116   0.71602   0.41303   0.00000  Uiso   1.00
H851   H     0.74448   0.71220   0.41576   0.00000  Uiso   1.00
H852   H     0.78454   0.72753   0.37181   0.00000  Uiso   1.00
N853   N     0.80019   0.88732   0.08016   0.00000  Uiso   1.00
O854   O     0.77356   0.85876   0.09989   0.00000  Uiso   1.00
O855   O     0.80626   0.92505   0.09739   0.00000  Uiso   1.00
Zn856  Zn    0.19244   0.14090   0.78278   0.00000  Uiso   1.00
Zn857  Zn    0.13459   0.12378   0.72258   0.00000  Uiso   1.00
Zn858  Zn    0.21166   0.19664   0.71188   0.00000  Uiso   1.00
Zn859  Zn    0.12798   0.20535   0.78277   0.00000  Uiso   1.00
O860   O     0.16667   0.16667   0.75000   0.00000  Uiso   1.00
O861   O     0.06990   0.18960   0.77820   0.00000  Uiso   1.00
O862   O     0.25440   0.15277   0.76768   0.00000  Uiso   1.00
O863   O     0.13800   0.06903   0.73607   0.00000  Uiso   1.00
O864   O     0.20437   0.25527   0.71806   0.00000  Uiso   1.00
O865   O     0.15693   0.12393   0.66625   0.00000  Uiso   1.00
O866   O     0.12687   0.20646   0.83749   0.00000  Uiso   1.00
O867   O     0.21088   0.17493   0.65877   0.00000  Uiso   1.00
O868   O     0.17198   0.16135   0.83749   0.00000  Uiso   1.00
O869   O     0.17849   0.08101   0.77821   0.00000  Uiso   1.00
O870   O     0.14581   0.26136   0.76767   0.00000  Uiso   1.00
O871   O     0.07452   0.13251   0.73607   0.00000  Uiso   1.00
O872   O     0.26785   0.19179   0.71806   0.00000  Uiso   1.00
C873   C     0.05257   0.15929   0.75845   0.00000  Uiso   1.00
C874   C     0.28107   0.17452   0.74192   0.00000  Uiso   1.00
C875   C     0.15531   0.05604   0.75905   0.00000  Uiso   1.00
C876   C     0.17760   0.27780   0.74169   0.00000  Uiso   1.00
C877   C     0.18820   0.14481   0.64400   0.00000  Uiso   1.00
C878   C     0.14596   0.18794   0.85594   0.00000  Uiso   1.00
C879   C     0.14184   0.20037   0.89795   0.00000  Uiso   1.00
C880   C     0.19638   0.13431   0.60171   0.00000  Uiso   1.00
C881   C     0.13216   0.25398   0.95365   0.00000  Uiso   1.00
C882   C     0.13320   0.24079   0.91426   0.00000  Uiso   1.00
C883   C     0.15035   0.17289   0.92082   0.00000  Uiso   1.00
C884   C     0.15682   0.18800   0.95835   0.00000  Uiso   1.00
C885   C     0.14424   0.22759   0.97563   0.00000  Uiso   1.00
C886   C     0.17419   0.16452   0.97953   0.00000  Uiso   1.00
C887   C     0.17063   0.17632   0.52023   0.00000  Uiso   1.00
C888   C     0.15021   0.21254   0.53845   0.00000  Uiso   1.00
C889   C     0.14125   0.23926   0.51541   0.00000  Uiso   1.00
C890   C     0.19739   0.13108   0.96038   0.00000  Uiso   1.00
C891   C     0.20884   0.10376   0.98109   0.00000  Uiso   1.00
C892   C     0.19933   0.11114   0.52240   0.00000  Uiso   1.00
C893   C     0.18681   0.15077   0.54080   0.00000  Uiso   1.00
C894   C     0.20330   0.08111   0.54600   0.00000  Uiso   1.00
C895   C     0.20083   0.09307   0.58571   0.00000  Uiso   1.00
C896   C     0.19182   0.16343   0.57885   0.00000  Uiso   1.00
H897   H     0.12779   0.26762   0.52978   0.00000  Uiso   1.00
H898   H     0.19093   0.19540   0.59189   0.00000  Uiso   1.00
H899   H     0.20163   0.06997   0.60444   0.00000  Uiso   1.00
H900   H     0.12795   0.26236   0.89618   0.00000  Uiso   1.00
H901   H     0.20889   0.12678   0.92875   0.00000  Uiso   1.00
C902   C     0.32667   0.18141   0.74268   0.00000  Uiso   1.00
C903   C     0.00717   0.15417   0.75997   0.00000  Uiso   1.00
C904   C     0.18382   0.32292   0.73930   0.00000  Uiso   1.00
C905   C     0.15184   0.01159   0.75996   0.00000  Uiso   1.00
H906   H     0.12126   0.32968   0.77656   0.00000  Uiso   1.00
N907   N     0.20430   0.03755   0.53173   0.00000  Uiso   1.00
O908   O     0.22572   0.01499   0.54473   0.00000  Uiso   1.00
O909   O     0.17797   0.01883   0.51134   0.00000  Uiso   1.00
O910   O     0.01956   0.21893   0.73365   0.00000  Uiso   1.00
C911   C     0.02274   0.22750   0.69521   0.00000  Uiso   1.00
H912   H     0.32890   0.24420   0.69542   0.00000  Uiso   1.00
H913   H     0.02350   0.19860   0.67404   0.00000  Uiso   1.00
C914   C     0.06418   0.25658   0.68110   0.00000  Uiso   1.00
H915   H     0.09249   0.24059   0.67890   0.00000  Uiso   1.00
H916   H     0.06589   0.26559   0.65181   0.00000  Uiso   1.00
H917   H     0.06489   0.28541   0.70198   0.00000  Uiso   1.00
O918   O     0.31594   0.11554   0.76757   0.00000  Uiso   1.00
C919   C     0.31846   0.10391   0.80341   0.00000  Uiso   1.00
H920   H     0.31459   0.13058   0.82711   0.00000  Uiso   1.00
H921   H     0.01648   0.09229   0.79944   0.00000  Uiso   1.00
C922   C     0.28238   0.06876   0.81651   0.00000  Uiso   1.00
H923   H     0.28538   0.04140   0.79375   0.00000  Uiso   1.00
H924   H     0.28423   0.05898   0.84447   0.00000  Uiso   1.00
H925   H     0.25059   0.07968   0.82123   0.00000  Uiso   1.00
N926   N     0.22386   0.00916   0.71549   0.00000  Uiso   1.00
O927   O     0.25992   0.32850   0.71252   0.00000  Uiso   1.00
O928   O     0.22416   0.03856   0.69425   0.00000  Uiso   1.00
N929   N     0.23457   0.07188   0.95922   0.00000  Uiso   1.00
O930   O     0.26963   0.06737   0.96789   0.00000  Uiso   1.00
O931   O     0.22698   0.05210   0.92695   0.00000  Uiso   1.00
O932   O     0.12460   0.29440   0.96968   0.00000  Uiso   1.00
C933   C     0.08306   0.30120   0.96927   0.00000  Uiso   1.00
H934   H     0.05818   0.27452   0.97983   0.00000  Uiso   1.00
H935   H     0.08274   0.30619   0.93918   0.00000  Uiso   1.00
C936   C     0.07114   0.00716   0.99648   0.00000  Uiso   1.00
H937   H     0.09552   0.03440   0.98710   0.00000  Uiso   1.00
H938   H     0.03909   0.01372   0.99558   0.00000  Uiso   1.00
H939   H     0.06980   0.00270   0.52712   0.00000  Uiso   1.00
O940   O     0.15101   0.13107   0.90635   0.00000  Uiso   1.00
C941   C     0.10990   0.10897   0.92132   0.00000  Uiso   1.00
H942   H     0.08464   0.12181   0.91269   0.00000  Uiso   1.00
H943   H     0.10172   0.11034   0.95395   0.00000  Uiso   1.00
C944   C     0.11007   0.06329   0.90439   0.00000  Uiso   1.00
H945   H     0.13449   0.04935   0.91303   0.00000  Uiso   1.00
H946   H     0.07781   0.04553   0.91576   0.00000  Uiso   1.00
H947   H     0.11787   0.06087   0.87181   0.00000  Uiso   1.00
N948   N     0.13352   0.22066   0.58016   0.00000  Uiso   1.00
O949   O     0.10689   0.19209   0.59989   0.00000  Uiso   1.00
O950   O     0.13960   0.25838   0.59739   0.00000  Uiso   1.00
Zn951  Zn    0.52577   0.14090   0.78278   0.00000  Uiso   1.00
Zn952  Zn    0.46792   0.12378   0.72258   0.00000  Uiso   1.00
Zn953  Zn    0.54500   0.19664   0.71188   0.00000  Uiso   1.00
Zn954  Zn    0.46131   0.20535   0.78277   0.00000  Uiso   1.00
O955   O     0.50000   0.16667   0.75000   0.00000  Uiso   1.00
O956   O     0.40323   0.18960   0.77820   0.00000  Uiso   1.00
O957   O     0.58773   0.15277   0.76768   0.00000  Uiso   1.00
O958   O     0.47133   0.06903   0.73607   0.00000  Uiso   1.00
O959   O     0.53771   0.25527   0.71806   0.00000  Uiso   1.00
O960   O     0.49027   0.12393   0.66625   0.00000  Uiso   1.00
O961   O     0.46020   0.20646   0.83749   0.00000  Uiso   1.00
O962   O     0.54421   0.17493   0.65877   0.00000  Uiso   1.00
O963   O     0.50532   0.16135   0.83749   0.00000  Uiso   1.00
O964   O     0.51182   0.08101   0.77821   0.00000  Uiso   1.00
O965   O     0.47914   0.26136   0.76767   0.00000  Uiso   1.00
O966   O     0.40785   0.13251   0.73607   0.00000  Uiso   1.00
O967   O     0.60119   0.19179   0.71806   0.00000  Uiso   1.00
C968   C     0.38590   0.15929   0.75845   0.00000  Uiso   1.00
C969   C     0.61440   0.17452   0.74192   0.00000  Uiso   1.00
C970   C     0.48865   0.05604   0.75905   0.00000  Uiso   1.00
C971   C     0.51093   0.27780   0.74169   0.00000  Uiso   1.00
C972   C     0.52153   0.14481   0.64400   0.00000  Uiso   1.00
C973   C     0.47929   0.18794   0.85594   0.00000  Uiso   1.00
C974   C     0.47517   0.20037   0.89795   0.00000  Uiso   1.00
C975   C     0.52971   0.13431   0.60171   0.00000  Uiso   1.00
C976   C     0.46550   0.25398   0.95365   0.00000  Uiso   1.00
C977   C     0.46654   0.24079   0.91426   0.00000  Uiso   1.00
C978   C     0.48369   0.17289   0.92082   0.00000  Uiso   1.00
C979   C     0.49015   0.18800   0.95835   0.00000  Uiso   1.00
C980   C     0.47757   0.22759   0.97563   0.00000  Uiso   1.00
C981   C     0.50752   0.16452   0.97953   0.00000  Uiso   1.00
C982   C     0.50397   0.17632   0.52023   0.00000  Uiso   1.00
C983   C     0.48354   0.21254   0.53845   0.00000  Uiso   1.00
C984   C     0.47459   0.23926   0.51541   0.00000  Uiso   1.00
C985   C     0.53072   0.13108   0.96038   0.00000  Uiso   1.00
C986   C     0.54218   0.10376   0.98109   0.00000  Uiso   1.00
C987   C     0.53266   0.11114   0.52240   0.00000  Uiso   1.00
C988   C     0.52015   0.15077   0.54080   0.00000  Uiso   1.00
C989   C     0.53663   0.08111   0.54600   0.00000  Uiso   1.00
C990   C     0.53416   0.09307   0.58571   0.00000  Uiso   1.00
C991   C     0.52515   0.16343   0.57885   0.00000  Uiso   1.00
H992   H     0.46112   0.26762   0.52978   0.00000  Uiso   1.00
H993   H     0.52426   0.19540   0.59189   0.00000  Uiso   1.00
H994   H     0.53497   0.06997   0.60444   0.00000  Uiso   1.00
H995   H     0.46128   0.26236   0.89618   0.00000  Uiso   1.00
H996   H     0.54222   0.12678   0.92875   0.00000  Uiso   1.00
C997   C     0.66000   0.18141   0.74268   0.00000  Uiso   1.00
C998   C     0.34051   0.15417   0.75997   0.00000  Uiso   1.00
C999   C     0.51715   0.32292   0.73930   0.00000  Uiso   1.00
C1000  C     0.48518   0.01159   0.75996   0.00000  Uiso   1.00
H1001  H     0.45459   0.32968   0.77656   0.00000  Uiso   1.00
N1002  N     0.53763   0.03755   0.53173   0.00000  Uiso   1.00
O1003  O     0.55905   0.01499   0.54473   0.00000  Uiso   1.00
O1004  O     0.51130   0.01883   0.51134   0.00000  Uiso   1.00
O1005  O     0.35289   0.21893   0.73365   0.00000  Uiso   1.00
C1006  C     0.35608   0.22750   0.69521   0.00000  Uiso   1.00
H1007  H     0.66224   0.24420   0.69542   0.00000  Uiso   1.00
H1008  H     0.35683   0.19860   0.67404   0.00000  Uiso   1.00
C1009  C     0.39751   0.25658   0.68110   0.00000  Uiso   1.00
H1010  H     0.42583   0.24059   0.67890   0.00000  Uiso   1.00
H1011  H     0.39923   0.26559   0.65181   0.00000  Uiso   1.00
H1012  H     0.39822   0.28541   0.70198   0.00000  Uiso   1.00
O1013  O     0.64928   0.11554   0.76757   0.00000  Uiso   1.00
C1014  C     0.65180   0.10391   0.80341   0.00000  Uiso   1.00
H1015  H     0.64792   0.13058   0.82711   0.00000  Uiso   1.00
H1016  H     0.34981   0.09229   0.79944   0.00000  Uiso   1.00
C1017  C     0.61571   0.06876   0.81651   0.00000  Uiso   1.00
H1018  H     0.61871   0.04140   0.79375   0.00000  Uiso   1.00
H1019  H     0.61757   0.05898   0.84447   0.00000  Uiso   1.00
H1020  H     0.58392   0.07968   0.82123   0.00000  Uiso   1.00
N1021  N     0.55719   0.00916   0.71549   0.00000  Uiso   1.00
O1022  O     0.59325   0.32850   0.71252   0.00000  Uiso   1.00
O1023  O     0.55749   0.03856   0.69425   0.00000  Uiso   1.00
N1024  N     0.56790   0.07188   0.95922   0.00000  Uiso   1.00
O1025  O     0.60296   0.06737   0.96789   0.00000  Uiso   1.00
O1026  O     0.56031   0.05210   0.92695   0.00000  Uiso   1.00
O1027  O     0.45793   0.29440   0.96968   0.00000  Uiso   1.00
C1028  C     0.41640   0.30120   0.96927   0.00000  Uiso   1.00
H1029  H     0.39152   0.27452   0.97983   0.00000  Uiso   1.00
H1030  H     0.41607   0.30619   0.93918   0.00000  Uiso   1.00
C1031  C     0.40447   0.00716   0.99648   0.00000  Uiso   1.00
H1032  H     0.42885   0.03440   0.98710   0.00000  Uiso   1.00
H1033  H     0.37242   0.01372   0.99558   0.00000  Uiso   1.00
H1034  H     0.40313   0.00270   0.52712   0.00000  Uiso   1.00
O1035  O     0.48435   0.13107   0.90635   0.00000  Uiso   1.00
C1036  C     0.44324   0.10897   0.92132   0.00000  Uiso   1.00
H1037  H     0.41798   0.12181   0.91269   0.00000  Uiso   1.00
H1038  H     0.43505   0.11034   0.95395   0.00000  Uiso   1.00
C1039  C     0.44340   0.06329   0.90439   0.00000  Uiso   1.00
H1040  H     0.46783   0.04935   0.91303   0.00000  Uiso   1.00
H1041  H     0.41115   0.04553   0.91576   0.00000  Uiso   1.00
H1042  H     0.45120   0.06087   0.87181   0.00000  Uiso   1.00
N1043  N     0.46685   0.22066   0.58016   0.00000  Uiso   1.00
O1044  O     0.44022   0.19209   0.59989   0.00000  Uiso   1.00
O1045  O     0.47293   0.25838   0.59739   0.00000  Uiso   1.00
Zn1046 Zn    0.85910   0.14090   0.78278   0.00000  Uiso   1.00
Zn1047 Zn    0.80125   0.12378   0.72258   0.00000  Uiso   1.00
Zn1048 Zn    0.87833   0.19664   0.71188   0.00000  Uiso   1.00
Zn1049 Zn    0.79465   0.20535   0.78277   0.00000  Uiso   1.00
O1050  O     0.83333   0.16667   0.75000   0.00000  Uiso   1.00
O1051  O     0.73656   0.18960   0.77820   0.00000  Uiso   1.00
O1052  O     0.92106   0.15277   0.76768   0.00000  Uiso   1.00
O1053  O     0.80467   0.06903   0.73607   0.00000  Uiso   1.00
O1054  O     0.87104   0.25527   0.71806   0.00000  Uiso   1.00
O1055  O     0.82360   0.12393   0.66625   0.00000  Uiso   1.00
O1056  O     0.79354   0.20646   0.83749   0.00000  Uiso   1.00
O1057  O     0.87755   0.17493   0.65877   0.00000  Uiso   1.00
O1058  O     0.83865   0.16135   0.83749   0.00000  Uiso   1.00
O1059  O     0.84515   0.08101   0.77821   0.00000  Uiso   1.00
O1060  O     0.81247   0.26136   0.76767   0.00000  Uiso   1.00
O1061  O     0.74119   0.13251   0.73607   0.00000  Uiso   1.00
O1062  O     0.93452   0.19179   0.71806   0.00000  Uiso   1.00
C1063  C     0.71924   0.15929   0.75845   0.00000  Uiso   1.00
C1064  C     0.94773   0.17452   0.74192   0.00000  Uiso   1.00
C1065  C     0.82198   0.05604   0.75905   0.00000  Uiso   1.00
C1066  C     0.84427   0.27780   0.74169   0.00000  Uiso   1.00
C1067  C     0.85487   0.14481   0.64400   0.00000  Uiso   1.00
C1068  C     0.81262   0.18794   0.85594   0.00000  Uiso   1.00
C1069  C     0.80851   0.20037   0.89795   0.00000  Uiso   1.00
C1070  C     0.86304   0.13431   0.60171   0.00000  Uiso   1.00
C1071  C     0.79883   0.25398   0.95365   0.00000  Uiso   1.00
C1072  C     0.79987   0.24079   0.91426   0.00000  Uiso   1.00
C1073  C     0.81702   0.17289   0.92082   0.00000  Uiso   1.00
C1074  C     0.82348   0.18800   0.95835   0.00000  Uiso   1.00
C1075  C     0.81091   0.22759   0.97563   0.00000  Uiso   1.00
C1076  C     0.84085   0.16452   0.97953   0.00000  Uiso   1.00
C1077  C     0.83730   0.17632   0.52023   0.00000  Uiso   1.00
C1078  C     0.81687   0.21254   0.53845   0.00000  Uiso   1.00
C1079  C     0.80792   0.23926   0.51541   0.00000  Uiso   1.00
C1080  C     0.86405   0.13108   0.96038   0.00000  Uiso   1.00
C1081  C     0.87551   0.10376   0.98109   0.00000  Uiso   1.00
C1082  C     0.86600   0.11114   0.52240   0.00000  Uiso   1.00
C1083  C     0.85348   0.15077   0.54080   0.00000  Uiso   1.00
C1084  C     0.86997   0.08111   0.54600   0.00000  Uiso   1.00
C1085  C     0.86749   0.09307   0.58571   0.00000  Uiso   1.00
C1086  C     0.85848   0.16343   0.57885   0.00000  Uiso   1.00
H1087  H     0.79446   0.26762   0.52978   0.00000  Uiso   1.00
H1088  H     0.85760   0.19540   0.59189   0.00000  Uiso   1.00
H1089  H     0.86830   0.06997   0.60444   0.00000  Uiso   1.00
H1090  H     0.79462   0.26236   0.89618   0.00000  Uiso   1.00
H1091  H     0.87556   0.12678   0.92875   0.00000  Uiso   1.00
C1092  C     0.99333   0.18141   0.74268   0.00000  Uiso   1.00
C1093  C     0.67384   0.15417   0.75997   0.00000  Uiso   1.00
C1094  C     0.85048   0.32292   0.73930   0.00000  Uiso   1.00
C1095  C     0.81851   0.01159   0.75996   0.00000  Uiso   1.00
H1096  H     0.78792   0.32968   0.77656   0.00000  Uiso   1.00
N1097  N     0.87097   0.03755   0.53173   0.00000  Uiso   1.00
O1098  O     0.89238   0.01499   0.54473   0.00000  Uiso   1.00
O1099  O     0.84464   0.01883   0.51134   0.00000  Uiso   1.00
O1100  O     0.68622   0.21893   0.73365   0.00000  Uiso   1.00
C1101  C     0.68941   0.22750   0.69521   0.00000  Uiso   1.00
H1102  H     0.99557   0.24420   0.69542   0.00000  Uiso   1.00
H1103  H     0.69017   0.19860   0.67404   0.00000  Uiso   1.00
C1104  C     0.73084   0.25658   0.68110   0.00000  Uiso   1.00
H1105  H     0.75916   0.24059   0.67890   0.00000  Uiso   1.00
H1106  H     0.73256   0.26559   0.65181   0.00000  Uiso   1.00
H1107  H     0.73155   0.28541   0.70198   0.00000  Uiso   1.00
O1108  O     0.98261   0.11554   0.76757   0.00000  Uiso   1.00
C1109  C     0.98513   0.10391   0.80341   0.00000  Uiso   1.00
H1110  H     0.98125   0.13058   0.82711   0.00000  Uiso   1.00
H1111  H     0.68315   0.09229   0.79944   0.00000  Uiso   1.00
C1112  C     0.94905   0.06876   0.81651   0.00000  Uiso   1.00
H1113  H     0.95205   0.04140   0.79375   0.00000  Uiso   1.00
H1114  H     0.95090   0.05898   0.84447   0.00000  Uiso   1.00
H1115  H     0.91725   0.07968   0.82123   0.00000  Uiso   1.00
N1116  N     0.89052   0.00916   0.71549   0.00000  Uiso   1.00
O1117  O     0.92658   0.32850   0.71252   0.00000  Uiso   1.00
O1118  O     0.89083   0.03856   0.69425   0.00000  Uiso   1.00
N1119  N     0.90124   0.07188   0.95922   0.00000  Uiso   1.00
O1120  O     0.93629   0.06737   0.96789   0.00000  Uiso   1.00
O1121  O     0.89365   0.05210   0.92695   0.00000  Uiso   1.00
O1122  O     0.79126   0.29440   0.96968   0.00000  Uiso   1.00
C1123  C     0.74973   0.30120   0.96927   0.00000  Uiso   1.00
H1124  H     0.72485   0.27452   0.97983   0.00000  Uiso   1.00
H1125  H     0.74941   0.30619   0.93918   0.00000  Uiso   1.00
C1126  C     0.73780   0.00716   0.99648   0.00000  Uiso   1.00
H1127  H     0.76219   0.03440   0.98710   0.00000  Uiso   1.00
H1128  H     0.70576   0.01372   0.99558   0.00000  Uiso   1.00
H1129  H     0.73646   0.00270   0.52712   0.00000  Uiso   1.00
O1130  O     0.81768   0.13107   0.90635   0.00000  Uiso   1.00
C1131  C     0.77657   0.10897   0.92132   0.00000  Uiso   1.00
H1132  H     0.75131   0.12181   0.91269   0.00000  Uiso   1.00
H1133  H     0.76839   0.11034   0.95395   0.00000  Uiso   1.00
C1134  C     0.77673   0.06329   0.90439   0.00000  Uiso   1.00
H1135  H     0.80116   0.04935   0.91303   0.00000  Uiso   1.00
H1136  H     0.74448   0.04553   0.91576   0.00000  Uiso   1.00
H1137  H     0.78454   0.06087   0.87181   0.00000  Uiso   1.00
N1138  N     0.80019   0.22066   0.58016   0.00000  Uiso   1.00
O1139  O     0.77356   0.19209   0.59989   0.00000  Uiso   1.00
O1140  O     0.80626   0.25838   0.59739   0.00000  Uiso   1.00
Zn1141 Zn    0.19244   0.47423   0.78278   0.00000  Uiso   1.00
Zn1142 Zn    0.13459   0.45711   0.72258   0.00000  Uiso   1.00
Zn1143 Zn    0.21166   0.52997   0.71188   0.00000  Uiso   1.00
Zn1144 Zn    0.12798   0.53868   0.78277   0.00000  Uiso   1.00
O1145  O     0.16667   0.50000   0.75000   0.00000  Uiso   1.00
O1146  O     0.06990   0.52293   0.77820   0.00000  Uiso   1.00
O1147  O     0.25440   0.48610   0.76768   0.00000  Uiso   1.00
O1148  O     0.13800   0.40236   0.73607   0.00000  Uiso   1.00
O1149  O     0.20437   0.58860   0.71806   0.00000  Uiso   1.00
O1150  O     0.15693   0.45726   0.66625   0.00000  Uiso   1.00
O1151  O     0.12687   0.53979   0.83749   0.00000  Uiso   1.00
O1152  O     0.21088   0.50826   0.65877   0.00000  Uiso   1.00
O1153  O     0.17198   0.49468   0.83749   0.00000  Uiso   1.00
O1154  O     0.17849   0.41434   0.77821   0.00000  Uiso   1.00
O1155  O     0.14581   0.59469   0.76767   0.00000  Uiso   1.00
O1156  O     0.07452   0.46584   0.73607   0.00000  Uiso   1.00
O1157  O     0.26785   0.52512   0.71806   0.00000  Uiso   1.00
C1158  C     0.05257   0.49262   0.75845   0.00000  Uiso   1.00
C1159  C     0.28107   0.50785   0.74192   0.00000  Uiso   1.00
C1160  C     0.15531   0.38937   0.75905   0.00000  Uiso   1.00
C1161  C     0.17760   0.61114   0.74169   0.00000  Uiso   1.00
C1162  C     0.18820   0.47814   0.64400   0.00000  Uiso   1.00
C1163  C     0.14596   0.52128   0.85594   0.00000  Uiso   1.00
C1164  C     0.14184   0.53370   0.89795   0.00000  Uiso   1.00
C1165  C     0.19638   0.46764   0.60171   0.00000  Uiso   1.00
C1166  C     0.13216   0.58732   0.95365   0.00000  Uiso   1.00
C1167  C     0.13320   0.57413   0.91426   0.00000  Uiso   1.00
C1168  C     0.15035   0.50622   0.92082   0.00000  Uiso   1.00
C1169  C     0.15682   0.52133   0.95835   0.00000  Uiso   1.00
C1170  C     0.14424   0.56092   0.97563   0.00000  Uiso   1.00
C1171  C     0.17419   0.49786   0.97953   0.00000  Uiso   1.00
C1172  C     0.17063   0.50965   0.52023   0.00000  Uiso   1.00
C1173  C     0.15021   0.54587   0.53845   0.00000  Uiso   1.00
C1174  C     0.14125   0.57259   0.51541   0.00000  Uiso   1.00
C1175  C     0.19739   0.46441   0.96038   0.00000  Uiso   1.00
C1176  C     0.20884   0.43709   0.98109   0.00000  Uiso   1.00
C1177  C     0.19933   0.44448   0.52240   0.00000  Uiso   1.00
C1178  C     0.18681   0.48411   0.54080   0.00000  Uiso   1.00
C1179  C     0.20330   0.41445   0.54600   0.00000  Uiso   1.00
C1180  C     0.20083   0.42641   0.58571   0.00000  Uiso   1.00
C1181  C     0.19182   0.49676   0.57885   0.00000  Uiso   1.00
H1182  H     0.12779   0.60096   0.52978   0.00000  Uiso   1.00
H1183  H     0.19093   0.52874   0.59189   0.00000  Uiso   1.00
H1184  H     0.20163   0.40331   0.60444   0.00000  Uiso   1.00
H1185  H     0.12795   0.59570   0.89618   0.00000  Uiso   1.00
H1186  H     0.20889   0.46012   0.92875   0.00000  Uiso   1.00
C1187  C     0.32667   0.51475   0.74268   0.00000  Uiso   1.00
C1188  C     0.00717   0.48751   0.75997   0.00000  Uiso   1.00
C1189  C     0.18382   0.65625   0.73930   0.00000  Uiso   1.00
C1190  C     0.15184   0.34492   0.75996   0.00000  Uiso   1.00
H1191  H     0.12126   0.66301   0.77656   0.00000  Uiso   1.00
N1192  N     0.20430   0.37088   0.53173   0.00000  Uiso   1.00
O1193  O     0.22572   0.34832   0.54473   0.00000  Uiso   1.00
O1194  O     0.17797   0.35217   0.51134   0.00000  Uiso   1.00
O1195  O     0.01956   0.55226   0.73365   0.00000  Uiso   1.00
C1196  C     0.02274   0.56084   0.69521   0.00000  Uiso   1.00
H1197  H     0.32890   0.57753   0.69542   0.00000  Uiso   1.00
H1198  H     0.02350   0.53193   0.67404   0.00000  Uiso   1.00
C1199  C     0.06418   0.58991   0.68110   0.00000  Uiso   1.00
H1200  H     0.09249   0.57393   0.67890   0.00000  Uiso   1.00
H1201  H     0.06589   0.59892   0.65181   0.00000  Uiso   1.00
H1202  H     0.06489   0.61875   0.70198   0.00000  Uiso   1.00
O1203  O     0.31594   0.44887   0.76757   0.00000  Uiso   1.00
C1204  C     0.31846   0.43724   0.80341   0.00000  Uiso   1.00
H1205  H     0.31459   0.46391   0.82711   0.00000  Uiso   1.00
H1206  H     0.01648   0.42562   0.79944   0.00000  Uiso   1.00
C1207  C     0.28238   0.40210   0.81651   0.00000  Uiso   1.00
H1208  H     0.28538   0.37474   0.79375   0.00000  Uiso   1.00
H1209  H     0.28423   0.39232   0.84447   0.00000  Uiso   1.00
H1210  H     0.25059   0.41301   0.82123   0.00000  Uiso   1.00
N1211  N     0.22386   0.34249   0.71549   0.00000  Uiso   1.00
O1212  O     0.25992   0.66183   0.71252   0.00000  Uiso   1.00
O1213  O     0.22416   0.37190   0.69425   0.00000  Uiso   1.00
N1214  N     0.23457   0.40521   0.95922   0.00000  Uiso   1.00
O1215  O     0.26963   0.40071   0.96789   0.00000  Uiso   1.00
O1216  O     0.22698   0.38543   0.92695   0.00000  Uiso   1.00
O1217  O     0.12460   0.62773   0.96968   0.00000  Uiso   1.00
C1218  C     0.08306   0.63453   0.96927   0.00000  Uiso   1.00
H1219  H     0.05818   0.60785   0.97983   0.00000  Uiso   1.00
H1220  H     0.08274   0.63952   0.93918   0.00000  Uiso   1.00
C1221  C     0.07114   0.34049   0.99648   0.00000  Uiso   1.00
H1222  H     0.09552   0.36773   0.98710   0.00000  Uiso   1.00
H1223  H     0.03909   0.34706   0.99558   0.00000  Uiso   1.00
H1224  H     0.06980   0.33603   0.52712   0.00000  Uiso   1.00
O1225  O     0.15101   0.46440   0.90635   0.00000  Uiso   1.00
C1226  C     0.10990   0.44230   0.92132   0.00000  Uiso   1.00
H1227  H     0.08464   0.45515   0.91269   0.00000  Uiso   1.00
H1228  H     0.10172   0.44367   0.95395   0.00000  Uiso   1.00
C1229  C     0.11007   0.39662   0.90439   0.00000  Uiso   1.00
H1230  H     0.13449   0.38269   0.91303   0.00000  Uiso   1.00
H1231  H     0.07781   0.37886   0.91576   0.00000  Uiso   1.00
H1232  H     0.11787   0.39420   0.87181   0.00000  Uiso   1.00
N1233  N     0.13352   0.55399   0.58016   0.00000  Uiso   1.00
O1234  O     0.10689   0.52542   0.59989   0.00000  Uiso   1.00
O1235  O     0.13960   0.59171   0.59739   0.00000  Uiso   1.00
Zn1236 Zn    0.52577   0.47423   0.78278   0.00000  Uiso   1.00
Zn1237 Zn    0.46792   0.45711   0.72258   0.00000  Uiso   1.00
Zn1238 Zn    0.54500   0.52997   0.71188   0.00000  Uiso   1.00
Zn1239 Zn    0.46131   0.53868   0.78277   0.00000  Uiso   1.00
O1240  O     0.50000   0.50000   0.75000   0.00000  Uiso   1.00
O1241  O     0.40323   0.52293   0.77820   0.00000  Uiso   1.00
O1242  O     0.58773   0.48610   0.76768   0.00000  Uiso   1.00
O1243  O     0.47133   0.40236   0.73607   0.00000  Uiso   1.00
O1244  O     0.53771   0.58860   0.71806   0.00000  Uiso   1.00
O1245  O     0.49027   0.45726   0.66625   0.00000  Uiso   1.00
O1246  O     0.46020   0.53979   0.83749   0.00000  Uiso   1.00
O1247  O     0.54421   0.50826   0.65877   0.00000  Uiso   1.00
O1248  O     0.50532   0.49468   0.83749   0.00000  Uiso   1.00
O1249  O     0.51182   0.41434   0.77821   0.00000  Uiso   1.00
O1250  O     0.47914   0.59469   0.76767   0.00000  Uiso   1.00
O1251  O     0.40785   0.46584   0.73607   0.00000  Uiso   1.00
O1252  O     0.60119   0.52512   0.71806   0.00000  Uiso   1.00
C1253  C     0.38590   0.49262   0.75845   0.00000  Uiso   1.00
C1254  C     0.61440   0.50785   0.74192   0.00000  Uiso   1.00
C1255  C     0.48865   0.38937   0.75905   0.00000  Uiso   1.00
C1256  C     0.51093   0.61114   0.74169   0.00000  Uiso   1.00
C1257  C     0.52153   0.47814   0.64400   0.00000  Uiso   1.00
C1258  C     0.47929   0.52128   0.85594   0.00000  Uiso   1.00
C1259  C     0.47517   0.53370   0.89795   0.00000  Uiso   1.00
C1260  C     0.52971   0.46764   0.60171   0.00000  Uiso   1.00
C1261  C     0.46550   0.58732   0.95365   0.00000  Uiso   1.00
C1262  C     0.46654   0.57413   0.91426   0.00000  Uiso   1.00
C1263  C     0.48369   0.50622   0.92082   0.00000  Uiso   1.00
C1264  C     0.49015   0.52133   0.95835   0.00000  Uiso   1.00
C1265  C     0.47757   0.56092   0.97563   0.00000  Uiso   1.00
C1266  C     0.50752   0.49786   0.97953   0.00000  Uiso   1.00
C1267  C     0.50397   0.50965   0.52023   0.00000  Uiso   1.00
C1268  C     0.48354   0.54587   0.53845   0.00000  Uiso   1.00
C1269  C     0.47459   0.57259   0.51541   0.00000  Uiso   1.00
C1270  C     0.53072   0.46441   0.96038   0.00000  Uiso   1.00
C1271  C     0.54218   0.43709   0.98109   0.00000  Uiso   1.00
C1272  C     0.53266   0.44448   0.52240   0.00000  Uiso   1.00
C1273  C     0.52015   0.48411   0.54080   0.00000  Uiso   1.00
C1274  C     0.53663   0.41445   0.54600   0.00000  Uiso   1.00
C1275  C     0.53416   0.42641   0.58571   0.00000  Uiso   1.00
C1276  C     0.52515   0.49676   0.57885   0.00000  Uiso   1.00
H1277  H     0.46112   0.60096   0.52978   0.00000  Uiso   1.00
H1278  H     0.52426   0.52874   0.59189   0.00000  Uiso   1.00
H1279  H     0.53497   0.40331   0.60444   0.00000  Uiso   1.00
H1280  H     0.46128   0.59570   0.89618   0.00000  Uiso   1.00
H1281  H     0.54222   0.46012   0.92875   0.00000  Uiso   1.00
C1282  C     0.66000   0.51475   0.74268   0.00000  Uiso   1.00
C1283  C     0.34051   0.48751   0.75997   0.00000  Uiso   1.00
C1284  C     0.51715   0.65625   0.73930   0.00000  Uiso   1.00
C1285  C     0.48518   0.34492   0.75996   0.00000  Uiso   1.00
H1286  H     0.45459   0.66301   0.77656   0.00000  Uiso   1.00
N1287  N     0.53763   0.37088   0.53173   0.00000  Uiso   1.00
O1288  O     0.55905   0.34832   0.54473   0.00000  Uiso   1.00
O1289  O     0.51130   0.35217   0.51134   0.00000  Uiso   1.00
O1290  O     0.35289   0.55226   0.73365   0.00000  Uiso   1.00
C1291  C     0.35608   0.56084   0.69521   0.00000  Uiso   1.00
H1292  H     0.66224   0.57753   0.69542   0.00000  Uiso   1.00
H1293  H     0.35683   0.53193   0.67404   0.00000  Uiso   1.00
C1294  C     0.39751   0.58991   0.68110   0.00000  Uiso   1.00
H1295  H     0.42583   0.57393   0.67890   0.00000  Uiso   1.00
H1296  H     0.39923   0.59892   0.65181   0.00000  Uiso   1.00
H1297  H     0.39822   0.61875   0.70198   0.00000  Uiso   1.00
O1298  O     0.64928   0.44887   0.76757   0.00000  Uiso   1.00
C1299  C     0.65180   0.43724   0.80341   0.00000  Uiso   1.00
H1300  H     0.64792   0.46391   0.82711   0.00000  Uiso   1.00
H1301  H     0.34981   0.42562   0.79944   0.00000  Uiso   1.00
C1302  C     0.61571   0.40210   0.81651   0.00000  Uiso   1.00
H1303  H     0.61871   0.37474   0.79375   0.00000  Uiso   1.00
H1304  H     0.61757   0.39232   0.84447   0.00000  Uiso   1.00
H1305  H     0.58392   0.41301   0.82123   0.00000  Uiso   1.00
N1306  N     0.55719   0.34249   0.71549   0.00000  Uiso   1.00
O1307  O     0.59325   0.66183   0.71252   0.00000  Uiso   1.00
O1308  O     0.55749   0.37190   0.69425   0.00000  Uiso   1.00
N1309  N     0.56790   0.40521   0.95922   0.00000  Uiso   1.00
O1310  O     0.60296   0.40071   0.96789   0.00000  Uiso   1.00
O1311  O     0.56031   0.38543   0.92695   0.00000  Uiso   1.00
O1312  O     0.45793   0.62773   0.96968   0.00000  Uiso   1.00
C1313  C     0.41640   0.63453   0.96927   0.00000  Uiso   1.00
H1314  H     0.39152   0.60785   0.97983   0.00000  Uiso   1.00
H1315  H     0.41607   0.63952   0.93918   0.00000  Uiso   1.00
C1316  C     0.40447   0.34049   0.99648   0.00000  Uiso   1.00
H1317  H     0.42885   0.36773   0.98710   0.00000  Uiso   1.00
H1318  H     0.37242   0.34706   0.99558   0.00000  Uiso   1.00
H1319  H     0.40313   0.33603   0.52712   0.00000  Uiso   1.00
O1320  O     0.48435   0.46440   0.90635   0.00000  Uiso   1.00
C1321  C     0.44324   0.44230   0.92132   0.00000  Uiso   1.00
H1322  H     0.41798   0.45515   0.91269   0.00000  Uiso   1.00
H1323  H     0.43505   0.44367   0.95395   0.00000  Uiso   1.00
C1324  C     0.44340   0.39662   0.90439   0.00000  Uiso   1.00
H1325  H     0.46783   0.38269   0.91303   0.00000  Uiso   1.00
H1326  H     0.41115   0.37886   0.91576   0.00000  Uiso   1.00
H1327  H     0.45120   0.39420   0.87181   0.00000  Uiso   1.00
N1328  N     0.46685   0.55399   0.58016   0.00000  Uiso   1.00
O1329  O     0.44022   0.52542   0.59989   0.00000  Uiso   1.00
O1330  O     0.47293   0.59171   0.59739   0.00000  Uiso   1.00
Zn1331 Zn    0.85910   0.47423   0.78278   0.00000  Uiso   1.00
Zn1332 Zn    0.80125   0.45711   0.72258   0.00000  Uiso   1.00
Zn1333 Zn    0.87833   0.52997   0.71188   0.00000  Uiso   1.00
Zn1334 Zn    0.79465   0.53868   0.78277   0.00000  Uiso   1.00
O1335  O     0.83333   0.50000   0.75000   0.00000  Uiso   1.00
O1336  O     0.73656   0.52293   0.77820   0.00000  Uiso   1.00
O1337  O     0.92106   0.48610   0.76768   0.00000  Uiso   1.00
O1338  O     0.80467   0.40236   0.73607   0.00000  Uiso   1.00
O1339  O     0.87104   0.58860   0.71806   0.00000  Uiso   1.00
O1340  O     0.82360   0.45726   0.66625   0.00000  Uiso   1.00
O1341  O     0.79354   0.53979   0.83749   0.00000  Uiso   1.00
O1342  O     0.87755   0.50826   0.65877   0.00000  Uiso   1.00
O1343  O     0.83865   0.49468   0.83749   0.00000  Uiso   1.00
O1344  O     0.84515   0.41434   0.77821   0.00000  Uiso   1.00
O1345  O     0.81247   0.59469   0.76767   0.00000  Uiso   1.00
O1346  O     0.74119   0.46584   0.73607   0.00000  Uiso   1.00
O1347  O     0.93452   0.52512   0.71806   0.00000  Uiso   1.00
C1348  C     0.71924   0.49262   0.75845   0.00000  Uiso   1.00
C1349  C     0.94773   0.50785   0.74192   0.00000  Uiso   1.00
C1350  C     0.82198   0.38937   0.75905   0.00000  Uiso   1.00
C1351  C     0.84427   0.61114   0.74169   0.00000  Uiso   1.00
C1352  C     0.85487   0.47814   0.64400   0.00000  Uiso   1.00
C1353  C     0.81262   0.52128   0.85594   0.00000  Uiso   1.00
C1354  C     0.80851   0.53370   0.89795   0.00000  Uiso   1.00
C1355  C     0.86304   0.46764   0.60171   0.00000  Uiso   1.00
C1356  C     0.79883   0.58732   0.95365   0.00000  Uiso   1.00
C1357  C     0.79987   0.57413   0.91426   0.00000  Uiso   1.00
C1358  C     0.81702   0.50622   0.92082   0.00000  Uiso   1.00
C1359  C     0.82348   0.52133   0.95835   0.00000  Uiso   1.00
C1360  C     0.81091   0.56092   0.97563   0.00000  Uiso   1.00
C1361  C     0.84085   0.49786   0.97953   0.00000  Uiso   1.00
C1362  C     0.83730   0.50965   0.52023   0.00000  Uiso   1.00
C1363  C     0.81687   0.54587   0.53845   0.00000  Uiso   1.00
C1364  C     0.80792   0.57259   0.51541   0.00000  Uiso   1.00
C1365  C     0.86405   0.46441   0.96038   0.00000  Uiso   1.00
C1366  C     0.87551   0.43709   0.98109   0.00000  Uiso   1.00
C1367  C     0.86600   0.44448   0.52240   0.00000  Uiso   1.00
C1368  C     0.85348   0.48411   0.54080   0.00000  Uiso   1.00
C1369  C     0.86997   0.41445   0.54600   0.00000  Uiso   1.00
C1370  C     0.86749   0.42641   0.58571   0.00000  Uiso   1.00
C1371  C     0.85848   0.49676   0.57885   0.00000  Uiso   1.00
H1372  H     0.79446   0.60096   0.52978   0.00000  Uiso   1.00
H1373  H     0.85760   0.52874   0.59189   0.00000  Uiso   1.00
H1374  H     0.86830   0.40331   0.60444   0.00000  Uiso   1.00
H1375  H     0.79462   0.59570   0.89618   0.00000  Uiso   1.00
H1376  H     0.87556   0.46012   0.92875   0.00000  Uiso   1.00
C1377  C     0.99333   0.51475   0.74268   0.00000  Uiso   1.00
C1378  C     0.67384   0.48751   0.75997   0.00000  Uiso   1.00
C1379  C     0.85048   0.65625   0.73930   0.00000  Uiso   1.00
C1380  C     0.81851   0.34492   0.75996   0.00000  Uiso   1.00
H1381  H     0.78792   0.66301   0.77656   0.00000  Uiso   1.00
N1382  N     0.87097   0.37088   0.53173   0.00000  Uiso   1.00
O1383  O     0.89238   0.34832   0.54473   0.00000  Uiso   1.00
O1384  O     0.84464   0.35217   0.51134   0.00000  Uiso   1.00
O1385  O     0.68622   0.55226   0.73365   0.00000  Uiso   1.00
C1386  C     0.68941   0.56084   0.69521   0.00000  Uiso   1.00
H1387  H     0.99557   0.57753   0.69542   0.00000  Uiso   1.00
H1388  H     0.69017   0.53193   0.67404   0.00000  Uiso   1.00
C1389  C     0.73084   0.58991   0.68110   0.00000  Uiso   1.00
H1390  H     0.75916   0.57393   0.67890   0.00000  Uiso   1.00
H1391  H     0.73256   0.59892   0.65181   0.00000  Uiso   1.00
H1392  H     0.73155   0.61875   0.70198   0.00000  Uiso   1.00
O1393  O     0.98261   0.44887   0.76757   0.00000  Uiso   1.00
C1394  C     0.98513   0.43724   0.80341   0.00000  Uiso   1.00
H1395  H     0.98125   0.46391   0.82711   0.00000  Uiso   1.00
H1396  H     0.68315   0.42562   0.79944   0.00000  Uiso   1.00
C1397  C     0.94905   0.40210   0.81651   0.00000  Uiso   1.00
H1398  H     0.95205   0.37474   0.79375   0.00000  Uiso   1.00
H1399  H     0.95090   0.39232   0.84447   0.00000  Uiso   1.00
H1400  H     0.91725   0.41301   0.82123   0.00000  Uiso   1.00
N1401  N     0.89052   0.34249   0.71549   0.00000  Uiso   1.00
O1402  O     0.92658   0.66183   0.71252   0.00000  Uiso   1.00
O1403  O     0.89083   0.37190   0.69425   0.00000  Uiso   1.00
N1404  N     0.90124   0.40521   0.95922   0.00000  Uiso   1.00
O1405  O     0.93629   0.40071   0.96789   0.00000  Uiso   1.00
O1406  O     0.89365   0.38543   0.92695   0.00000  Uiso   1.00
O1407  O     0.79126   0.62773   0.96968   0.00000  Uiso   1.00
C1408  C     0.74973   0.63453   0.96927   0.00000  Uiso   1.00
H1409  H     0.72485   0.60785   0.97983   0.00000  Uiso   1.00
H1410  H     0.74941   0.63952   0.93918   0.00000  Uiso   1.00
C1411  C     0.73780   0.34049   0.99648   0.00000  Uiso   1.00
H1412  H     0.76219   0.36773   0.98710   0.00000  Uiso   1.00
H1413  H     0.70576   0.34706   0.99558   0.00000  Uiso   1.00
H1414  H     0.73646   0.33603   0.52712   0.00000  Uiso   1.00
O1415  O     0.81768   0.46440   0.90635   0.00000  Uiso   1.00
C1416  C     0.77657   0.44230   0.92132   0.00000  Uiso   1.00
H1417  H     0.75131   0.45515   0.91269   0.00000  Uiso   1.00
H1418  H     0.76839   0.44367   0.95395   0.00000  Uiso   1.00
C1419  C     0.77673   0.39662   0.90439   0.00000  Uiso   1.00
H1420  H     0.80116   0.38269   0.91303   0.00000  Uiso   1.00
H1421  H     0.74448   0.37886   0.91576   0.00000  Uiso   1.00
H1422  H     0.78454   0.39420   0.87181   0.00000  Uiso   1.00
N1423  N     0.80019   0.55399   0.58016   0.00000  Uiso   1.00
O1424  O     0.77356   0.52542   0.59989   0.00000  Uiso   1.00
O1425  O     0.80626   0.59171   0.59739   0.00000  Uiso   1.00
Zn1426 Zn    0.19244   0.80756   0.78278   0.00000  Uiso   1.00
Zn1427 Zn    0.13459   0.79044   0.72258   0.00000  Uiso   1.00
Zn1428 Zn    0.21166   0.86331   0.71188   0.00000  Uiso   1.00
Zn1429 Zn    0.12798   0.87202   0.78277   0.00000  Uiso   1.00
O1430  O     0.16667   0.83333   0.75000   0.00000  Uiso   1.00
O1431  O     0.06990   0.85627   0.77820   0.00000  Uiso   1.00
O1432  O     0.25440   0.81944   0.76768   0.00000  Uiso   1.00
O1433  O     0.13800   0.73570   0.73607   0.00000  Uiso   1.00
O1434  O     0.20437   0.92193   0.71806   0.00000  Uiso   1.00
O1435  O     0.15693   0.79060   0.66625   0.00000  Uiso   1.00
O1436  O     0.12687   0.87313   0.83749   0.00000  Uiso   1.00
O1437  O     0.21088   0.84159   0.65877   0.00000  Uiso   1.00
O1438  O     0.17198   0.82802   0.83749   0.00000  Uiso   1.00
O1439  O     0.17849   0.74768   0.77821   0.00000  Uiso   1.00
O1440  O     0.14581   0.92803   0.76767   0.00000  Uiso   1.00
O1441  O     0.07452   0.79917   0.73607   0.00000  Uiso   1.00
O1442  O     0.26785   0.85845   0.71806   0.00000  Uiso   1.00
C1443  C     0.05257   0.82596   0.75845   0.00000  Uiso   1.00
C1444  C     0.28107   0.84118   0.74192   0.00000  Uiso   1.00
C1445  C     0.15531   0.72270   0.75905   0.00000  Uiso   1.00
C1446  C     0.17760   0.94447   0.74169   0.00000  Uiso   1.00
C1447  C     0.18820   0.81148   0.64400   0.00000  Uiso   1.00
C1448  C     0.14596   0.85461   0.85594   0.00000  Uiso   1.00
C1449  C     0.14184   0.86703   0.89795   0.00000  Uiso   1.00
C1450  C     0.19638   0.80097   0.60171   0.00000  Uiso   1.00
C1451  C     0.13216   0.92065   0.95365   0.00000  Uiso   1.00
C1452  C     0.13320   0.90746   0.91426   0.00000  Uiso   1.00
C1453  C     0.15035   0.83955   0.92082   0.00000  Uiso   1.00
C1454  C     0.15682   0.85467   0.95835   0.00000  Uiso   1.00
C1455  C     0.14424   0.89426   0.97563   0.00000  Uiso   1.00
C1456  C     0.17419   0.83119   0.97953   0.00000  Uiso   1.00
C1457  C     0.17063   0.84299   0.52023   0.00000  Uiso   1.00
C1458  C     0.15021   0.87921   0.53845   0.00000  Uiso   1.00
C1459  C     0.14125   0.90592   0.51541   0.00000  Uiso   1.00
C1460  C     0.19739   0.79774   0.96038   0.00000  Uiso   1.00
C1461  C     0.20884   0.77042   0.98109   0.00000  Uiso   1.00
C1462  C     0.19933   0.77781   0.52240   0.00000  Uiso   1.00
C1463  C     0.18681   0.81744   0.54080   0.00000  Uiso   1.00
C1464  C     0.20330   0.74778   0.54600   0.00000  Uiso   1.00
C1465  C     0.20083   0.75974   0.58571   0.00000  Uiso   1.00
C1466  C     0.19182   0.83009   0.57885   0.00000  Uiso   1.00
H1467  H     0.12779   0.93429   0.52978   0.00000  Uiso   1.00
H1468  H     0.19093   0.86207   0.59189   0.00000  Uiso   1.00
H1469  H     0.20163   0.73664   0.60444   0.00000  Uiso   1.00
H1470  H     0.12795   0.92903   0.89618   0.00000  Uiso   1.00
H1471  H     0.20889   0.79345   0.92875   0.00000  Uiso   1.00
C1472  C     0.32667   0.84808   0.74268   0.00000  Uiso   1.00
C1473  C     0.00717   0.82084   0.75997   0.00000  Uiso   1.00
C1474  C     0.18382   0.98958   0.73930   0.00000  Uiso   1.00
C1475  C     0.15184   0.67825   0.75996   0.00000  Uiso   1.00
H1476  H     0.12126   0.99634   0.77656   0.00000  Uiso   1.00
N1477  N     0.20430   0.70421   0.53173   0.00000  Uiso   1.00
O1478  O     0.22572   0.68165   0.54473   0.00000  Uiso   1.00
O1479  O     0.17797   0.68550   0.51134   0.00000  Uiso   1.00
O1480  O     0.01956   0.88559   0.73365   0.00000  Uiso   1.00
C1481  C     0.02274   0.89417   0.69521   0.00000  Uiso   1.00
H1482  H     0.32890   0.91086   0.69542   0.00000  Uiso   1.00
H1483  H     0.02350   0.86526   0.67404   0.00000  Uiso   1.00
C1484  C     0.06418   0.92325   0.68110   0.00000  Uiso   1.00
H1485  H     0.09249   0.90726   0.67890   0.00000  Uiso   1.00
H1486  H     0.06589   0.93225   0.65181   0.00000  Uiso   1.00
H1487  H     0.06489   0.95208   0.70198   0.00000  Uiso   1.00
O1488  O     0.31594   0.78221   0.76757   0.00000  Uiso   1.00
C1489  C     0.31846   0.77057   0.80341   0.00000  Uiso   1.00
H1490  H     0.31459   0.79724   0.82711   0.00000  Uiso   1.00
H1491  H     0.01648   0.75895   0.79944   0.00000  Uiso   1.00
C1492  C     0.28238   0.73543   0.81651   0.00000  Uiso   1.00
H1493  H     0.28538   0.70807   0.79375   0.00000  Uiso   1.00
H1494  H     0.28423   0.72565   0.84447   0.00000  Uiso   1.00
H1495  H     0.25059   0.74634   0.82123   0.00000  Uiso   1.00
N1496  N     0.22386   0.67582   0.71549   0.00000  Uiso   1.00
O1497  O     0.25992   0.99516   0.71252   0.00000  Uiso   1.00
O1498  O     0.22416   0.70523   0.69425   0.00000  Uiso   1.00
N1499  N     0.23457   0.73854   0.95922   0.00000  Uiso   1.00
O1500  O     0.26963   0.73404   0.96789   0.00000  Uiso   1.00
O1501  O     0.22698   0.71877   0.92695   0.00000  Uiso   1.00
O1502  O     0.12460   0.96107   0.96968   0.00000  Uiso   1.00
C1503  C     0.08306   0.96787   0.96927   0.00000  Uiso   1.00
H1504  H     0.05818   0.94118   0.97983   0.00000  Uiso   1.00
H1505  H     0.08274   0.97285   0.93918   0.00000  Uiso   1.00
C1506  C     0.07114   0.67383   0.99648   0.00000  Uiso   1.00
H1507  H     0.09552   0.70107   0.98710   0.00000  Uiso   1.00
H1508  H     0.03909   0.68039   0.99558   0.00000  Uiso   1.00
H1509  H     0.06980   0.66937   0.52712   0.00000  Uiso   1.00
O1510  O     0.15101   0.79774   0.90635   0.00000  Uiso   1.00
C1511  C     0.10990   0.77563   0.92132   0.00000  Uiso   1.00
H1512  H     0.08464   0.78848   0.91269   0.00000  Uiso   1.00
H1513  H     0.10172   0.77700   0.95395   0.00000  Uiso   1.00
C1514  C     0.11007   0.72996   0.90439   0.00000  Uiso   1.00
H1515  H     0.13449   0.71602   0.91303   0.00000  Uiso   1.00
H1516  H     0.07781   0.71220   0.91576   0.00000  Uiso   1.00
H1517  H     0.11787   0.72753   0.87181   0.00000  Uiso   1.00
N1518  N     0.13352   0.88732   0.58016   0.00000  Uiso   1.00
O1519  O     0.10689   0.85876   0.59989   0.00000  Uiso   1.00
O1520  O     0.13960   0.92505   0.59739   0.00000  Uiso   1.00
Zn1521 Zn    0.52577   0.80756   0.78278   0.00000  Uiso   1.00
Zn1522 Zn    0.46792   0.79044   0.72258   0.00000  Uiso   1.00
Zn1523 Zn    0.54500   0.86331   0.71188   0.00000  Uiso   1.00
Zn1524 Zn    0.46131   0.87202   0.78277   0.00000  Uiso   1.00
O1525  O     0.50000   0.83333   0.75000   0.00000  Uiso   1.00
O1526  O     0.40323   0.85627   0.77820   0.00000  Uiso   1.00
O1527  O     0.58773   0.81944   0.76768   0.00000  Uiso   1.00
O1528  O     0.47133   0.73570   0.73607   0.00000  Uiso   1.00
O1529  O     0.53771   0.92193   0.71806   0.00000  Uiso   1.00
O1530  O     0.49027   0.79060   0.66625   0.00000  Uiso   1.00
O1531  O     0.46020   0.87313   0.83749   0.00000  Uiso   1.00
O1532  O     0.54421   0.84159   0.65877   0.00000  Uiso   1.00
O1533  O     0.50532   0.82802   0.83749   0.00000  Uiso   1.00
O1534  O     0.51182   0.74768   0.77821   0.00000  Uiso   1.00
O1535  O     0.47914   0.92803   0.76767   0.00000  Uiso   1.00
O1536  O     0.40785   0.79917   0.73607   0.00000  Uiso   1.00
O1537  O     0.60119   0.85845   0.71806   0.00000  Uiso   1.00
C1538  C     0.38590   0.82596   0.75845   0.00000  Uiso   1.00
C1539  C     0.61440   0.84118   0.74192   0.00000  Uiso   1.00
C1540  C     0.48865   0.72270   0.75905   0.00000  Uiso   1.00
C1541  C     0.51093   0.94447   0.74169   0.00000  Uiso   1.00
C1542  C     0.52153   0.81148   0.64400   0.00000  Uiso   1.00
C1543  C     0.47929   0.85461   0.85594   0.00000  Uiso   1.00
C1544  C     0.47517   0.86703   0.89795   0.00000  Uiso   1.00
C1545  C     0.52971   0.80097   0.60171   0.00000  Uiso   1.00
C1546  C     0.46550   0.92065   0.95365   0.00000  Uiso   1.00
C1547  C     0.46654   0.90746   0.91426   0.00000  Uiso   1.00
C1548  C     0.48369   0.83955   0.92082   0.00000  Uiso   1.00
C1549  C     0.49015   0.85467   0.95835   0.00000  Uiso   1.00
C1550  C     0.47757   0.89426   0.97563   0.00000  Uiso   1.00
C1551  C     0.50752   0.83119   0.97953   0.00000  Uiso   1.00
C1552  C     0.50397   0.84299   0.52023   0.00000  Uiso   1.00
C1553  C     0.48354   0.87921   0.53845   0.00000  Uiso   1.00
C1554  C     0.47459   0.90592   0.51541   0.00000  Uiso   1.00
C1555  C     0.53072   0.79774   0.96038   0.00000  Uiso   1.00
C1556  C     0.54218   0.77042   0.98109   0.00000  Uiso   1.00
C1557  C     0.53266   0.77781   0.52240   0.00000  Uiso   1.00
C1558  C     0.52015   0.81744   0.54080   0.00000  Uiso   1.00
C1559  C     0.53663   0.74778   0.54600   0.00000  Uiso   1.00
C1560  C     0.53416   0.75974   0.58571   0.00000  Uiso   1.00
C1561  C     0.52515   0.83009   0.57885   0.00000  Uiso   1.00
H1562  H     0.46112   0.93429   0.52978   0.00000  Uiso   1.00
H1563  H     0.52426   0.86207   0.59189   0.00000  Uiso   1.00
H1564  H     0.53497   0.73664   0.60444   0.00000  Uiso   1.00
H1565  H     0.46128   0.92903   0.89618   0.00000  Uiso   1.00
H1566  H     0.54222   0.79345   0.92875   0.00000  Uiso   1.00
C1567  C     0.66000   0.84808   0.74268   0.00000  Uiso   1.00
C1568  C     0.34051   0.82084   0.75997   0.00000  Uiso   1.00
C1569  C     0.51715   0.98958   0.73930   0.00000  Uiso   1.00
C1570  C     0.48518   0.67825   0.75996   0.00000  Uiso   1.00
H1571  H     0.45459   0.99634   0.77656   0.00000  Uiso   1.00
N1572  N     0.53763   0.70421   0.53173   0.00000  Uiso   1.00
O1573  O     0.55905   0.68165   0.54473   0.00000  Uiso   1.00
O1574  O     0.51130   0.68550   0.51134   0.00000  Uiso   1.00
O1575  O     0.35289   0.88559   0.73365   0.00000  Uiso   1.00
C1576  C     0.35608   0.89417   0.69521   0.00000  Uiso   1.00
H1577  H     0.66224   0.91086   0.69542   0.00000  Uiso   1.00
H1578  H     0.35683   0.86526   0.67404   0.00000  Uiso   1.00
C1579  C     0.39751   0.92325   0.68110   0.00000  Uiso   1.00
H1580  H     0.42583   0.90726   0.67890   0.00000  Uiso   1.00
H1581  H     0.39923   0.93225   0.65181   0.00000  Uiso   1.00
H1582  H     0.39822   0.95208   0.70198   0.00000  Uiso   1.00
O1583  O     0.64928   0.78221   0.76757   0.00000  Uiso   1.00
C1584  C     0.65180   0.77057   0.80341   0.00000  Uiso   1.00
H1585  H     0.64792   0.79724   0.82711   0.00000  Uiso   1.00
H1586  H     0.34981   0.75895   0.79944   0.00000  Uiso   1.00
C1587  C     0.61571   0.73543   0.81651   0.00000  Uiso   1.00
H1588  H     0.61871   0.70807   0.79375   0.00000  Uiso   1.00
H1589  H     0.61757   0.72565   0.84447   0.00000  Uiso   1.00
H1590  H     0.58392   0.74634   0.82123   0.00000  Uiso   1.00
N1591  N     0.55719   0.67582   0.71549   0.00000  Uiso   1.00
O1592  O     0.59325   0.99516   0.71252   0.00000  Uiso   1.00
O1593  O     0.55749   0.70523   0.69425   0.00000  Uiso   1.00
N1594  N     0.56790   0.73854   0.95922   0.00000  Uiso   1.00
O1595  O     0.60296   0.73404   0.96789   0.00000  Uiso   1.00
O1596  O     0.56031   0.71877   0.92695   0.00000  Uiso   1.00
O1597  O     0.45793   0.96107   0.96968   0.00000  Uiso   1.00
C1598  C     0.41640   0.96787   0.96927   0.00000  Uiso   1.00
H1599  H     0.39152   0.94118   0.97983   0.00000  Uiso   1.00
H1600  H     0.41607   0.97285   0.93918   0.00000  Uiso   1.00
C1601  C     0.40447   0.67383   0.99648   0.00000  Uiso   1.00
H1602  H     0.42885   0.70107   0.98710   0.00000  Uiso   1.00
H1603  H     0.37242   0.68039   0.99558   0.00000  Uiso   1.00
H1604  H     0.40313   0.66937   0.52712   0.00000  Uiso   1.00
O1605  O     0.48435   0.79774   0.90635   0.00000  Uiso   1.00
C1606  C     0.44324   0.77563   0.92132   0.00000  Uiso   1.00
H1607  H     0.41798   0.78848   0.91269   0.00000  Uiso   1.00
H1608  H     0.43505   0.77700   0.95395   0.00000  Uiso   1.00
C1609  C     0.44340   0.72996   0.90439   0.00000  Uiso   1.00
H1610  H     0.46783   0.71602   0.91303   0.00000  Uiso   1.00
H1611  H     0.41115   0.71220   0.91576   0.00000  Uiso   1.00
H1612  H     0.45120   0.72753   0.87181   0.00000  Uiso   1.00
N1613  N     0.46685   0.88732   0.58016   0.00000  Uiso   1.00
O1614  O     0.44022   0.85876   0.59989   0.00000  Uiso   1.00
O1615  O     0.47293   0.92505   0.59739   0.00000  Uiso   1.00
Zn1616 Zn    0.85910   0.80756   0.78278   0.00000  Uiso   1.00
Zn1617 Zn    0.80125   0.79044   0.72258   0.00000  Uiso   1.00
Zn1618 Zn    0.87833   0.86331   0.71188   0.00000  Uiso   1.00
Zn1619 Zn    0.79465   0.87202   0.78277   0.00000  Uiso   1.00
O1620  O     0.83333   0.83333   0.75000   0.00000  Uiso   1.00
O1621  O     0.73656   0.85627   0.77820   0.00000  Uiso   1.00
O1622  O     0.92106   0.81944   0.76768   0.00000  Uiso   1.00
O1623  O     0.80467   0.73570   0.73607   0.00000  Uiso   1.00
O1624  O     0.87104   0.92193   0.71806   0.00000  Uiso   1.00
O1625  O     0.82360   0.79060   0.66625   0.00000  Uiso   1.00
O1626  O     0.79354   0.87313   0.83749   0.00000  Uiso   1.00
O1627  O     0.87755   0.84159   0.65877   0.00000  Uiso   1.00
O1628  O     0.83865   0.82802   0.83749   0.00000  Uiso   1.00
O1629  O     0.84515   0.74768   0.77821   0.00000  Uiso   1.00
O1630  O     0.81247   0.92803   0.76767   0.00000  Uiso   1.00
O1631  O     0.74119   0.79917   0.73607   0.00000  Uiso   1.00
O1632  O     0.93452   0.85845   0.71806   0.00000  Uiso   1.00
C1633  C     0.71924   0.82596   0.75845   0.00000  Uiso   1.00
C1634  C     0.94773   0.84118   0.74192   0.00000  Uiso   1.00
C1635  C     0.82198   0.72270   0.75905   0.00000  Uiso   1.00
C1636  C     0.84427   0.94447   0.74169   0.00000  Uiso   1.00
C1637  C     0.85487   0.81148   0.64400   0.00000  Uiso   1.00
C1638  C     0.81262   0.85461   0.85594   0.00000  Uiso   1.00
C1639  C     0.80851   0.86703   0.89795   0.00000  Uiso   1.00
C1640  C     0.86304   0.80097   0.60171   0.00000  Uiso   1.00
C1641  C     0.79883   0.92065   0.95365   0.00000  Uiso   1.00
C1642  C     0.79987   0.90746   0.91426   0.00000  Uiso   1.00
C1643  C     0.81702   0.83955   0.92082   0.00000  Uiso   1.00
C1644  C     0.82348   0.85467   0.95835   0.00000  Uiso   1.00
C1645  C     0.81091   0.89426   0.97563   0.00000  Uiso   1.00
C1646  C     0.84085   0.83119   0.97953   0.00000  Uiso   1.00
C1647  C     0.83730   0.84299   0.52023   0.00000  Uiso   1.00
C1648  C     0.81687   0.87921   0.53845   0.00000  Uiso   1.00
C1649  C     0.80792   0.90592   0.51541   0.00000  Uiso   1.00
C1650  C     0.86405   0.79774   0.96038   0.00000  Uiso   1.00
C1651  C     0.87551   0.77042   0.98109   0.00000  Uiso   1.00
C1652  C     0.86600   0.77781   0.52240   0.00000  Uiso   1.00
C1653  C     0.85348   0.81744   0.54080   0.00000  Uiso   1.00
C1654  C     0.86997   0.74778   0.54600   0.00000  Uiso   1.00
C1655  C     0.86749   0.75974   0.58571   0.00000  Uiso   1.00
C1656  C     0.85848   0.83009   0.57885   0.00000  Uiso   1.00
H1657  H     0.79446   0.93429   0.52978   0.00000  Uiso   1.00
H1658  H     0.85760   0.86207   0.59189   0.00000  Uiso   1.00
H1659  H     0.86830   0.73664   0.60444   0.00000  Uiso   1.00
H1660  H     0.79462   0.92903   0.89618   0.00000  Uiso   1.00
H1661  H     0.87556   0.79345   0.92875   0.00000  Uiso   1.00
C1662  C     0.99333   0.84808   0.74268   0.00000  Uiso   1.00
C1663  C     0.67384   0.82084   0.75997   0.00000  Uiso   1.00
C1664  C     0.85048   0.98958   0.73930   0.00000  Uiso   1.00
C1665  C     0.81851   0.67825   0.75996   0.00000  Uiso   1.00
H1666  H     0.78792   0.99634   0.77656   0.00000  Uiso   1.00
N1667  N     0.87097   0.70421   0.53173   0.00000  Uiso   1.00
O1668  O     0.89238   0.68165   0.54473   0.00000  Uiso   1.00
O1669  O     0.84464   0.68550   0.51134   0.00000  Uiso   1.00
O1670  O     0.68622   0.88559   0.73365   0.00000  Uiso   1.00
C1671  C     0.68941   0.89417   0.69521   0.00000  Uiso   1.00
H1672  H     0.99557   0.91086   0.69542   0.00000  Uiso   1.00
H1673  H     0.69017   0.86526   0.67404   0.00000  Uiso   1.00
C1674  C     0.73084   0.92325   0.68110   0.00000  Uiso   1.00
H1675  H     0.75916   0.90726   0.67890   0.00000  Uiso   1.00
H1676  H     0.73256   0.93225   0.65181   0.00000  Uiso   1.00
H1677  H     0.73155   0.95208   0.70198   0.00000  Uiso   1.00
O1678  O     0.98261   0.78221   0.76757   0.00000  Uiso   1.00
C1679  C     0.98513   0.77057   0.80341   0.00000  Uiso   1.00
H1680  H     0.98125   0.79724   0.82711   0.00000  Uiso   1.00
H1681  H     0.68315   0.75895   0.79944   0.00000  Uiso   1.00
C1682  C     0.94905   0.73543   0.81651   0.00000  Uiso   1.00
H1683  H     0.95205   0.70807   0.79375   0.00000  Uiso   1.00
H1684  H     0.95090   0.72565   0.84447   0.00000  Uiso   1.00
H1685  H     0.91725   0.74634   0.82123   0.00000  Uiso   1.00
N1686  N     0.89052   0.67582   0.71549   0.00000  Uiso   1.00
O1687  O     0.92658   0.99516   0.71252   0.00000  Uiso   1.00
O1688  O     0.89083   0.70523   0.69425   0.00000  Uiso   1.00
N1689  N     0.90124   0.73854   0.95922   0.00000  Uiso   1.00
O1690  O     0.93629   0.73404   0.96789   0.00000  Uiso   1.00
O1691  O     0.89365   0.71877   0.92695   0.00000  Uiso   1.00
O1692  O     0.79126   0.96107   0.96968   0.00000  Uiso   1.00
C1693  C     0.74973   0.96787   0.96927   0.00000  Uiso   1.00
H1694  H     0.72485   0.94118   0.97983   0.00000  Uiso   1.00
H1695  H     0.74941   0.97285   0.93918   0.00000  Uiso   1.00
C1696  C     0.73780   0.67383   0.99648   0.00000  Uiso   1.00
H1697  H     0.76219   0.70107   0.98710   0.00000  Uiso   1.00
H1698  H     0.70576   0.68039   0.99558   0.00000  Uiso   1.00
H1699  H     0.73646   0.66937   0.52712   0.00000  Uiso   1.00
O1700  O     0.81768   0.79774   0.90635   0.00000  Uiso   1.00
C1701  C     0.77657   0.77563   0.92132   0.00000  Uiso   1.00
H1702  H     0.75131   0.78848   0.91269   0.00000  Uiso   1.00
H1703  H     0.76839   0.77700   0.95395   0.00000  Uiso   1.00
C1704  C     0.77673   0.72996   0.90439   0.00000  Uiso   1.00
H1705  H     0.80116   0.71602   0.91303   0.00000  Uiso   1.00
H1706  H     0.74448   0.71220   0.91576   0.00000  Uiso   1.00
H1707  H     0.78454   0.72753   0.87181   0.00000  Uiso   1.00
N1708  N     0.80019   0.88732   0.58016   0.00000  Uiso   1.00
O1709  O     0.77356   0.85876   0.59989   0.00000  Uiso   1.00
O1710  O     0.80626   0.92505   0.59739   0.00000  Uiso   1.00
loop_
_geom_bond_atom_site_label_1
_geom_bond_atom_site_label_2
_geom_bond_distance
_geom_bond_site_symmetry_2
_ccdc_geom_bond_type
Zn1    O5      1.963   .     S
Zn1    O13     1.930   .     S
Zn1    O7      1.927   .     S
Zn1    O14     1.921   .     S
Zn2    O16     1.939   .     S
Zn2    O5      1.925   .     S
Zn2    O10     1.934   .     S
Zn2    O8      1.940   .     S
Zn3    O12     1.929   .     S
Zn3    O9      1.934   .     S
Zn3    O5      1.934   .     S
Zn3    O17     1.941   .     S
Zn4    O6      1.927   .     S
Zn4    O11     1.937   .     S
Zn4    O5      1.949   .     S
Zn4    O15     1.927   .     S
O6     C18     1.276   .     A
O7     C19     1.279   .     A
O8     C20     1.270   .     A
O9     C21     1.274   .     A
O10    C22     1.266   .     A
O11    C23     1.287   .     A
O12    C22     1.272   .     A
O13    C23     1.289   .     A
O14    C20     1.276   .     A
O15    C21     1.280   .     A
O16    C18     1.260   .     A
O17    C19     1.286   .     A
C18    C48     1.449   .     S
C19    C47     1.475   .     S
C20    C50     1.437   .     S
C21    C49     1.460   .     S
C22    C25     1.454   .     S
C23    C24     1.468   .     S
C24    C27     1.398   .     A
C24    C28     1.402   .     A
C25    C40     1.393   .     A
C25    C41     1.388   .     A
C26    C27     1.401   .     A
C26    O77     1.387   .     S
C26    C30     1.411   .     A
C27    H45     1.083   .     S
C28    C29     1.419   .     A
C28    O85     1.385   .     S
C29    C30     1.416   .     A
C29    C31     1.424   .     A
C30    C889    1.394   .     S
C31    C35     1.408   .     A
C31    C887    1.423   .     S
C32    C38     1.432   .     A
C32    C33     1.430   .     A
C32    C886    1.423   1_554 S
C33    N93     1.433   .     S
C33    C34     1.395   .     A
C34    H42     1.084   .     S
C34    C885    1.394   1_554 S
C35    C36     1.391   .     A
C35    H46     1.079   .     S
C36    N74     1.438   .     S
C36    C892    1.410   .     S
C37    C38     1.426   .     A
C37    C39     1.423   .     A
C37    C891    1.410   1_554 S
C38    C41     1.407   .     A
C39    N52     1.437   .     S
C39    C40     1.396   .     A
C40    H44     1.084   .     S
C41    H43     1.078   .     S
C47    C143    1.348   .     S
C47    O150    1.394   .     S
C48    C237    1.348   1_455 S
C48    O253    1.394   1_455 S
C49    C335    1.341   .     S
C49    N356    1.446   .     S
C50    C619    1.341   1_545 S
C50    H621    1.087   1_545 S
H51    C335    1.087   .     S
N52    O54     1.301   .     A
N52    O53     1.301   .     A
O55    C56     1.411   .     S
O55    C237    1.394   1_455 S
C56    C59     1.520   .     S
C56    H58     1.116   .     S
C56    H247    1.111   1_455 S
H57    C151    1.111   .     S
C59    H60     1.111   .     S
C59    H61     1.110   .     S
C59    H62     1.111   .     S
O63    C64     1.413   .     S
O63    C143    1.394   .     S
C64    C67     1.522   .     S
C64    H65     1.116   .     S
C64    H161    1.113   .     S
H66    C254    1.113   1_455 S
C67    H68     1.111   .     S
C67    H70     1.111   .     S
C67    H69     1.110   .     S
N71    O73     1.302   .     A
N71    C619    1.446   1_545 S
N71    O642    1.301   1_545 S
O72    N356    1.301   .     S
N74    O76     1.302   .     A
N74    O75     1.302   .     A
O77    C78     1.413   .     S
C78    H79     1.116   .     S
C78    H80     1.112   .     S
C78    C366    1.522   .     S
C81    H82     1.111   .     S
C81    H83     1.111   .     S
C81    C648    1.522   1_545 S
C81    H939    1.111   .     S
H84    C936    1.111   1_554 S
O85    C86     1.411   .     S
C86    H88     1.114   .     S
C86    H87     1.115   .     S
C86    C89     1.521   .     S
C89    H91     1.110   .     S
C89    H92     1.111   .     S
C89    H90     1.111   .     S
N93    O94     1.302   .     A
N93    O95     1.301   .     A
Zn96   O100    1.963   .     S
Zn96   O108    1.930   .     S
Zn96   O102    1.927   .     S
Zn96   O109    1.921   .     S
Zn97   O111    1.939   .     S
Zn97   O100    1.925   .     S
Zn97   O105    1.934   .     S
Zn97   O103    1.940   .     S
Zn98   O107    1.929   .     S
Zn98   O104    1.934   .     S
Zn98   O100    1.934   .     S
Zn98   O112    1.941   .     S
Zn99   O101    1.927   .     S
Zn99   O106    1.937   .     S
Zn99   O100    1.949   .     S
Zn99   O110    1.927   .     S
O101   C113    1.276   .     A
O102   C114    1.279   .     A
O103   C115    1.270   .     A
O104   C116    1.274   .     A
O105   C117    1.266   .     A
O106   C118    1.287   .     A
O107   C117    1.272   .     A
O108   C118    1.289   .     A
O109   C115    1.276   .     A
O110   C116    1.280   .     A
O111   C113    1.260   .     A
O112   C114    1.286   .     A
C113   C143    1.449   .     S
C114   C142    1.475   .     S
C115   C145    1.437   .     S
C116   C144    1.460   .     S
C117   C120    1.454   .     S
C118   C119    1.468   .     S
C119   C122    1.398   .     A
C119   C123    1.402   .     A
C120   C135    1.393   .     A
C120   C136    1.388   .     A
C121   C122    1.401   .     A
C121   O172    1.387   .     S
C121   C125    1.411   .     A
C122   H140    1.083   .     S
C123   C124    1.419   .     A
C123   O180    1.385   .     S
C124   C125    1.416   .     A
C124   C126    1.424   .     A
C125   C984    1.394   .     S
C126   C130    1.408   .     A
C126   C982    1.423   .     S
C127   C133    1.432   .     A
C127   C128    1.430   .     A
C127   C981    1.423   1_554 S
C128   N188    1.433   .     S
C128   C129    1.395   .     A
C129   H137    1.084   .     S
C129   C980    1.394   1_554 S
C130   C131    1.391   .     A
C130   H141    1.079   .     S
C131   N169    1.438   .     S
C131   C987    1.410   .     S
C132   C133    1.426   .     A
C132   C134    1.423   .     A
C132   C986    1.410   1_554 S
C133   C136    1.407   .     A
C134   N147    1.437   .     S
C134   C135    1.396   .     A
C135   H139    1.084   .     S
C136   H138    1.078   .     S
C142   C238    1.348   .     S
C142   O245    1.394   .     S
C144   C430    1.341   .     S
C144   N451    1.446   .     S
C145   C714    1.341   1_545 S
C145   H716    1.087   1_545 S
H146   C430    1.087   .     S
N147   O149    1.301   .     A
N147   O148    1.301   .     A
O150   C151    1.411   .     S
C151   C154    1.520   .     S
C151   H153    1.116   .     S
H152   C246    1.111   .     S
C154   H155    1.111   .     S
C154   H156    1.110   .     S
C154   H157    1.111   .     S
O158   C159    1.413   .     S
O158   C238    1.394   .     S
C159   C162    1.522   .     S
C159   H160    1.116   .     S
C159   H256    1.113   .     S
C162   H163    1.111   .     S
C162   H165    1.111   .     S
C162   H164    1.110   .     S
N166   O168    1.302   .     A
N166   C714    1.446   1_545 S
N166   O737    1.301   1_545 S
O167   N451    1.301   .     S
N169   O171    1.302   .     A
N169   O170    1.302   .     A
O172   C173    1.413   .     S
C173   H174    1.116   .     S
C173   H175    1.112   .     S
C173   C461    1.522   .     S
C176   H177    1.111   .     S
C176   H178    1.111   .     S
C176   C743    1.522   1_545 S
C176   H1034   1.111   .     S
H179   C1031   1.111   1_554 S
O180   C181    1.411   .     S
C181   H183    1.114   .     S
C181   H182    1.115   .     S
C181   C184    1.521   .     S
C184   H186    1.110   .     S
C184   H187    1.111   .     S
C184   H185    1.111   .     S
N188   O189    1.302   .     A
N188   O190    1.301   .     A
Zn191  O195    1.963   .     S
Zn191  O203    1.930   .     S
Zn191  O197    1.927   .     S
Zn191  O204    1.921   .     S
Zn192  O206    1.939   .     S
Zn192  O195    1.925   .     S
Zn192  O200    1.934   .     S
Zn192  O198    1.940   .     S
Zn193  O202    1.929   .     S
Zn193  O199    1.934   .     S
Zn193  O195    1.934   .     S
Zn193  O207    1.941   .     S
Zn194  O196    1.927   .     S
Zn194  O201    1.937   .     S
Zn194  O195    1.949   .     S
Zn194  O205    1.927   .     S
O196   C208    1.276   .     A
O197   C209    1.279   .     A
O198   C210    1.270   .     A
O199   C211    1.274   .     A
O200   C212    1.266   .     A
O201   C213    1.287   .     A
O202   C212    1.272   .     A
O203   C213    1.289   .     A
O204   C210    1.276   .     A
O205   C211    1.280   .     A
O206   C208    1.260   .     A
O207   C209    1.286   .     A
C208   C238    1.449   .     S
C209   C237    1.475   .     S
C210   C240    1.437   .     S
C211   C239    1.460   .     S
C212   C215    1.454   .     S
C213   C214    1.468   .     S
C214   C217    1.398   .     A
C214   C218    1.402   .     A
C215   C230    1.393   .     A
C215   C231    1.388   .     A
C216   C217    1.401   .     A
C216   O267    1.387   .     S
C216   C220    1.411   .     A
C217   H235    1.083   .     S
C218   C219    1.419   .     A
C218   O275    1.385   .     S
C219   C220    1.416   .     A
C219   C221    1.424   .     A
C220   C1079   1.394   .     S
C221   C225    1.408   .     A
C221   C1077   1.423   .     S
C222   C228    1.432   .     A
C222   C223    1.430   .     A
C222   C1076   1.423   1_554 S
C223   N283    1.433   .     S
C223   C224    1.395   .     A
C224   H232    1.084   .     S
C224   C1075   1.394   1_554 S
C225   C226    1.391   .     A
C225   H236    1.079   .     S
C226   N264    1.438   .     S
C226   C1082   1.410   .     S
C227   C228    1.426   .     A
C227   C229    1.423   .     A
C227   C1081   1.410   1_554 S
C228   C231    1.407   .     A
C229   N242    1.437   .     S
C229   C230    1.396   .     A
C230   H234    1.084   .     S
C231   H233    1.078   .     S
C237   C48     1.348   1_655 S
C237   O55     1.394   1_655 S
C239   C525    1.341   .     S
C239   N546    1.446   .     S
C240   C809    1.341   1_545 S
C240   H811    1.087   1_545 S
H241   C525    1.087   .     S
N242   O244    1.301   .     A
N242   O243    1.301   .     A
O245   C246    1.411   .     S
C246   C249    1.520   .     S
C246   H248    1.116   .     S
H247   C56     1.111   1_655 S
C249   H250    1.111   .     S
C249   H251    1.110   .     S
C249   H252    1.111   .     S
O253   C254    1.413   .     S
O253   C48     1.394   1_655 S
C254   C257    1.522   .     S
C254   H255    1.116   .     S
C254   H66     1.113   1_655 S
C257   H258    1.111   .     S
C257   H260    1.111   .     S
C257   H259    1.110   .     S
N261   O263    1.302   .     A
N261   C809    1.446   1_545 S
N261   O832    1.301   1_545 S
O262   N546    1.301   .     S
N264   O266    1.302   .     A
N264   O265    1.302   .     A
O267   C268    1.413   .     S
C268   H269    1.116   .     S
C268   H270    1.112   .     S
C268   C556    1.522   .     S
C271   H272    1.111   .     S
C271   H273    1.111   .     S
C271   C838    1.522   1_545 S
C271   H1129   1.111   .     S
H274   C1126   1.111   1_554 S
O275   C276    1.411   .     S
C276   H278    1.114   .     S
C276   H277    1.115   .     S
C276   C279    1.521   .     S
C279   H281    1.110   .     S
C279   H282    1.111   .     S
C279   H280    1.111   .     S
N283   O284    1.302   .     A
N283   O285    1.301   .     A
Zn286  O290    1.963   .     S
Zn286  O298    1.930   .     S
Zn286  O292    1.927   .     S
Zn286  O299    1.921   .     S
Zn287  O301    1.939   .     S
Zn287  O290    1.925   .     S
Zn287  O295    1.934   .     S
Zn287  O293    1.940   .     S
Zn288  O297    1.929   .     S
Zn288  O294    1.934   .     S
Zn288  O290    1.934   .     S
Zn288  O302    1.941   .     S
Zn289  O291    1.927   .     S
Zn289  O296    1.937   .     S
Zn289  O290    1.949   .     S
Zn289  O300    1.927   .     S
O291   C303    1.276   .     A
O292   C304    1.279   .     A
O293   C305    1.270   .     A
O294   C306    1.274   .     A
O295   C307    1.266   .     A
O296   C308    1.287   .     A
O297   C307    1.272   .     A
O298   C308    1.289   .     A
O299   C305    1.276   .     A
O300   C306    1.280   .     A
O301   C303    1.260   .     A
O302   C304    1.286   .     A
C303   C333    1.449   .     S
C304   C332    1.475   .     S
C305   C335    1.437   .     S
C306   C334    1.460   .     S
C307   C310    1.454   .     S
C308   C309    1.468   .     S
C309   C312    1.398   .     A
C309   C313    1.402   .     A
C310   C325    1.393   .     A
C310   C326    1.388   .     A
C311   C312    1.401   .     A
C311   O362    1.387   .     S
C311   C315    1.411   .     A
C312   H330    1.083   .     S
C313   C314    1.419   .     A
C313   O370    1.385   .     S
C314   C315    1.416   .     A
C314   C316    1.424   .     A
C315   C1174   1.394   .     S
C316   C320    1.408   .     A
C316   C1172   1.423   .     S
C317   C323    1.432   .     A
C317   C318    1.430   .     A
C317   C1171   1.423   1_554 S
C318   N378    1.433   .     S
C318   C319    1.395   .     A
C319   H327    1.084   .     S
C319   C1170   1.394   1_554 S
C320   C321    1.391   .     A
C320   H331    1.079   .     S
C321   N359    1.438   .     S
C321   C1177   1.410   .     S
C322   C323    1.426   .     A
C322   C324    1.423   .     A
C322   C1176   1.410   1_554 S
C323   C326    1.407   .     A
C324   N337    1.437   .     S
C324   C325    1.396   .     A
C325   H329    1.084   .     S
C326   H328    1.078   .     S
C332   C428    1.348   .     S
C332   O435    1.394   .     S
C333   C522    1.348   1_455 S
C333   O538    1.394   1_455 S
C334   C620    1.341   .     S
C334   N641    1.446   .     S
H336   C620    1.087   .     S
N337   O339    1.301   .     A
N337   O338    1.301   .     A
O340   C341    1.411   .     S
O340   C522    1.394   1_455 S
C341   C344    1.520   .     S
C341   H343    1.116   .     S
C341   H532    1.111   1_455 S
H342   C436    1.111   .     S
C344   H345    1.111   .     S
C344   H346    1.110   .     S
C344   H347    1.111   .     S
O348   C349    1.413   .     S
O348   C428    1.394   .     S
C349   C352    1.522   .     S
C349   H350    1.116   .     S
C349   H446    1.113   .     S
H351   C539    1.113   1_455 S
C352   H353    1.111   .     S
C352   H355    1.111   .     S
C352   H354    1.110   .     S
N356   O358    1.302   .     A
O357   N641    1.301   .     S
N359   O361    1.302   .     A
N359   O360    1.302   .     A
O362   C363    1.413   .     S
C363   H364    1.116   .     S
C363   H365    1.112   .     S
C363   C651    1.522   .     S
C366   H367    1.111   .     S
C366   H368    1.111   .     S
C366   H1224   1.111   .     S
H369   C1221   1.111   1_554 S
O370   C371    1.411   .     S
C371   H373    1.114   .     S
C371   H372    1.115   .     S
C371   C374    1.521   .     S
C374   H376    1.110   .     S
C374   H377    1.111   .     S
C374   H375    1.111   .     S
N378   O379    1.302   .     A
N378   O380    1.301   .     A
Zn381  O385    1.963   .     S
Zn381  O393    1.930   .     S
Zn381  O387    1.927   .     S
Zn381  O394    1.921   .     S
Zn382  O396    1.939   .     S
Zn382  O385    1.925   .     S
Zn382  O390    1.934   .     S
Zn382  O388    1.940   .     S
Zn383  O392    1.929   .     S
Zn383  O389    1.934   .     S
Zn383  O385    1.934   .     S
Zn383  O397    1.941   .     S
Zn384  O386    1.927   .     S
Zn384  O391    1.937   .     S
Zn384  O385    1.949   .     S
Zn384  O395    1.927   .     S
O386   C398    1.276   .     A
O387   C399    1.279   .     A
O388   C400    1.270   .     A
O389   C401    1.274   .     A
O390   C402    1.266   .     A
O391   C403    1.287   .     A
O392   C402    1.272   .     A
O393   C403    1.289   .     A
O394   C400    1.276   .     A
O395   C401    1.280   .     A
O396   C398    1.260   .     A
O397   C399    1.286   .     A
C398   C428    1.449   .     S
C399   C427    1.475   .     S
C400   C430    1.437   .     S
C401   C429    1.460   .     S
C402   C405    1.454   .     S
C403   C404    1.468   .     S
C404   C407    1.398   .     A
C404   C408    1.402   .     A
C405   C420    1.393   .     A
C405   C421    1.388   .     A
C406   C407    1.401   .     A
C406   O457    1.387   .     S
C406   C410    1.411   .     A
C407   H425    1.083   .     S
C408   C409    1.419   .     A
C408   O465    1.385   .     S
C409   C410    1.416   .     A
C409   C411    1.424   .     A
C410   C1269   1.394   .     S
C411   C415    1.408   .     A
C411   C1267   1.423   .     S
C412   C418    1.432   .     A
C412   C413    1.430   .     A
C412   C1266   1.423   1_554 S
C413   N473    1.433   .     S
C413   C414    1.395   .     A
C414   H422    1.084   .     S
C414   C1265   1.394   1_554 S
C415   C416    1.391   .     A
C415   H426    1.079   .     S
C416   N454    1.438   .     S
C416   C1272   1.410   .     S
C417   C418    1.426   .     A
C417   C419    1.423   .     A
C417   C1271   1.410   1_554 S
C418   C421    1.407   .     A
C419   N432    1.437   .     S
C419   C420    1.396   .     A
C420   H424    1.084   .     S
C421   H423    1.078   .     S
C427   C523    1.348   .     S
C427   O530    1.394   .     S
C429   C715    1.341   .     S
C429   N736    1.446   .     S
H431   C715    1.087   .     S
N432   O434    1.301   .     A
N432   O433    1.301   .     A
O435   C436    1.411   .     S
C436   C439    1.520   .     S
C436   H438    1.116   .     S
H437   C531    1.111   .     S
C439   H440    1.111   .     S
C439   H441    1.110   .     S
C439   H442    1.111   .     S
O443   C444    1.413   .     S
O443   C523    1.394   .     S
C444   C447    1.522   .     S
C444   H445    1.116   .     S
C444   H541    1.113   .     S
C447   H448    1.111   .     S
C447   H450    1.111   .     S
C447   H449    1.110   .     S
N451   O453    1.302   .     A
O452   N736    1.301   .     S
N454   O456    1.302   .     A
N454   O455    1.302   .     A
O457   C458    1.413   .     S
C458   H459    1.116   .     S
C458   H460    1.112   .     S
C458   C746    1.522   .     S
C461   H462    1.111   .     S
C461   H463    1.111   .     S
C461   H1319   1.111   .     S
H464   C1316   1.111   1_554 S
O465   C466    1.411   .     S
C466   H468    1.114   .     S
C466   H467    1.115   .     S
C466   C469    1.521   .     S
C469   H471    1.110   .     S
C469   H472    1.111   .     S
C469   H470    1.111   .     S
N473   O474    1.302   .     A
N473   O475    1.301   .     A
Zn476  O480    1.963   .     S
Zn476  O488    1.930   .     S
Zn476  O482    1.927   .     S
Zn476  O489    1.921   .     S
Zn477  O491    1.939   .     S
Zn477  O480    1.925   .     S
Zn477  O485    1.934   .     S
Zn477  O483    1.940   .     S
Zn478  O487    1.929   .     S
Zn478  O484    1.934   .     S
Zn478  O480    1.934   .     S
Zn478  O492    1.941   .     S
Zn479  O481    1.927   .     S
Zn479  O486    1.937   .     S
Zn479  O480    1.949   .     S
Zn479  O490    1.927   .     S
O481   C493    1.276   .     A
O482   C494    1.279   .     A
O483   C495    1.270   .     A
O484   C496    1.274   .     A
O485   C497    1.266   .     A
O486   C498    1.287   .     A
O487   C497    1.272   .     A
O488   C498    1.289   .     A
O489   C495    1.276   .     A
O490   C496    1.280   .     A
O491   C493    1.260   .     A
O492   C494    1.286   .     A
C493   C523    1.449   .     S
C494   C522    1.475   .     S
C495   C525    1.437   .     S
C496   C524    1.460   .     S
C497   C500    1.454   .     S
C498   C499    1.468   .     S
C499   C502    1.398   .     A
C499   C503    1.402   .     A
C500   C515    1.393   .     A
C500   C516    1.388   .     A
C501   C502    1.401   .     A
C501   O552    1.387   .     S
C501   C505    1.411   .     A
C502   H520    1.083   .     S
C503   C504    1.419   .     A
C503   O560    1.385   .     S
C504   C505    1.416   .     A
C504   C506    1.424   .     A
C505   C1364   1.394   .     S
C506   C510    1.408   .     A
C506   C1362   1.423   .     S
C507   C513    1.432   .     A
C507   C508    1.430   .     A
C507   C1361   1.423   1_554 S
C508   N568    1.433   .     S
C508   C509    1.395   .     A
C509   H517    1.084   .     S
C509   C1360   1.394   1_554 S
C510   C511    1.391   .     A
C510   H521    1.079   .     S
C511   N549    1.438   .     S
C511   C1367   1.410   .     S
C512   C513    1.426   .     A
C512   C514    1.423   .     A
C512   C1366   1.410   1_554 S
C513   C516    1.407   .     A
C514   N527    1.437   .     S
C514   C515    1.396   .     A
C515   H519    1.084   .     S
C516   H518    1.078   .     S
C522   C333    1.348   1_655 S
C522   O340    1.394   1_655 S
C524   C810    1.341   .     S
C524   N831    1.446   .     S
H526   C810    1.087   .     S
N527   O529    1.301   .     A
N527   O528    1.301   .     A
O530   C531    1.411   .     S
C531   C534    1.520   .     S
C531   H533    1.116   .     S
H532   C341    1.111   1_655 S
C534   H535    1.111   .     S
C534   H536    1.110   .     S
C534   H537    1.111   .     S
O538   C539    1.413   .     S
O538   C333    1.394   1_655 S
C539   C542    1.522   .     S
C539   H540    1.116   .     S
C539   H351    1.113   1_655 S
C542   H543    1.111   .     S
C542   H545    1.111   .     S
C542   H544    1.110   .     S
N546   O548    1.302   .     A
O547   N831    1.301   .     S
N549   O551    1.302   .     A
N549   O550    1.302   .     A
O552   C553    1.413   .     S
C553   H554    1.116   .     S
C553   H555    1.112   .     S
C553   C841    1.522   .     S
C556   H557    1.111   .     S
C556   H558    1.111   .     S
C556   H1414   1.111   .     S
H559   C1411   1.111   1_554 S
O560   C561    1.411   .     S
C561   H563    1.114   .     S
C561   H562    1.115   .     S
C561   C564    1.521   .     S
C564   H566    1.110   .     S
C564   H567    1.111   .     S
C564   H565    1.111   .     S
N568   O569    1.302   .     A
N568   O570    1.301   .     A
Zn571  O575    1.963   .     S
Zn571  O583    1.930   .     S
Zn571  O577    1.927   .     S
Zn571  O584    1.921   .     S
Zn572  O586    1.939   .     S
Zn572  O575    1.925   .     S
Zn572  O580    1.934   .     S
Zn572  O578    1.940   .     S
Zn573  O582    1.929   .     S
Zn573  O579    1.934   .     S
Zn573  O575    1.934   .     S
Zn573  O587    1.941   .     S
Zn574  O576    1.927   .     S
Zn574  O581    1.937   .     S
Zn574  O575    1.949   .     S
Zn574  O585    1.927   .     S
O576   C588    1.276   .     A
O577   C589    1.279   .     A
O578   C590    1.270   .     A
O579   C591    1.274   .     A
O580   C592    1.266   .     A
O581   C593    1.287   .     A
O582   C592    1.272   .     A
O583   C593    1.289   .     A
O584   C590    1.276   .     A
O585   C591    1.280   .     A
O586   C588    1.260   .     A
O587   C589    1.286   .     A
C588   C618    1.449   .     S
C589   C617    1.475   .     S
C590   C620    1.437   .     S
C591   C619    1.460   .     S
C592   C595    1.454   .     S
C593   C594    1.468   .     S
C594   C597    1.398   .     A
C594   C598    1.402   .     A
C595   C610    1.393   .     A
C595   C611    1.388   .     A
C596   C597    1.401   .     A
C596   O647    1.387   .     S
C596   C600    1.411   .     A
C597   H615    1.083   .     S
C598   C599    1.419   .     A
C598   O655    1.385   .     S
C599   C600    1.416   .     A
C599   C601    1.424   .     A
C600   C1459   1.394   .     S
C601   C605    1.408   .     A
C601   C1457   1.423   .     S
C602   C608    1.432   .     A
C602   C603    1.430   .     A
C602   C1456   1.423   1_554 S
C603   N663    1.433   .     S
C603   C604    1.395   .     A
C604   H612    1.084   .     S
C604   C1455   1.394   1_554 S
C605   C606    1.391   .     A
C605   H616    1.079   .     S
C606   N644    1.438   .     S
C606   C1462   1.410   .     S
C607   C608    1.426   .     A
C607   C609    1.423   .     A
C607   C1461   1.410   1_554 S
C608   C611    1.407   .     A
C609   N622    1.437   .     S
C609   C610    1.396   .     A
C610   H614    1.084   .     S
C611   H613    1.078   .     S
C617   C713    1.348   .     S
C617   O720    1.394   .     S
C618   C807    1.348   1_455 S
C618   O823    1.394   1_455 S
C619   C50     1.341   1_565 S
C619   N71     1.446   1_565 S
H621   C50     1.087   1_565 S
N622   O624    1.301   .     A
N622   O623    1.301   .     A
O625   C626    1.411   .     S
O625   C807    1.394   1_455 S
C626   C629    1.520   .     S
C626   H628    1.116   .     S
C626   H817    1.111   1_455 S
H627   C721    1.111   .     S
C629   H630    1.111   .     S
C629   H631    1.110   .     S
C629   H632    1.111   .     S
O633   C634    1.413   .     S
O633   C713    1.394   .     S
C634   C637    1.522   .     S
C634   H635    1.116   .     S
C634   H731    1.113   .     S
H636   C824    1.113   1_455 S
C637   H638    1.111   .     S
C637   H640    1.111   .     S
C637   H639    1.110   .     S
N641   O643    1.302   .     A
O642   N71     1.301   1_565 S
N644   O646    1.302   .     A
N644   O645    1.302   .     A
O647   C648    1.413   .     S
C648   H649    1.116   .     S
C648   H650    1.112   .     S
C648   C81     1.522   1_565 S
C651   H652    1.111   .     S
C651   H653    1.111   .     S
C651   H1509   1.111   .     S
H654   C1506   1.111   1_554 S
O655   C656    1.411   .     S
C656   H658    1.114   .     S
C656   H657    1.115   .     S
C656   C659    1.521   .     S
C659   H661    1.110   .     S
C659   H662    1.111   .     S
C659   H660    1.111   .     S
N663   O664    1.302   .     A
N663   O665    1.301   .     A
Zn666  O670    1.963   .     S
Zn666  O678    1.930   .     S
Zn666  O672    1.927   .     S
Zn666  O679    1.921   .     S
Zn667  O681    1.939   .     S
Zn667  O670    1.925   .     S
Zn667  O675    1.934   .     S
Zn667  O673    1.940   .     S
Zn668  O677    1.929   .     S
Zn668  O674    1.934   .     S
Zn668  O670    1.934   .     S
Zn668  O682    1.941   .     S
Zn669  O671    1.927   .     S
Zn669  O676    1.937   .     S
Zn669  O670    1.949   .     S
Zn669  O680    1.927   .     S
O671   C683    1.276   .     A
O672   C684    1.279   .     A
O673   C685    1.270   .     A
O674   C686    1.274   .     A
O675   C687    1.266   .     A
O676   C688    1.287   .     A
O677   C687    1.272   .     A
O678   C688    1.289   .     A
O679   C685    1.276   .     A
O680   C686    1.280   .     A
O681   C683    1.260   .     A
O682   C684    1.286   .     A
C683   C713    1.449   .     S
C684   C712    1.475   .     S
C685   C715    1.437   .     S
C686   C714    1.460   .     S
C687   C690    1.454   .     S
C688   C689    1.468   .     S
C689   C692    1.398   .     A
C689   C693    1.402   .     A
C690   C705    1.393   .     A
C690   C706    1.388   .     A
C691   C692    1.401   .     A
C691   O742    1.387   .     S
C691   C695    1.411   .     A
C692   H710    1.083   .     S
C693   C694    1.419   .     A
C693   O750    1.385   .     S
C694   C695    1.416   .     A
C694   C696    1.424   .     A
C695   C1554   1.394   .     S
C696   C700    1.408   .     A
C696   C1552   1.423   .     S
C697   C703    1.432   .     A
C697   C698    1.430   .     A
C697   C1551   1.423   1_554 S
C698   N758    1.433   .     S
C698   C699    1.395   .     A
C699   H707    1.084   .     S
C699   C1550   1.394   1_554 S
C700   C701    1.391   .     A
C700   H711    1.079   .     S
C701   N739    1.438   .     S
C701   C1557   1.410   .     S
C702   C703    1.426   .     A
C702   C704    1.423   .     A
C702   C1556   1.410   1_554 S
C703   C706    1.407   .     A
C704   N717    1.437   .     S
C704   C705    1.396   .     A
C705   H709    1.084   .     S
C706   H708    1.078   .     S
C712   C808    1.348   .     S
C712   O815    1.394   .     S
C714   C145    1.341   1_565 S
C714   N166    1.446   1_565 S
H716   C145    1.087   1_565 S
N717   O719    1.301   .     A
N717   O718    1.301   .     A
O720   C721    1.411   .     S
C721   C724    1.520   .     S
C721   H723    1.116   .     S
H722   C816    1.111   .     S
C724   H725    1.111   .     S
C724   H726    1.110   .     S
C724   H727    1.111   .     S
O728   C729    1.413   .     S
O728   C808    1.394   .     S
C729   C732    1.522   .     S
C729   H730    1.116   .     S
C729   H826    1.113   .     S
C732   H733    1.111   .     S
C732   H735    1.111   .     S
C732   H734    1.110   .     S
N736   O738    1.302   .     A
O737   N166    1.301   1_565 S
N739   O741    1.302   .     A
N739   O740    1.302   .     A
O742   C743    1.413   .     S
C743   H744    1.116   .     S
C743   H745    1.112   .     S
C743   C176    1.522   1_565 S
C746   H747    1.111   .     S
C746   H748    1.111   .     S
C746   H1604   1.111   .     S
H749   C1601   1.111   1_554 S
O750   C751    1.411   .     S
C751   H753    1.114   .     S
C751   H752    1.115   .     S
C751   C754    1.521   .     S
C754   H756    1.110   .     S
C754   H757    1.111   .     S
C754   H755    1.111   .     S
N758   O759    1.302   .     A
N758   O760    1.301   .     A
Zn761  O765    1.963   .     S
Zn761  O773    1.930   .     S
Zn761  O767    1.927   .     S
Zn761  O774    1.921   .     S
Zn762  O776    1.939   .     S
Zn762  O765    1.925   .     S
Zn762  O770    1.934   .     S
Zn762  O768    1.940   .     S
Zn763  O772    1.929   .     S
Zn763  O769    1.934   .     S
Zn763  O765    1.934   .     S
Zn763  O777    1.941   .     S
Zn764  O766    1.927   .     S
Zn764  O771    1.937   .     S
Zn764  O765    1.949   .     S
Zn764  O775    1.927   .     S
O766   C778    1.276   .     A
O767   C779    1.279   .     A
O768   C780    1.270   .     A
O769   C781    1.274   .     A
O770   C782    1.266   .     A
O771   C783    1.287   .     A
O772   C782    1.272   .     A
O773   C783    1.289   .     A
O774   C780    1.276   .     A
O775   C781    1.280   .     A
O776   C778    1.260   .     A
O777   C779    1.286   .     A
C778   C808    1.449   .     S
C779   C807    1.475   .     S
C780   C810    1.437   .     S
C781   C809    1.460   .     S
C782   C785    1.454   .     S
C783   C784    1.468   .     S
C784   C787    1.398   .     A
C784   C788    1.402   .     A
C785   C800    1.393   .     A
C785   C801    1.388   .     A
C786   C787    1.401   .     A
C786   O837    1.387   .     S
C786   C790    1.411   .     A
C787   H805    1.083   .     S
C788   C789    1.419   .     A
C788   O845    1.385   .     S
C789   C790    1.416   .     A
C789   C791    1.424   .     A
C790   C1649   1.394   .     S
C791   C795    1.408   .     A
C791   C1647   1.423   .     S
C792   C798    1.432   .     A
C792   C793    1.430   .     A
C792   C1646   1.423   1_554 S
C793   N853    1.433   .     S
C793   C794    1.395   .     A
C794   H802    1.084   .     S
C794   C1645   1.394   1_554 S
C795   C796    1.391   .     A
C795   H806    1.079   .     S
C796   N834    1.438   .     S
C796   C1652   1.410   .     S
C797   C798    1.426   .     A
C797   C799    1.423   .     A
C797   C1651   1.410   1_554 S
C798   C801    1.407   .     A
C799   N812    1.437   .     S
C799   C800    1.396   .     A
C800   H804    1.084   .     S
C801   H803    1.078   .     S
C807   C618    1.348   1_655 S
C807   O625    1.394   1_655 S
C809   C240    1.341   1_565 S
C809   N261    1.446   1_565 S
H811   C240    1.087   1_565 S
N812   O814    1.301   .     A
N812   O813    1.301   .     A
O815   C816    1.411   .     S
C816   C819    1.520   .     S
C816   H818    1.116   .     S
H817   C626    1.111   1_655 S
C819   H820    1.111   .     S
C819   H821    1.110   .     S
C819   H822    1.111   .     S
O823   C824    1.413   .     S
O823   C618    1.394   1_655 S
C824   C827    1.522   .     S
C824   H825    1.116   .     S
C824   H636    1.113   1_655 S
C827   H828    1.111   .     S
C827   H830    1.111   .     S
C827   H829    1.110   .     S
N831   O833    1.302   .     A
O832   N261    1.301   1_565 S
N834   O836    1.302   .     A
N834   O835    1.302   .     A
O837   C838    1.413   .     S
C838   H839    1.116   .     S
C838   H840    1.112   .     S
C838   C271    1.522   1_565 S
C841   H842    1.111   .     S
C841   H843    1.111   .     S
C841   H1699   1.111   .     S
H844   C1696   1.111   1_554 S
O845   C846    1.411   .     S
C846   H848    1.114   .     S
C846   H847    1.115   .     S
C846   C849    1.521   .     S
C849   H851    1.110   .     S
C849   H852    1.111   .     S
C849   H850    1.111   .     S
N853   O854    1.302   .     A
N853   O855    1.301   .     A
Zn856  O860    1.963   .     S
Zn856  O868    1.930   .     S
Zn856  O862    1.927   .     S
Zn856  O869    1.921   .     S
Zn857  O871    1.939   .     S
Zn857  O860    1.925   .     S
Zn857  O865    1.934   .     S
Zn857  O863    1.940   .     S
Zn858  O867    1.929   .     S
Zn858  O864    1.934   .     S
Zn858  O860    1.934   .     S
Zn858  O872    1.941   .     S
Zn859  O861    1.927   .     S
Zn859  O866    1.937   .     S
Zn859  O860    1.949   .     S
Zn859  O870    1.927   .     S
O861   C873    1.276   .     A
O862   C874    1.279   .     A
O863   C875    1.270   .     A
O864   C876    1.274   .     A
O865   C877    1.266   .     A
O866   C878    1.287   .     A
O867   C877    1.272   .     A
O868   C878    1.289   .     A
O869   C875    1.276   .     A
O870   C876    1.280   .     A
O871   C873    1.260   .     A
O872   C874    1.286   .     A
C873   C903    1.449   .     S
C874   C902    1.475   .     S
C875   C905    1.437   .     S
C876   C904    1.460   .     S
C877   C880    1.454   .     S
C878   C879    1.468   .     S
C879   C882    1.398   .     A
C879   C883    1.402   .     A
C880   C895    1.393   .     A
C880   C896    1.388   .     A
C881   C882    1.401   .     A
C881   O932    1.387   .     S
C881   C885    1.411   .     A
C882   H900    1.083   .     S
C883   C884    1.419   .     A
C883   O940    1.385   .     S
C884   C885    1.416   .     A
C884   C886    1.424   .     A
C885   C34     1.394   1_556 S
C886   C890    1.408   .     A
C886   C32     1.423   1_556 S
C887   C893    1.432   .     A
C887   C888    1.430   .     A
C888   N948    1.433   .     S
C888   C889    1.395   .     A
C889   H897    1.084   .     S
C890   C891    1.391   .     A
C890   H901    1.079   .     S
C891   N929    1.438   .     S
C891   C37     1.410   1_556 S
C892   C893    1.426   .     A
C892   C894    1.423   .     A
C893   C896    1.407   .     A
C894   N907    1.437   .     S
C894   C895    1.396   .     A
C895   H899    1.084   .     S
C896   H898    1.078   .     S
C902   C998    1.348   .     S
C902   O1005   1.394   .     S
C903   C1092   1.348   1_455 S
C903   O1108   1.394   1_455 S
C904   C1190   1.341   .     S
C904   N1211   1.446   .     S
C905   C1474   1.341   1_545 S
C905   H1476   1.087   1_545 S
H906   C1190   1.087   .     S
N907   O909    1.301   .     A
N907   O908    1.301   .     A
O910   C911    1.411   .     S
O910   C1092   1.394   1_455 S
C911   C914    1.520   .     S
C911   H913    1.116   .     S
C911   H1102   1.111   1_455 S
H912   C1006   1.111   .     S
C914   H915    1.111   .     S
C914   H916    1.110   .     S
C914   H917    1.111   .     S
O918   C919    1.413   .     S
O918   C998    1.394   .     S
C919   C922    1.522   .     S
C919   H920    1.116   .     S
C919   H1016   1.113   .     S
H921   C1109   1.113   1_455 S
C922   H923    1.111   .     S
C922   H925    1.111   .     S
C922   H924    1.110   .     S
N926   O928    1.302   .     A
N926   C1474   1.446   1_545 S
N926   O1497   1.301   1_545 S
O927   N1211   1.301   .     S
N929   O931    1.302   .     A
N929   O930    1.302   .     A
O932   C933    1.413   .     S
C933   H934    1.116   .     S
C933   H935    1.112   .     S
C933   C1221   1.522   .     S
C936   H937    1.111   .     S
C936   H938    1.111   .     S
C936   C1503   1.522   1_545 S
C936   H84     1.111   1_556 S
O940   C941    1.411   .     S
C941   H943    1.114   .     S
C941   H942    1.115   .     S
C941   C944    1.521   .     S
C944   H946    1.110   .     S
C944   H947    1.111   .     S
C944   H945    1.111   .     S
N948   O949    1.302   .     A
N948   O950    1.301   .     A
Zn951  O955    1.963   .     S
Zn951  O963    1.930   .     S
Zn951  O957    1.927   .     S
Zn951  O964    1.921   .     S
Zn952  O966    1.939   .     S
Zn952  O955    1.925   .     S
Zn952  O960    1.934   .     S
Zn952  O958    1.940   .     S
Zn953  O962    1.929   .     S
Zn953  O959    1.934   .     S
Zn953  O955    1.934   .     S
Zn953  O967    1.941   .     S
Zn954  O956    1.927   .     S
Zn954  O961    1.937   .     S
Zn954  O955    1.949   .     S
Zn954  O965    1.927   .     S
O956   C968    1.276   .     A
O957   C969    1.279   .     A
O958   C970    1.270   .     A
O959   C971    1.274   .     A
O960   C972    1.266   .     A
O961   C973    1.287   .     A
O962   C972    1.272   .     A
O963   C973    1.289   .     A
O964   C970    1.276   .     A
O965   C971    1.280   .     A
O966   C968    1.260   .     A
O967   C969    1.286   .     A
C968   C998    1.449   .     S
C969   C997    1.475   .     S
C970   C1000   1.437   .     S
C971   C999    1.460   .     S
C972   C975    1.454   .     S
C973   C974    1.468   .     S
C974   C977    1.398   .     A
C974   C978    1.402   .     A
C975   C990    1.393   .     A
C975   C991    1.388   .     A
C976   C977    1.401   .     A
C976   O1027   1.387   .     S
C976   C980    1.411   .     A
C977   H995    1.083   .     S
C978   C979    1.419   .     A
C978   O1035   1.385   .     S
C979   C980    1.416   .     A
C979   C981    1.424   .     A
C980   C129    1.394   1_556 S
C981   C985    1.408   .     A
C981   C127    1.423   1_556 S
C982   C988    1.432   .     A
C982   C983    1.430   .     A
C983   N1043   1.433   .     S
C983   C984    1.395   .     A
C984   H992    1.084   .     S
C985   C986    1.391   .     A
C985   H996    1.079   .     S
C986   N1024   1.438   .     S
C986   C132    1.410   1_556 S
C987   C988    1.426   .     A
C987   C989    1.423   .     A
C988   C991    1.407   .     A
C989   N1002   1.437   .     S
C989   C990    1.396   .     A
C990   H994    1.084   .     S
C991   H993    1.078   .     S
C997   C1093   1.348   .     S
C997   O1100   1.394   .     S
C999   C1285   1.341   .     S
C999   N1306   1.446   .     S
C1000  C1569   1.341   1_545 S
C1000  H1571   1.087   1_545 S
H1001  C1285   1.087   .     S
N1002  O1004   1.301   .     A
N1002  O1003   1.301   .     A
O1005  C1006   1.411   .     S
C1006  C1009   1.520   .     S
C1006  H1008   1.116   .     S
H1007  C1101   1.111   .     S
C1009  H1010   1.111   .     S
C1009  H1011   1.110   .     S
C1009  H1012   1.111   .     S
O1013  C1014   1.413   .     S
O1013  C1093   1.394   .     S
C1014  C1017   1.522   .     S
C1014  H1015   1.116   .     S
C1014  H1111   1.113   .     S
C1017  H1018   1.111   .     S
C1017  H1020   1.111   .     S
C1017  H1019   1.110   .     S
N1021  O1023   1.302   .     A
N1021  C1569   1.446   1_545 S
N1021  O1592   1.301   1_545 S
O1022  N1306   1.301   .     S
N1024  O1026   1.302   .     A
N1024  O1025   1.302   .     A
O1027  C1028   1.413   .     S
C1028  H1029   1.116   .     S
C1028  H1030   1.112   .     S
C1028  C1316   1.522   .     S
C1031  H1032   1.111   .     S
C1031  H1033   1.111   .     S
C1031  C1598   1.522   1_545 S
C1031  H179    1.111   1_556 S
O1035  C1036   1.411   .     S
C1036  H1038   1.114   .     S
C1036  H1037   1.115   .     S
C1036  C1039   1.521   .     S
C1039  H1041   1.110   .     S
C1039  H1042   1.111   .     S
C1039  H1040   1.111   .     S
N1043  O1044   1.302   .     A
N1043  O1045   1.301   .     A
Zn1046 O1050   1.963   .     S
Zn1046 O1058   1.930   .     S
Zn1046 O1052   1.927   .     S
Zn1046 O1059   1.921   .     S
Zn1047 O1061   1.939   .     S
Zn1047 O1050   1.925   .     S
Zn1047 O1055   1.934   .     S
Zn1047 O1053   1.940   .     S
Zn1048 O1057   1.929   .     S
Zn1048 O1054   1.934   .     S
Zn1048 O1050   1.934   .     S
Zn1048 O1062   1.941   .     S
Zn1049 O1051   1.927   .     S
Zn1049 O1056   1.937   .     S
Zn1049 O1050   1.949   .     S
Zn1049 O1060   1.927   .     S
O1051  C1063   1.276   .     A
O1052  C1064   1.279   .     A
O1053  C1065   1.270   .     A
O1054  C1066   1.274   .     A
O1055  C1067   1.266   .     A
O1056  C1068   1.287   .     A
O1057  C1067   1.272   .     A
O1058  C1068   1.289   .     A
O1059  C1065   1.276   .     A
O1060  C1066   1.280   .     A
O1061  C1063   1.260   .     A
O1062  C1064   1.286   .     A
C1063  C1093   1.449   .     S
C1064  C1092   1.475   .     S
C1065  C1095   1.437   .     S
C1066  C1094   1.460   .     S
C1067  C1070   1.454   .     S
C1068  C1069   1.468   .     S
C1069  C1072   1.398   .     A
C1069  C1073   1.402   .     A
C1070  C1085   1.393   .     A
C1070  C1086   1.388   .     A
C1071  C1072   1.401   .     A
C1071  O1122   1.387   .     S
C1071  C1075   1.411   .     A
C1072  H1090   1.083   .     S
C1073  C1074   1.419   .     A
C1073  O1130   1.385   .     S
C1074  C1075   1.416   .     A
C1074  C1076   1.424   .     A
C1075  C224    1.394   1_556 S
C1076  C1080   1.408   .     A
C1076  C222    1.423   1_556 S
C1077  C1083   1.432   .     A
C1077  C1078   1.430   .     A
C1078  N1138   1.433   .     S
C1078  C1079   1.395   .     A
C1079  H1087   1.084   .     S
C1080  C1081   1.391   .     A
C1080  H1091   1.079   .     S
C1081  N1119   1.438   .     S
C1081  C227    1.410   1_556 S
C1082  C1083   1.426   .     A
C1082  C1084   1.423   .     A
C1083  C1086   1.407   .     A
C1084  N1097   1.437   .     S
C1084  C1085   1.396   .     A
C1085  H1089   1.084   .     S
C1086  H1088   1.078   .     S
C1092  C903    1.348   1_655 S
C1092  O910    1.394   1_655 S
C1094  C1380   1.341   .     S
C1094  N1401   1.446   .     S
C1095  C1664   1.341   1_545 S
C1095  H1666   1.087   1_545 S
H1096  C1380   1.087   .     S
N1097  O1099   1.301   .     A
N1097  O1098   1.301   .     A
O1100  C1101   1.411   .     S
C1101  C1104   1.520   .     S
C1101  H1103   1.116   .     S
H1102  C911    1.111   1_655 S
C1104  H1105   1.111   .     S
C1104  H1106   1.110   .     S
C1104  H1107   1.111   .     S
O1108  C1109   1.413   .     S
O1108  C903    1.394   1_655 S
C1109  C1112   1.522   .     S
C1109  H1110   1.116   .     S
C1109  H921    1.113   1_655 S
C1112  H1113   1.111   .     S
C1112  H1115   1.111   .     S
C1112  H1114   1.110   .     S
N1116  O1118   1.302   .     A
N1116  C1664   1.446   1_545 S
N1116  O1687   1.301   1_545 S
O1117  N1401   1.301   .     S
N1119  O1121   1.302   .     A
N1119  O1120   1.302   .     A
O1122  C1123   1.413   .     S
C1123  H1124   1.116   .     S
C1123  H1125   1.112   .     S
C1123  C1411   1.522   .     S
C1126  H1127   1.111   .     S
C1126  H1128   1.111   .     S
C1126  C1693   1.522   1_545 S
C1126  H274    1.111   1_556 S
O1130  C1131   1.411   .     S
C1131  H1133   1.114   .     S
C1131  H1132   1.115   .     S
C1131  C1134   1.521   .     S
C1134  H1136   1.110   .     S
C1134  H1137   1.111   .     S
C1134  H1135   1.111   .     S
N1138  O1139   1.302   .     A
N1138  O1140   1.301   .     A
Zn1141 O1145   1.963   .     S
Zn1141 O1153   1.930   .     S
Zn1141 O1147   1.927   .     S
Zn1141 O1154   1.921   .     S
Zn1142 O1156   1.939   .     S
Zn1142 O1145   1.925   .     S
Zn1142 O1150   1.934   .     S
Zn1142 O1148   1.940   .     S
Zn1143 O1152   1.929   .     S
Zn1143 O1149   1.934   .     S
Zn1143 O1145   1.934   .     S
Zn1143 O1157   1.941   .     S
Zn1144 O1146   1.927   .     S
Zn1144 O1151   1.937   .     S
Zn1144 O1145   1.949   .     S
Zn1144 O1155   1.927   .     S
O1146  C1158   1.276   .     A
O1147  C1159   1.279   .     A
O1148  C1160   1.270   .     A
O1149  C1161   1.274   .     A
O1150  C1162   1.266   .     A
O1151  C1163   1.287   .     A
O1152  C1162   1.272   .     A
O1153  C1163   1.289   .     A
O1154  C1160   1.276   .     A
O1155  C1161   1.280   .     A
O1156  C1158   1.260   .     A
O1157  C1159   1.286   .     A
C1158  C1188   1.449   .     S
C1159  C1187   1.475   .     S
C1160  C1190   1.437   .     S
C1161  C1189   1.460   .     S
C1162  C1165   1.454   .     S
C1163  C1164   1.468   .     S
C1164  C1167   1.398   .     A
C1164  C1168   1.402   .     A
C1165  C1180   1.393   .     A
C1165  C1181   1.388   .     A
C1166  C1167   1.401   .     A
C1166  O1217   1.387   .     S
C1166  C1170   1.411   .     A
C1167  H1185   1.083   .     S
C1168  C1169   1.419   .     A
C1168  O1225   1.385   .     S
C1169  C1170   1.416   .     A
C1169  C1171   1.424   .     A
C1170  C319    1.394   1_556 S
C1171  C1175   1.408   .     A
C1171  C317    1.423   1_556 S
C1172  C1178   1.432   .     A
C1172  C1173   1.430   .     A
C1173  N1233   1.433   .     S
C1173  C1174   1.395   .     A
C1174  H1182   1.084   .     S
C1175  C1176   1.391   .     A
C1175  H1186   1.079   .     S
C1176  N1214   1.438   .     S
C1176  C322    1.410   1_556 S
C1177  C1178   1.426   .     A
C1177  C1179   1.423   .     A
C1178  C1181   1.407   .     A
C1179  N1192   1.437   .     S
C1179  C1180   1.396   .     A
C1180  H1184   1.084   .     S
C1181  H1183   1.078   .     S
C1187  C1283   1.348   .     S
C1187  O1290   1.394   .     S
C1188  C1377   1.348   1_455 S
C1188  O1393   1.394   1_455 S
C1189  C1475   1.341   .     S
C1189  N1496   1.446   .     S
H1191  C1475   1.087   .     S
N1192  O1194   1.301   .     A
N1192  O1193   1.301   .     A
O1195  C1196   1.411   .     S
O1195  C1377   1.394   1_455 S
C1196  C1199   1.520   .     S
C1196  H1198   1.116   .     S
C1196  H1387   1.111   1_455 S
H1197  C1291   1.111   .     S
C1199  H1200   1.111   .     S
C1199  H1201   1.110   .     S
C1199  H1202   1.111   .     S
O1203  C1204   1.413   .     S
O1203  C1283   1.394   .     S
C1204  C1207   1.522   .     S
C1204  H1205   1.116   .     S
C1204  H1301   1.113   .     S
H1206  C1394   1.113   1_455 S
C1207  H1208   1.111   .     S
C1207  H1210   1.111   .     S
C1207  H1209   1.110   .     S
N1211  O1213   1.302   .     A
O1212  N1496   1.301   .     S
N1214  O1216   1.302   .     A
N1214  O1215   1.302   .     A
O1217  C1218   1.413   .     S
C1218  H1219   1.116   .     S
C1218  H1220   1.112   .     S
C1218  C1506   1.522   .     S
C1221  H1222   1.111   .     S
C1221  H1223   1.111   .     S
C1221  H369    1.111   1_556 S
O1225  C1226   1.411   .     S
C1226  H1228   1.114   .     S
C1226  H1227   1.115   .     S
C1226  C1229   1.521   .     S
C1229  H1231   1.110   .     S
C1229  H1232   1.111   .     S
C1229  H1230   1.111   .     S
N1233  O1234   1.302   .     A
N1233  O1235   1.301   .     A
Zn1236 O1240   1.963   .     S
Zn1236 O1248   1.930   .     S
Zn1236 O1242   1.927   .     S
Zn1236 O1249   1.921   .     S
Zn1237 O1251   1.939   .     S
Zn1237 O1240   1.925   .     S
Zn1237 O1245   1.934   .     S
Zn1237 O1243   1.940   .     S
Zn1238 O1247   1.929   .     S
Zn1238 O1244   1.934   .     S
Zn1238 O1240   1.934   .     S
Zn1238 O1252   1.941   .     S
Zn1239 O1241   1.927   .     S
Zn1239 O1246   1.937   .     S
Zn1239 O1240   1.949   .     S
Zn1239 O1250   1.927   .     S
O1241  C1253   1.276   .     A
O1242  C1254   1.279   .     A
O1243  C1255   1.270   .     A
O1244  C1256   1.274   .     A
O1245  C1257   1.266   .     A
O1246  C1258   1.287   .     A
O1247  C1257   1.272   .     A
O1248  C1258   1.289   .     A
O1249  C1255   1.276   .     A
O1250  C1256   1.280   .     A
O1251  C1253   1.260   .     A
O1252  C1254   1.286   .     A
C1253  C1283   1.449   .     S
C1254  C1282   1.475   .     S
C1255  C1285   1.437   .     S
C1256  C1284   1.460   .     S
C1257  C1260   1.454   .     S
C1258  C1259   1.468   .     S
C1259  C1262   1.398   .     A
C1259  C1263   1.402   .     A
C1260  C1275   1.393   .     A
C1260  C1276   1.388   .     A
C1261  C1262   1.401   .     A
C1261  O1312   1.387   .     S
C1261  C1265   1.411   .     A
C1262  H1280   1.083   .     S
C1263  C1264   1.419   .     A
C1263  O1320   1.385   .     S
C1264  C1265   1.416   .     A
C1264  C1266   1.424   .     A
C1265  C414    1.394   1_556 S
C1266  C1270   1.408   .     A
C1266  C412    1.423   1_556 S
C1267  C1273   1.432   .     A
C1267  C1268   1.430   .     A
C1268  N1328   1.433   .     S
C1268  C1269   1.395   .     A
C1269  H1277   1.084   .     S
C1270  C1271   1.391   .     A
C1270  H1281   1.079   .     S
C1271  N1309   1.438   .     S
C1271  C417    1.410   1_556 S
C1272  C1273   1.426   .     A
C1272  C1274   1.423   .     A
C1273  C1276   1.407   .     A
C1274  N1287   1.437   .     S
C1274  C1275   1.396   .     A
C1275  H1279   1.084   .     S
C1276  H1278   1.078   .     S
C1282  C1378   1.348   .     S
C1282  O1385   1.394   .     S
C1284  C1570   1.341   .     S
C1284  N1591   1.446   .     S
H1286  C1570   1.087   .     S
N1287  O1289   1.301   .     A
N1287  O1288   1.301   .     A
O1290  C1291   1.411   .     S
C1291  C1294   1.520   .     S
C1291  H1293   1.116   .     S
H1292  C1386   1.111   .     S
C1294  H1295   1.111   .     S
C1294  H1296   1.110   .     S
C1294  H1297   1.111   .     S
O1298  C1299   1.413   .     S
O1298  C1378   1.394   .     S
C1299  C1302   1.522   .     S
C1299  H1300   1.116   .     S
C1299  H1396   1.113   .     S
C1302  H1303   1.111   .     S
C1302  H1305   1.111   .     S
C1302  H1304   1.110   .     S
N1306  O1308   1.302   .     A
O1307  N1591   1.301   .     S
N1309  O1311   1.302   .     A
N1309  O1310   1.302   .     A
O1312  C1313   1.413   .     S
C1313  H1314   1.116   .     S
C1313  H1315   1.112   .     S
C1313  C1601   1.522   .     S
C1316  H1317   1.111   .     S
C1316  H1318   1.111   .     S
C1316  H464    1.111   1_556 S
O1320  C1321   1.411   .     S
C1321  H1323   1.114   .     S
C1321  H1322   1.115   .     S
C1321  C1324   1.521   .     S
C1324  H1326   1.110   .     S
C1324  H1327   1.111   .     S
C1324  H1325   1.111   .     S
N1328  O1329   1.302   .     A
N1328  O1330   1.301   .     A
Zn1331 O1335   1.963   .     S
Zn1331 O1343   1.930   .     S
Zn1331 O1337   1.927   .     S
Zn1331 O1344   1.921   .     S
Zn1332 O1346   1.939   .     S
Zn1332 O1335   1.925   .     S
Zn1332 O1340   1.934   .     S
Zn1332 O1338   1.940   .     S
Zn1333 O1342   1.929   .     S
Zn1333 O1339   1.934   .     S
Zn1333 O1335   1.934   .     S
Zn1333 O1347   1.941   .     S
Zn1334 O1336   1.927   .     S
Zn1334 O1341   1.937   .     S
Zn1334 O1335   1.949   .     S
Zn1334 O1345   1.927   .     S
O1336  C1348   1.276   .     A
O1337  C1349   1.279   .     A
O1338  C1350   1.270   .     A
O1339  C1351   1.274   .     A
O1340  C1352   1.266   .     A
O1341  C1353   1.287   .     A
O1342  C1352   1.272   .     A
O1343  C1353   1.289   .     A
O1344  C1350   1.276   .     A
O1345  C1351   1.280   .     A
O1346  C1348   1.260   .     A
O1347  C1349   1.286   .     A
C1348  C1378   1.449   .     S
C1349  C1377   1.475   .     S
C1350  C1380   1.437   .     S
C1351  C1379   1.460   .     S
C1352  C1355   1.454   .     S
C1353  C1354   1.468   .     S
C1354  C1357   1.398   .     A
C1354  C1358   1.402   .     A
C1355  C1370   1.393   .     A
C1355  C1371   1.388   .     A
C1356  C1357   1.401   .     A
C1356  O1407   1.387   .     S
C1356  C1360   1.411   .     A
C1357  H1375   1.083   .     S
C1358  C1359   1.419   .     A
C1358  O1415   1.385   .     S
C1359  C1360   1.416   .     A
C1359  C1361   1.424   .     A
C1360  C509    1.394   1_556 S
C1361  C1365   1.408   .     A
C1361  C507    1.423   1_556 S
C1362  C1368   1.432   .     A
C1362  C1363   1.430   .     A
C1363  N1423   1.433   .     S
C1363  C1364   1.395   .     A
C1364  H1372   1.084   .     S
C1365  C1366   1.391   .     A
C1365  H1376   1.079   .     S
C1366  N1404   1.438   .     S
C1366  C512    1.410   1_556 S
C1367  C1368   1.426   .     A
C1367  C1369   1.423   .     A
C1368  C1371   1.407   .     A
C1369  N1382   1.437   .     S
C1369  C1370   1.396   .     A
C1370  H1374   1.084   .     S
C1371  H1373   1.078   .     S
C1377  C1188   1.348   1_655 S
C1377  O1195   1.394   1_655 S
C1379  C1665   1.341   .     S
C1379  N1686   1.446   .     S
H1381  C1665   1.087   .     S
N1382  O1384   1.301   .     A
N1382  O1383   1.301   .     A
O1385  C1386   1.411   .     S
C1386  C1389   1.520   .     S
C1386  H1388   1.116   .     S
H1387  C1196   1.111   1_655 S
C1389  H1390   1.111   .     S
C1389  H1391   1.110   .     S
C1389  H1392   1.111   .     S
O1393  C1394   1.413   .     S
O1393  C1188   1.394   1_655 S
C1394  C1397   1.522   .     S
C1394  H1395   1.116   .     S
C1394  H1206   1.113   1_655 S
C1397  H1398   1.111   .     S
C1397  H1400   1.111   .     S
C1397  H1399   1.110   .     S
N1401  O1403   1.302   .     A
O1402  N1686   1.301   .     S
N1404  O1406   1.302   .     A
N1404  O1405   1.302   .     A
O1407  C1408   1.413   .     S
C1408  H1409   1.116   .     S
C1408  H1410   1.112   .     S
C1408  C1696   1.522   .     S
C1411  H1412   1.111   .     S
C1411  H1413   1.111   .     S
C1411  H559    1.111   1_556 S
O1415  C1416   1.411   .     S
C1416  H1418   1.114   .     S
C1416  H1417   1.115   .     S
C1416  C1419   1.521   .     S
C1419  H1421   1.110   .     S
C1419  H1422   1.111   .     S
C1419  H1420   1.111   .     S
N1423  O1424   1.302   .     A
N1423  O1425   1.301   .     A
Zn1426 O1430   1.963   .     S
Zn1426 O1438   1.930   .     S
Zn1426 O1432   1.927   .     S
Zn1426 O1439   1.921   .     S
Zn1427 O1441   1.939   .     S
Zn1427 O1430   1.925   .     S
Zn1427 O1435   1.934   .     S
Zn1427 O1433   1.940   .     S
Zn1428 O1437   1.929   .     S
Zn1428 O1434   1.934   .     S
Zn1428 O1430   1.934   .     S
Zn1428 O1442   1.941   .     S
Zn1429 O1431   1.927   .     S
Zn1429 O1436   1.937   .     S
Zn1429 O1430   1.949   .     S
Zn1429 O1440   1.927   .     S
O1431  C1443   1.276   .     A
O1432  C1444   1.279   .     A
O1433  C1445   1.270   .     A
O1434  C1446   1.274   .     A
O1435  C1447   1.266   .     A
O1436  C1448   1.287   .     A
O1437  C1447   1.272   .     A
O1438  C1448   1.289   .     A
O1439  C1445   1.276   .     A
O1440  C1446   1.280   .     A
O1441  C1443   1.260   .     A
O1442  C1444   1.286   .     A
C1443  C1473   1.449   .     S
C1444  C1472   1.475   .     S
C1445  C1475   1.437   .     S
C1446  C1474   1.460   .     S
C1447  C1450   1.454   .     S
C1448  C1449   1.468   .     S
C1449  C1452   1.398   .     A
C1449  C1453   1.402   .     A
C1450  C1465   1.393   .     A
C1450  C1466   1.388   .     A
C1451  C1452   1.401   .     A
C1451  O1502   1.387   .     S
C1451  C1455   1.411   .     A
C1452  H1470   1.083   .     S
C1453  C1454   1.419   .     A
C1453  O1510   1.385   .     S
C1454  C1455   1.416   .     A
C1454  C1456   1.424   .     A
C1455  C604    1.394   1_556 S
C1456  C1460   1.408   .     A
C1456  C602    1.423   1_556 S
C1457  C1463   1.432   .     A
C1457  C1458   1.430   .     A
C1458  N1518   1.433   .     S
C1458  C1459   1.395   .     A
C1459  H1467   1.084   .     S
C1460  C1461   1.391   .     A
C1460  H1471   1.079   .     S
C1461  N1499   1.438   .     S
C1461  C607    1.410   1_556 S
C1462  C1463   1.426   .     A
C1462  C1464   1.423   .     A
C1463  C1466   1.407   .     A
C1464  N1477   1.437   .     S
C1464  C1465   1.396   .     A
C1465  H1469   1.084   .     S
C1466  H1468   1.078   .     S
C1472  C1568   1.348   .     S
C1472  O1575   1.394   .     S
C1473  C1662   1.348   1_455 S
C1473  O1678   1.394   1_455 S
C1474  C905    1.341   1_565 S
C1474  N926    1.446   1_565 S
H1476  C905    1.087   1_565 S
N1477  O1479   1.301   .     A
N1477  O1478   1.301   .     A
O1480  C1481   1.411   .     S
O1480  C1662   1.394   1_455 S
C1481  C1484   1.520   .     S
C1481  H1483   1.116   .     S
C1481  H1672   1.111   1_455 S
H1482  C1576   1.111   .     S
C1484  H1485   1.111   .     S
C1484  H1486   1.110   .     S
C1484  H1487   1.111   .     S
O1488  C1489   1.413   .     S
O1488  C1568   1.394   .     S
C1489  C1492   1.522   .     S
C1489  H1490   1.116   .     S
C1489  H1586   1.113   .     S
H1491  C1679   1.113   1_455 S
C1492  H1493   1.111   .     S
C1492  H1495   1.111   .     S
C1492  H1494   1.110   .     S
N1496  O1498   1.302   .     A
O1497  N926    1.301   1_565 S
N1499  O1501   1.302   .     A
N1499  O1500   1.302   .     A
O1502  C1503   1.413   .     S
C1503  H1504   1.116   .     S
C1503  H1505   1.112   .     S
C1503  C936    1.522   1_565 S
C1506  H1507   1.111   .     S
C1506  H1508   1.111   .     S
C1506  H654    1.111   1_556 S
O1510  C1511   1.411   .     S
C1511  H1513   1.114   .     S
C1511  H1512   1.115   .     S
C1511  C1514   1.521   .     S
C1514  H1516   1.110   .     S
C1514  H1517   1.111   .     S
C1514  H1515   1.111   .     S
N1518  O1519   1.302   .     A
N1518  O1520   1.301   .     A
Zn1521 O1525   1.963   .     S
Zn1521 O1533   1.930   .     S
Zn1521 O1527   1.927   .     S
Zn1521 O1534   1.921   .     S
Zn1522 O1536   1.939   .     S
Zn1522 O1525   1.925   .     S
Zn1522 O1530   1.934   .     S
Zn1522 O1528   1.940   .     S
Zn1523 O1532   1.929   .     S
Zn1523 O1529   1.934   .     S
Zn1523 O1525   1.934   .     S
Zn1523 O1537   1.941   .     S
Zn1524 O1526   1.927   .     S
Zn1524 O1531   1.937   .     S
Zn1524 O1525   1.949   .     S
Zn1524 O1535   1.927   .     S
O1526  C1538   1.276   .     A
O1527  C1539   1.279   .     A
O1528  C1540   1.270   .     A
O1529  C1541   1.274   .     A
O1530  C1542   1.266   .     A
O1531  C1543   1.287   .     A
O1532  C1542   1.272   .     A
O1533  C1543   1.289   .     A
O1534  C1540   1.276   .     A
O1535  C1541   1.280   .     A
O1536  C1538   1.260   .     A
O1537  C1539   1.286   .     A
C1538  C1568   1.449   .     S
C1539  C1567   1.475   .     S
C1540  C1570   1.437   .     S
C1541  C1569   1.460   .     S
C1542  C1545   1.454   .     S
C1543  C1544   1.468   .     S
C1544  C1547   1.398   .     A
C1544  C1548   1.402   .     A
C1545  C1560   1.393   .     A
C1545  C1561   1.388   .     A
C1546  C1547   1.401   .     A
C1546  O1597   1.387   .     S
C1546  C1550   1.411   .     A
C1547  H1565   1.083   .     S
C1548  C1549   1.419   .     A
C1548  O1605   1.385   .     S
C1549  C1550   1.416   .     A
C1549  C1551   1.424   .     A
C1550  C699    1.394   1_556 S
C1551  C1555   1.408   .     A
C1551  C697    1.423   1_556 S
C1552  C1558   1.432   .     A
C1552  C1553   1.430   .     A
C1553  N1613   1.433   .     S
C1553  C1554   1.395   .     A
C1554  H1562   1.084   .     S
C1555  C1556   1.391   .     A
C1555  H1566   1.079   .     S
C1556  N1594   1.438   .     S
C1556  C702    1.410   1_556 S
C1557  C1558   1.426   .     A
C1557  C1559   1.423   .     A
C1558  C1561   1.407   .     A
C1559  N1572   1.437   .     S
C1559  C1560   1.396   .     A
C1560  H1564   1.084   .     S
C1561  H1563   1.078   .     S
C1567  C1663   1.348   .     S
C1567  O1670   1.394   .     S
C1569  C1000   1.341   1_565 S
C1569  N1021   1.446   1_565 S
H1571  C1000   1.087   1_565 S
N1572  O1574   1.301   .     A
N1572  O1573   1.301   .     A
O1575  C1576   1.411   .     S
C1576  C1579   1.520   .     S
C1576  H1578   1.116   .     S
H1577  C1671   1.111   .     S
C1579  H1580   1.111   .     S
C1579  H1581   1.110   .     S
C1579  H1582   1.111   .     S
O1583  C1584   1.413   .     S
O1583  C1663   1.394   .     S
C1584  C1587   1.522   .     S
C1584  H1585   1.116   .     S
C1584  H1681   1.113   .     S
C1587  H1588   1.111   .     S
C1587  H1590   1.111   .     S
C1587  H1589   1.110   .     S
N1591  O1593   1.302   .     A
O1592  N1021   1.301   1_565 S
N1594  O1596   1.302   .     A
N1594  O1595   1.302   .     A
O1597  C1598   1.413   .     S
C1598  H1599   1.116   .     S
C1598  H1600   1.112   .     S
C1598  C1031   1.522   1_565 S
C1601  H1602   1.111   .     S
C1601  H1603   1.111   .     S
C1601  H749    1.111   1_556 S
O1605  C1606   1.411   .     S
C1606  H1608   1.114   .     S
C1606  H1607   1.115   .     S
C1606  C1609   1.521   .     S
C1609  H1611   1.110   .     S
C1609  H1612   1.111   .     S
C1609  H1610   1.111   .     S
N1613  O1614   1.302   .     A
N1613  O1615   1.301   .     A
Zn1616 O1620   1.963   .     S
Zn1616 O1628   1.930   .     S
Zn1616 O1622   1.927   .     S
Zn1616 O1629   1.921   .     S
Zn1617 O1631   1.939   .     S
Zn1617 O1620   1.925   .     S
Zn1617 O1625   1.934   .     S
Zn1617 O1623   1.940   .     S
Zn1618 O1627   1.929   .     S
Zn1618 O1624   1.934   .     S
Zn1618 O1620   1.934   .     S
Zn1618 O1632   1.941   .     S
Zn1619 O1621   1.927   .     S
Zn1619 O1626   1.937   .     S
Zn1619 O1620   1.949   .     S
Zn1619 O1630   1.927   .     S
O1621  C1633   1.276   .     A
O1622  C1634   1.279   .     A
O1623  C1635   1.270   .     A
O1624  C1636   1.274   .     A
O1625  C1637   1.266   .     A
O1626  C1638   1.287   .     A
O1627  C1637   1.272   .     A
O1628  C1638   1.289   .     A
O1629  C1635   1.276   .     A
O1630  C1636   1.280   .     A
O1631  C1633   1.260   .     A
O1632  C1634   1.286   .     A
C1633  C1663   1.449   .     S
C1634  C1662   1.475   .     S
C1635  C1665   1.437   .     S
C1636  C1664   1.460   .     S
C1637  C1640   1.454   .     S
C1638  C1639   1.468   .     S
C1639  C1642   1.398   .     A
C1639  C1643   1.402   .     A
C1640  C1655   1.393   .     A
C1640  C1656   1.388   .     A
C1641  C1642   1.401   .     A
C1641  O1692   1.387   .     S
C1641  C1645   1.411   .     A
C1642  H1660   1.083   .     S
C1643  C1644   1.419   .     A
C1643  O1700   1.385   .     S
C1644  C1645   1.416   .     A
C1644  C1646   1.424   .     A
C1645  C794    1.394   1_556 S
C1646  C1650   1.408   .     A
C1646  C792    1.423   1_556 S
C1647  C1653   1.432   .     A
C1647  C1648   1.430   .     A
C1648  N1708   1.433   .     S
C1648  C1649   1.395   .     A
C1649  H1657   1.084   .     S
C1650  C1651   1.391   .     A
C1650  H1661   1.079   .     S
C1651  N1689   1.438   .     S
C1651  C797    1.410   1_556 S
C1652  C1653   1.426   .     A
C1652  C1654   1.423   .     A
C1653  C1656   1.407   .     A
C1654  N1667   1.437   .     S
C1654  C1655   1.396   .     A
C1655  H1659   1.084   .     S
C1656  H1658   1.078   .     S
C1662  C1473   1.348   1_655 S
C1662  O1480   1.394   1_655 S
C1664  C1095   1.341   1_565 S
C1664  N1116   1.446   1_565 S
H1666  C1095   1.087   1_565 S
N1667  O1669   1.301   .     A
N1667  O1668   1.301   .     A
O1670  C1671   1.411   .     S
C1671  C1674   1.520   .     S
C1671  H1673   1.116   .     S
H1672  C1481   1.111   1_655 S
C1674  H1675   1.111   .     S
C1674  H1676   1.110   .     S
C1674  H1677   1.111   .     S
O1678  C1679   1.413   .     S
O1678  C1473   1.394   1_655 S
C1679  C1682   1.522   .     S
C1679  H1680   1.116   .     S
C1679  H1491   1.113   1_655 S
C1682  H1683   1.111   .     S
C1682  H1685   1.111   .     S
C1682  H1684   1.110   .     S
N1686  O1688   1.302   .     A
O1687  N1116   1.301   1_565 S
N1689  O1691   1.302   .     A
N1689  O1690   1.302   .     A
O1692  C1693   1.413   .     S
C1693  H1694   1.116   .     S
C1693  H1695   1.112   .     S
C1693  C1126   1.522   1_565 S
C1696  H1697   1.111   .     S
C1696  H1698   1.111   .     S
C1696  H844    1.111   1_556 S
O1700  C1701   1.411   .     S
C1701  H1703   1.114   .     S
C1701  H1702   1.115   .     S
C1701  C1704   1.521   .     S
C1704  H1706   1.110   .     S
C1704  H1707   1.111   .     S
C1704  H1705   1.111   .     S
N1708  O1709   1.302   .     A
N1708  O1710   1.301   .     A
