data_str_m1_o10_o16_pcu_sym.120
_audit_creation_date              2020-01-03
_audit_creation_method            'Materials Studio'
_symmetry_space_group_name_H-M    'P1'
_symmetry_Int_Tables_number       1
_symmetry_cell_setting            triclinic
loop_
_symmetry_equiv_pos_as_xyz
  x,y,z
_cell_length_a                    32.5189
_cell_length_b                    32.4957
_cell_length_c                    31.0957
_cell_angle_alpha                 96.1991
_cell_angle_beta                  74.4662
_cell_angle_gamma                 98.4258
loop_
_atom_site_label
_atom_site_type_symbol
_atom_site_fract_x
_atom_site_fract_y
_atom_site_fract_z
_atom_site_U_iso_or_equiv
_atom_site_adp_type
_atom_site_occupancy
C1     C     0.05276   0.15977   0.26001   0.00000  Uiso   1.00
C2     C     0.16530   0.15276   0.05989   0.00000  Uiso   1.00
C3     C     0.23553   0.13390   0.05636   0.00000  Uiso   1.00
C4     C     0.28085   0.17382   0.23992   0.00000  Uiso   1.00
C5     C     0.13593   0.18705   0.42062   0.00000  Uiso   1.00
C6     C     0.32679   0.17634   0.23556   0.00000  Uiso   1.00
C7     C     0.00744   0.15757   0.26411   0.00000  Uiso   1.00
C8     C     0.18052   0.32254   0.23628   0.00000  Uiso   1.00
C9     C     0.15208   0.01179   0.26402   0.00000  Uiso   1.00
C10    C     0.15623   0.05590   0.26019   0.00000  Uiso   1.00
C11    C     0.17663   0.27796   0.24011   0.00000  Uiso   1.00
C12    C     0.07671   0.18128   0.48708   0.00000  Uiso   1.00
C13    C     0.18561   0.14831   0.12939   0.00000  Uiso   1.00
C14    C     0.14857   0.18472   0.37103   0.00000  Uiso   1.00
C15    C     0.24791   0.13792   0.01057   0.00000  Uiso   1.00
C16    C     0.19462   0.14230   0.08106   0.00000  Uiso   1.00
C17    C     0.09324   0.19319   0.44337   0.00000  Uiso   1.00
C18    C     0.04817   0.24081   0.43978   0.00000  Uiso   1.00
C19    C     0.33250   0.23300   0.44926   0.00000  Uiso   1.00
C20    C     0.31185   0.27224   0.46966   0.00000  Uiso   1.00
C21    C     0.07030   0.10441   0.03945   0.00000  Uiso   1.00
C22    C     0.04850   0.08420   0.08332   0.00000  Uiso   1.00
C23    C     0.10210   0.16532   0.00934   0.00000  Uiso   1.00
C24    C     0.03561   0.03752   0.07512   0.00000  Uiso   1.00
C25    C     0.14724   0.16608   0.49006   0.00000  Uiso   1.00
C26    C     0.16387   0.17663   0.44480   0.00000  Uiso   1.00
C27    C     0.17629   0.15541   0.01319   0.00000  Uiso   1.00
C28    C     0.21936   0.15033   0.48922   0.00000  Uiso   1.00
C29    C     0.23462   0.16064   0.44508   0.00000  Uiso   1.00
C30    C     0.20810   0.17599   0.42422   0.00000  Uiso   1.00
H31    H     0.25865   0.12661   0.07296   0.00000  Uiso   1.00
H32    H     0.01599   0.19347   0.20904   0.00000  Uiso   1.00
H33    H     0.06039   0.26495   0.41515   0.00000  Uiso   1.00
H34    H     0.05731   0.25391   0.47114   0.00000  Uiso   1.00
H35    H     0.32332   0.22248   0.41751   0.00000  Uiso   1.00
H36    H     0.32006   0.20799   0.47281   0.00000  Uiso   1.00
H37    H     0.31984   0.28285   0.00197   0.00000  Uiso   1.00
H38    H     0.27635   0.26535   0.47593   0.00000  Uiso   1.00
H39    H     0.32331   0.29758   0.44641   0.00000  Uiso   1.00
H40    H     0.09959   0.08912   0.02257   0.00000  Uiso   1.00
H41    H     0.04754   0.09935   0.01764   0.00000  Uiso   1.00
H42    H     0.31888   0.14070   0.29119   0.00000  Uiso   1.00
H43    H     0.07091   0.08903   0.10537   0.00000  Uiso   1.00
H44    H     0.01930   0.09923   0.10067   0.00000  Uiso   1.00
H45    H     0.01264   0.03198   0.05372   0.00000  Uiso   1.00
H46    H     0.01986   0.02381   0.10759   0.00000  Uiso   1.00
H47    H     0.06445   0.02171   0.05853   0.00000  Uiso   1.00
H48    H     0.20675   0.00377   0.21071   0.00000  Uiso   1.00
H49    H     0.12558   0.33135   0.28980   0.00000  Uiso   1.00
H50    H     0.26792   0.15879   0.42722   0.00000  Uiso   1.00
H51    H     0.28054   0.13341   0.49225   0.00000  Uiso   1.00
H52    H     0.13617   0.16306   0.08131   0.00000  Uiso   1.00
H53    H     0.04273   0.18154   0.00288   0.00000  Uiso   1.00
H54    H     0.22301   0.18747   0.39162   0.00000  Uiso   1.00
O55    O     0.16667   0.16667   0.25000   0.00000  Uiso   1.00
O56    O     0.15451   0.12637   0.15459   0.00000  Uiso   1.00
O57    O     0.12940   0.20391   0.34968   0.00000  Uiso   1.00
O58    O     0.20824   0.17759   0.14606   0.00000  Uiso   1.00
O59    O     0.17451   0.15880   0.34968   0.00000  Uiso   1.00
O60    O     0.06557   0.20356   0.42035   0.00000  Uiso   1.00
O61    O     0.08126   0.14748   0.04897   0.00000  Uiso   1.00
O62    O     0.17930   0.08019   0.28214   0.00000  Uiso   1.00
O63    O     0.14632   0.26085   0.27014   0.00000  Uiso   1.00
O64    O     0.07412   0.13291   0.23413   0.00000  Uiso   1.00
O65    O     0.26693   0.19272   0.21361   0.00000  Uiso   1.00
O66    O     0.07071   0.18878   0.28213   0.00000  Uiso   1.00
O67    O     0.25491   0.15226   0.27014   0.00000  Uiso   1.00
O68    O     0.13760   0.06944   0.23413   0.00000  Uiso   1.00
O69    O     0.20345   0.25620   0.21361   0.00000  Uiso   1.00
Zn70   Zn    0.19338   0.13994   0.28734   0.00000  Uiso   1.00
Zn71   Zn    0.13379   0.12458   0.21876   0.00000  Uiso   1.00
Zn72   Zn    0.21056   0.19775   0.20657   0.00000  Uiso   1.00
Zn73   Zn    0.12893   0.20439   0.28734   0.00000  Uiso   1.00
C74    C     0.38610   0.15977   0.26001   0.00000  Uiso   1.00
C75    C     0.49863   0.15276   0.05989   0.00000  Uiso   1.00
C76    C     0.56886   0.13390   0.05636   0.00000  Uiso   1.00
C77    C     0.61418   0.17382   0.23992   0.00000  Uiso   1.00
C78    C     0.46926   0.18705   0.42062   0.00000  Uiso   1.00
C79    C     0.66013   0.17634   0.23556   0.00000  Uiso   1.00
C80    C     0.34077   0.15757   0.26411   0.00000  Uiso   1.00
C81    C     0.51385   0.32254   0.23628   0.00000  Uiso   1.00
C82    C     0.48541   0.01179   0.26402   0.00000  Uiso   1.00
C83    C     0.48957   0.05590   0.26019   0.00000  Uiso   1.00
C84    C     0.50997   0.27796   0.24011   0.00000  Uiso   1.00
C85    C     0.41004   0.18128   0.48708   0.00000  Uiso   1.00
C86    C     0.51894   0.14831   0.12939   0.00000  Uiso   1.00
C87    C     0.48191   0.18472   0.37103   0.00000  Uiso   1.00
C88    C     0.58124   0.13792   0.01057   0.00000  Uiso   1.00
C89    C     0.52795   0.14230   0.08106   0.00000  Uiso   1.00
C90    C     0.42658   0.19319   0.44337   0.00000  Uiso   1.00
C91    C     0.38150   0.24081   0.43978   0.00000  Uiso   1.00
C92    C     0.66583   0.23300   0.44926   0.00000  Uiso   1.00
C93    C     0.64518   0.27224   0.46966   0.00000  Uiso   1.00
C94    C     0.40363   0.10441   0.03945   0.00000  Uiso   1.00
C95    C     0.38184   0.08420   0.08332   0.00000  Uiso   1.00
C96    C     0.43543   0.16532   0.00934   0.00000  Uiso   1.00
C97    C     0.36894   0.03752   0.07512   0.00000  Uiso   1.00
C98    C     0.48057   0.16608   0.49006   0.00000  Uiso   1.00
C99    C     0.49720   0.17663   0.44480   0.00000  Uiso   1.00
C100   C     0.50963   0.15541   0.01319   0.00000  Uiso   1.00
C101   C     0.55269   0.15033   0.48922   0.00000  Uiso   1.00
C102   C     0.56795   0.16064   0.44508   0.00000  Uiso   1.00
C103   C     0.54143   0.17599   0.42422   0.00000  Uiso   1.00
H104   H     0.59199   0.12661   0.07296   0.00000  Uiso   1.00
H105   H     0.34933   0.19347   0.20904   0.00000  Uiso   1.00
H106   H     0.39373   0.26495   0.41515   0.00000  Uiso   1.00
H107   H     0.39064   0.25391   0.47114   0.00000  Uiso   1.00
H108   H     0.65666   0.22248   0.41751   0.00000  Uiso   1.00
H109   H     0.65339   0.20799   0.47281   0.00000  Uiso   1.00
H110   H     0.65317   0.28285   0.00197   0.00000  Uiso   1.00
H111   H     0.60969   0.26535   0.47593   0.00000  Uiso   1.00
H112   H     0.65664   0.29758   0.44641   0.00000  Uiso   1.00
H113   H     0.43292   0.08912   0.02257   0.00000  Uiso   1.00
H114   H     0.38088   0.09935   0.01764   0.00000  Uiso   1.00
H115   H     0.65221   0.14070   0.29119   0.00000  Uiso   1.00
H116   H     0.40424   0.08903   0.10537   0.00000  Uiso   1.00
H117   H     0.35263   0.09923   0.10067   0.00000  Uiso   1.00
H118   H     0.34597   0.03198   0.05372   0.00000  Uiso   1.00
H119   H     0.35319   0.02381   0.10759   0.00000  Uiso   1.00
H120   H     0.39779   0.02171   0.05853   0.00000  Uiso   1.00
H121   H     0.54008   0.00377   0.21071   0.00000  Uiso   1.00
H122   H     0.45891   0.33135   0.28980   0.00000  Uiso   1.00
H123   H     0.60125   0.15879   0.42722   0.00000  Uiso   1.00
H124   H     0.61387   0.13341   0.49225   0.00000  Uiso   1.00
H125   H     0.46951   0.16306   0.08131   0.00000  Uiso   1.00
H126   H     0.37606   0.18154   0.00288   0.00000  Uiso   1.00
H127   H     0.55635   0.18747   0.39162   0.00000  Uiso   1.00
O128   O     0.50000   0.16667   0.25000   0.00000  Uiso   1.00
O129   O     0.48784   0.12637   0.15459   0.00000  Uiso   1.00
O130   O     0.46274   0.20391   0.34968   0.00000  Uiso   1.00
O131   O     0.54157   0.17759   0.14606   0.00000  Uiso   1.00
O132   O     0.50785   0.15880   0.34968   0.00000  Uiso   1.00
O133   O     0.39890   0.20356   0.42035   0.00000  Uiso   1.00
O134   O     0.41459   0.14748   0.04897   0.00000  Uiso   1.00
O135   O     0.51264   0.08019   0.28214   0.00000  Uiso   1.00
O136   O     0.47965   0.26085   0.27014   0.00000  Uiso   1.00
O137   O     0.40745   0.13291   0.23413   0.00000  Uiso   1.00
O138   O     0.60026   0.19272   0.21361   0.00000  Uiso   1.00
O139   O     0.40405   0.18878   0.28213   0.00000  Uiso   1.00
O140   O     0.58824   0.15226   0.27014   0.00000  Uiso   1.00
O141   O     0.47093   0.06944   0.23413   0.00000  Uiso   1.00
O142   O     0.53678   0.25620   0.21361   0.00000  Uiso   1.00
Zn143  Zn    0.52672   0.13994   0.28734   0.00000  Uiso   1.00
Zn144  Zn    0.46713   0.12458   0.21876   0.00000  Uiso   1.00
Zn145  Zn    0.54389   0.19775   0.20657   0.00000  Uiso   1.00
Zn146  Zn    0.46226   0.20439   0.28734   0.00000  Uiso   1.00
C147   C     0.71943   0.15977   0.26001   0.00000  Uiso   1.00
C148   C     0.83196   0.15276   0.05989   0.00000  Uiso   1.00
C149   C     0.90219   0.13390   0.05636   0.00000  Uiso   1.00
C150   C     0.94751   0.17382   0.23992   0.00000  Uiso   1.00
C151   C     0.80260   0.18705   0.42062   0.00000  Uiso   1.00
C152   C     0.99346   0.17634   0.23556   0.00000  Uiso   1.00
C153   C     0.67410   0.15757   0.26411   0.00000  Uiso   1.00
C154   C     0.84719   0.32254   0.23628   0.00000  Uiso   1.00
C155   C     0.81875   0.01179   0.26402   0.00000  Uiso   1.00
C156   C     0.82290   0.05590   0.26019   0.00000  Uiso   1.00
C157   C     0.84330   0.27796   0.24011   0.00000  Uiso   1.00
C158   C     0.74337   0.18128   0.48708   0.00000  Uiso   1.00
C159   C     0.85228   0.14831   0.12939   0.00000  Uiso   1.00
C160   C     0.81524   0.18472   0.37103   0.00000  Uiso   1.00
C161   C     0.91458   0.13792   0.01057   0.00000  Uiso   1.00
C162   C     0.86128   0.14230   0.08106   0.00000  Uiso   1.00
C163   C     0.75991   0.19319   0.44337   0.00000  Uiso   1.00
C164   C     0.71484   0.24081   0.43978   0.00000  Uiso   1.00
C165   C     0.99917   0.23300   0.44926   0.00000  Uiso   1.00
C166   C     0.97851   0.27224   0.46966   0.00000  Uiso   1.00
C167   C     0.73697   0.10441   0.03945   0.00000  Uiso   1.00
C168   C     0.71517   0.08420   0.08332   0.00000  Uiso   1.00
C169   C     0.76877   0.16532   0.00934   0.00000  Uiso   1.00
C170   C     0.70228   0.03752   0.07512   0.00000  Uiso   1.00
C171   C     0.81391   0.16608   0.49006   0.00000  Uiso   1.00
C172   C     0.83053   0.17663   0.44480   0.00000  Uiso   1.00
C173   C     0.84296   0.15541   0.01319   0.00000  Uiso   1.00
C174   C     0.88603   0.15033   0.48922   0.00000  Uiso   1.00
C175   C     0.90128   0.16064   0.44508   0.00000  Uiso   1.00
C176   C     0.87477   0.17599   0.42422   0.00000  Uiso   1.00
H177   H     0.92532   0.12661   0.07296   0.00000  Uiso   1.00
H178   H     0.68266   0.19347   0.20904   0.00000  Uiso   1.00
H179   H     0.72706   0.26495   0.41515   0.00000  Uiso   1.00
H180   H     0.72398   0.25391   0.47114   0.00000  Uiso   1.00
H181   H     0.98999   0.22248   0.41751   0.00000  Uiso   1.00
H182   H     0.98672   0.20799   0.47281   0.00000  Uiso   1.00
H183   H     0.98650   0.28285   0.00197   0.00000  Uiso   1.00
H184   H     0.94302   0.26535   0.47593   0.00000  Uiso   1.00
H185   H     0.98997   0.29758   0.44641   0.00000  Uiso   1.00
H186   H     0.76626   0.08912   0.02257   0.00000  Uiso   1.00
H187   H     0.71421   0.09935   0.01764   0.00000  Uiso   1.00
H188   H     0.98555   0.14070   0.29119   0.00000  Uiso   1.00
H189   H     0.73758   0.08903   0.10537   0.00000  Uiso   1.00
H190   H     0.68597   0.09923   0.10067   0.00000  Uiso   1.00
H191   H     0.67930   0.03198   0.05372   0.00000  Uiso   1.00
H192   H     0.68653   0.02381   0.10759   0.00000  Uiso   1.00
H193   H     0.73112   0.02171   0.05853   0.00000  Uiso   1.00
H194   H     0.87342   0.00377   0.21071   0.00000  Uiso   1.00
H195   H     0.79225   0.33135   0.28980   0.00000  Uiso   1.00
H196   H     0.93459   0.15879   0.42722   0.00000  Uiso   1.00
H197   H     0.94720   0.13341   0.49225   0.00000  Uiso   1.00
H198   H     0.80284   0.16306   0.08131   0.00000  Uiso   1.00
H199   H     0.70939   0.18154   0.00288   0.00000  Uiso   1.00
H200   H     0.88968   0.18747   0.39162   0.00000  Uiso   1.00
O201   O     0.83333   0.16667   0.25000   0.00000  Uiso   1.00
O202   O     0.82118   0.12637   0.15459   0.00000  Uiso   1.00
O203   O     0.79607   0.20391   0.34968   0.00000  Uiso   1.00
O204   O     0.87491   0.17759   0.14606   0.00000  Uiso   1.00
O205   O     0.84118   0.15880   0.34968   0.00000  Uiso   1.00
O206   O     0.73224   0.20356   0.42035   0.00000  Uiso   1.00
O207   O     0.74792   0.14748   0.04897   0.00000  Uiso   1.00
O208   O     0.84597   0.08019   0.28214   0.00000  Uiso   1.00
O209   O     0.81298   0.26085   0.27014   0.00000  Uiso   1.00
O210   O     0.74078   0.13291   0.23413   0.00000  Uiso   1.00
O211   O     0.93360   0.19272   0.21361   0.00000  Uiso   1.00
O212   O     0.73738   0.18878   0.28213   0.00000  Uiso   1.00
O213   O     0.92158   0.15226   0.27014   0.00000  Uiso   1.00
O214   O     0.80426   0.06944   0.23413   0.00000  Uiso   1.00
O215   O     0.87012   0.25620   0.21361   0.00000  Uiso   1.00
Zn216  Zn    0.86005   0.13994   0.28734   0.00000  Uiso   1.00
Zn217  Zn    0.80046   0.12458   0.21876   0.00000  Uiso   1.00
Zn218  Zn    0.87723   0.19775   0.20657   0.00000  Uiso   1.00
Zn219  Zn    0.79560   0.20439   0.28734   0.00000  Uiso   1.00
C220   C     0.05276   0.49310   0.26001   0.00000  Uiso   1.00
C221   C     0.16530   0.48610   0.05989   0.00000  Uiso   1.00
C222   C     0.23553   0.46723   0.05636   0.00000  Uiso   1.00
C223   C     0.28085   0.50715   0.23992   0.00000  Uiso   1.00
C224   C     0.13593   0.52038   0.42062   0.00000  Uiso   1.00
C225   C     0.32679   0.50967   0.23556   0.00000  Uiso   1.00
C226   C     0.00744   0.49090   0.26411   0.00000  Uiso   1.00
C227   C     0.18052   0.65587   0.23628   0.00000  Uiso   1.00
C228   C     0.15208   0.34512   0.26402   0.00000  Uiso   1.00
C229   C     0.15623   0.38923   0.26019   0.00000  Uiso   1.00
C230   C     0.17663   0.61129   0.24011   0.00000  Uiso   1.00
C231   C     0.07671   0.51462   0.48708   0.00000  Uiso   1.00
C232   C     0.18561   0.48164   0.12939   0.00000  Uiso   1.00
C233   C     0.14857   0.51805   0.37103   0.00000  Uiso   1.00
C234   C     0.24791   0.47125   0.01057   0.00000  Uiso   1.00
C235   C     0.19462   0.47563   0.08106   0.00000  Uiso   1.00
C236   C     0.09324   0.52653   0.44337   0.00000  Uiso   1.00
C237   C     0.04817   0.57414   0.43978   0.00000  Uiso   1.00
C238   C     0.33250   0.56633   0.44926   0.00000  Uiso   1.00
C239   C     0.31185   0.60557   0.46966   0.00000  Uiso   1.00
C240   C     0.07030   0.43775   0.03945   0.00000  Uiso   1.00
C241   C     0.04850   0.41754   0.08332   0.00000  Uiso   1.00
C242   C     0.10210   0.49865   0.00934   0.00000  Uiso   1.00
C243   C     0.03561   0.37085   0.07512   0.00000  Uiso   1.00
C244   C     0.14724   0.49942   0.49006   0.00000  Uiso   1.00
C245   C     0.16387   0.50996   0.44480   0.00000  Uiso   1.00
C246   C     0.17629   0.48874   0.01319   0.00000  Uiso   1.00
C247   C     0.21936   0.48367   0.48922   0.00000  Uiso   1.00
C248   C     0.23462   0.49398   0.44508   0.00000  Uiso   1.00
C249   C     0.20810   0.50933   0.42422   0.00000  Uiso   1.00
H250   H     0.25865   0.45994   0.07296   0.00000  Uiso   1.00
H251   H     0.01599   0.52680   0.20904   0.00000  Uiso   1.00
H252   H     0.06039   0.59829   0.41515   0.00000  Uiso   1.00
H253   H     0.05731   0.58725   0.47114   0.00000  Uiso   1.00
H254   H     0.32332   0.55582   0.41751   0.00000  Uiso   1.00
H255   H     0.32006   0.54132   0.47281   0.00000  Uiso   1.00
H256   H     0.31984   0.61618   0.00197   0.00000  Uiso   1.00
H257   H     0.27635   0.59868   0.47593   0.00000  Uiso   1.00
H258   H     0.32331   0.63091   0.44641   0.00000  Uiso   1.00
H259   H     0.09959   0.42245   0.02257   0.00000  Uiso   1.00
H260   H     0.04754   0.43268   0.01764   0.00000  Uiso   1.00
H261   H     0.31888   0.47403   0.29119   0.00000  Uiso   1.00
H262   H     0.07091   0.42236   0.10537   0.00000  Uiso   1.00
H263   H     0.01930   0.43257   0.10067   0.00000  Uiso   1.00
H264   H     0.01264   0.36531   0.05372   0.00000  Uiso   1.00
H265   H     0.01986   0.35714   0.10759   0.00000  Uiso   1.00
H266   H     0.06445   0.35505   0.05853   0.00000  Uiso   1.00
H267   H     0.20675   0.33710   0.21071   0.00000  Uiso   1.00
H268   H     0.12558   0.66468   0.28980   0.00000  Uiso   1.00
H269   H     0.26792   0.49212   0.42722   0.00000  Uiso   1.00
H270   H     0.28054   0.46674   0.49225   0.00000  Uiso   1.00
H271   H     0.13617   0.49639   0.08131   0.00000  Uiso   1.00
H272   H     0.04273   0.51488   0.00288   0.00000  Uiso   1.00
H273   H     0.22301   0.52081   0.39162   0.00000  Uiso   1.00
O274   O     0.16667   0.50000   0.25000   0.00000  Uiso   1.00
O275   O     0.15451   0.45970   0.15459   0.00000  Uiso   1.00
O276   O     0.12940   0.53724   0.34968   0.00000  Uiso   1.00
O277   O     0.20824   0.51092   0.14606   0.00000  Uiso   1.00
O278   O     0.17451   0.49213   0.34968   0.00000  Uiso   1.00
O279   O     0.06557   0.53689   0.42035   0.00000  Uiso   1.00
O280   O     0.08126   0.48081   0.04897   0.00000  Uiso   1.00
O281   O     0.17930   0.41352   0.28214   0.00000  Uiso   1.00
O282   O     0.14632   0.59418   0.27014   0.00000  Uiso   1.00
O283   O     0.07412   0.46625   0.23413   0.00000  Uiso   1.00
O284   O     0.26693   0.52605   0.21361   0.00000  Uiso   1.00
O285   O     0.07071   0.52211   0.28213   0.00000  Uiso   1.00
O286   O     0.25491   0.48559   0.27014   0.00000  Uiso   1.00
O287   O     0.13760   0.40277   0.23413   0.00000  Uiso   1.00
O288   O     0.20345   0.58953   0.21361   0.00000  Uiso   1.00
Zn289  Zn    0.19338   0.47327   0.28734   0.00000  Uiso   1.00
Zn290  Zn    0.13379   0.45791   0.21876   0.00000  Uiso   1.00
Zn291  Zn    0.21056   0.53109   0.20657   0.00000  Uiso   1.00
Zn292  Zn    0.12893   0.53773   0.28734   0.00000  Uiso   1.00
C293   C     0.38610   0.49310   0.26001   0.00000  Uiso   1.00
C294   C     0.49863   0.48610   0.05989   0.00000  Uiso   1.00
C295   C     0.56886   0.46723   0.05636   0.00000  Uiso   1.00
C296   C     0.61418   0.50715   0.23992   0.00000  Uiso   1.00
C297   C     0.46926   0.52038   0.42062   0.00000  Uiso   1.00
C298   C     0.66013   0.50967   0.23556   0.00000  Uiso   1.00
C299   C     0.34077   0.49090   0.26411   0.00000  Uiso   1.00
C300   C     0.51385   0.65587   0.23628   0.00000  Uiso   1.00
C301   C     0.48541   0.34512   0.26402   0.00000  Uiso   1.00
C302   C     0.48957   0.38923   0.26019   0.00000  Uiso   1.00
C303   C     0.50997   0.61129   0.24011   0.00000  Uiso   1.00
C304   C     0.41004   0.51462   0.48708   0.00000  Uiso   1.00
C305   C     0.51894   0.48164   0.12939   0.00000  Uiso   1.00
C306   C     0.48191   0.51805   0.37103   0.00000  Uiso   1.00
C307   C     0.58124   0.47125   0.01057   0.00000  Uiso   1.00
C308   C     0.52795   0.47563   0.08106   0.00000  Uiso   1.00
C309   C     0.42658   0.52653   0.44337   0.00000  Uiso   1.00
C310   C     0.38150   0.57414   0.43978   0.00000  Uiso   1.00
C311   C     0.66583   0.56633   0.44926   0.00000  Uiso   1.00
C312   C     0.64518   0.60557   0.46966   0.00000  Uiso   1.00
C313   C     0.40363   0.43775   0.03945   0.00000  Uiso   1.00
C314   C     0.38184   0.41754   0.08332   0.00000  Uiso   1.00
C315   C     0.43543   0.49865   0.00934   0.00000  Uiso   1.00
C316   C     0.36894   0.37085   0.07512   0.00000  Uiso   1.00
C317   C     0.48057   0.49942   0.49006   0.00000  Uiso   1.00
C318   C     0.49720   0.50996   0.44480   0.00000  Uiso   1.00
C319   C     0.50963   0.48874   0.01319   0.00000  Uiso   1.00
C320   C     0.55269   0.48367   0.48922   0.00000  Uiso   1.00
C321   C     0.56795   0.49398   0.44508   0.00000  Uiso   1.00
C322   C     0.54143   0.50933   0.42422   0.00000  Uiso   1.00
H323   H     0.59199   0.45994   0.07296   0.00000  Uiso   1.00
H324   H     0.34933   0.52680   0.20904   0.00000  Uiso   1.00
H325   H     0.39373   0.59829   0.41515   0.00000  Uiso   1.00
H326   H     0.39064   0.58725   0.47114   0.00000  Uiso   1.00
H327   H     0.65666   0.55582   0.41751   0.00000  Uiso   1.00
H328   H     0.65339   0.54132   0.47281   0.00000  Uiso   1.00
H329   H     0.65317   0.61618   0.00197   0.00000  Uiso   1.00
H330   H     0.60969   0.59868   0.47593   0.00000  Uiso   1.00
H331   H     0.65664   0.63091   0.44641   0.00000  Uiso   1.00
H332   H     0.43292   0.42245   0.02257   0.00000  Uiso   1.00
H333   H     0.38088   0.43268   0.01764   0.00000  Uiso   1.00
H334   H     0.65221   0.47403   0.29119   0.00000  Uiso   1.00
H335   H     0.40424   0.42236   0.10537   0.00000  Uiso   1.00
H336   H     0.35263   0.43257   0.10067   0.00000  Uiso   1.00
H337   H     0.34597   0.36531   0.05372   0.00000  Uiso   1.00
H338   H     0.35319   0.35714   0.10759   0.00000  Uiso   1.00
H339   H     0.39779   0.35505   0.05853   0.00000  Uiso   1.00
H340   H     0.54008   0.33710   0.21071   0.00000  Uiso   1.00
H341   H     0.45891   0.66468   0.28980   0.00000  Uiso   1.00
H342   H     0.60125   0.49212   0.42722   0.00000  Uiso   1.00
H343   H     0.61387   0.46674   0.49225   0.00000  Uiso   1.00
H344   H     0.46951   0.49639   0.08131   0.00000  Uiso   1.00
H345   H     0.37606   0.51488   0.00288   0.00000  Uiso   1.00
H346   H     0.55635   0.52081   0.39162   0.00000  Uiso   1.00
O347   O     0.50000   0.50000   0.25000   0.00000  Uiso   1.00
O348   O     0.48784   0.45970   0.15459   0.00000  Uiso   1.00
O349   O     0.46274   0.53724   0.34968   0.00000  Uiso   1.00
O350   O     0.54157   0.51092   0.14606   0.00000  Uiso   1.00
O351   O     0.50785   0.49213   0.34968   0.00000  Uiso   1.00
O352   O     0.39890   0.53689   0.42035   0.00000  Uiso   1.00
O353   O     0.41459   0.48081   0.04897   0.00000  Uiso   1.00
O354   O     0.51264   0.41352   0.28214   0.00000  Uiso   1.00
O355   O     0.47965   0.59418   0.27014   0.00000  Uiso   1.00
O356   O     0.40745   0.46625   0.23413   0.00000  Uiso   1.00
O357   O     0.60026   0.52605   0.21361   0.00000  Uiso   1.00
O358   O     0.40405   0.52211   0.28213   0.00000  Uiso   1.00
O359   O     0.58824   0.48559   0.27014   0.00000  Uiso   1.00
O360   O     0.47093   0.40277   0.23413   0.00000  Uiso   1.00
O361   O     0.53678   0.58953   0.21361   0.00000  Uiso   1.00
Zn362  Zn    0.52672   0.47327   0.28734   0.00000  Uiso   1.00
Zn363  Zn    0.46713   0.45791   0.21876   0.00000  Uiso   1.00
Zn364  Zn    0.54389   0.53109   0.20657   0.00000  Uiso   1.00
Zn365  Zn    0.46226   0.53773   0.28734   0.00000  Uiso   1.00
C366   C     0.71943   0.49310   0.26001   0.00000  Uiso   1.00
C367   C     0.83196   0.48610   0.05989   0.00000  Uiso   1.00
C368   C     0.90219   0.46723   0.05636   0.00000  Uiso   1.00
C369   C     0.94751   0.50715   0.23992   0.00000  Uiso   1.00
C370   C     0.80260   0.52038   0.42062   0.00000  Uiso   1.00
C371   C     0.99346   0.50967   0.23556   0.00000  Uiso   1.00
C372   C     0.67410   0.49090   0.26411   0.00000  Uiso   1.00
C373   C     0.84719   0.65587   0.23628   0.00000  Uiso   1.00
C374   C     0.81875   0.34512   0.26402   0.00000  Uiso   1.00
C375   C     0.82290   0.38923   0.26019   0.00000  Uiso   1.00
C376   C     0.84330   0.61129   0.24011   0.00000  Uiso   1.00
C377   C     0.74337   0.51462   0.48708   0.00000  Uiso   1.00
C378   C     0.85228   0.48164   0.12939   0.00000  Uiso   1.00
C379   C     0.81524   0.51805   0.37103   0.00000  Uiso   1.00
C380   C     0.91458   0.47125   0.01057   0.00000  Uiso   1.00
C381   C     0.86128   0.47563   0.08106   0.00000  Uiso   1.00
C382   C     0.75991   0.52653   0.44337   0.00000  Uiso   1.00
C383   C     0.71484   0.57414   0.43978   0.00000  Uiso   1.00
C384   C     0.99917   0.56633   0.44926   0.00000  Uiso   1.00
C385   C     0.97851   0.60557   0.46966   0.00000  Uiso   1.00
C386   C     0.73697   0.43775   0.03945   0.00000  Uiso   1.00
C387   C     0.71517   0.41754   0.08332   0.00000  Uiso   1.00
C388   C     0.76877   0.49865   0.00934   0.00000  Uiso   1.00
C389   C     0.70228   0.37085   0.07512   0.00000  Uiso   1.00
C390   C     0.81391   0.49942   0.49006   0.00000  Uiso   1.00
C391   C     0.83053   0.50996   0.44480   0.00000  Uiso   1.00
C392   C     0.84296   0.48874   0.01319   0.00000  Uiso   1.00
C393   C     0.88603   0.48367   0.48922   0.00000  Uiso   1.00
C394   C     0.90128   0.49398   0.44508   0.00000  Uiso   1.00
C395   C     0.87477   0.50933   0.42422   0.00000  Uiso   1.00
H396   H     0.92532   0.45994   0.07296   0.00000  Uiso   1.00
H397   H     0.68266   0.52680   0.20904   0.00000  Uiso   1.00
H398   H     0.72706   0.59829   0.41515   0.00000  Uiso   1.00
H399   H     0.72398   0.58725   0.47114   0.00000  Uiso   1.00
H400   H     0.98999   0.55582   0.41751   0.00000  Uiso   1.00
H401   H     0.98672   0.54132   0.47281   0.00000  Uiso   1.00
H402   H     0.98650   0.61618   0.00197   0.00000  Uiso   1.00
H403   H     0.94302   0.59868   0.47593   0.00000  Uiso   1.00
H404   H     0.98997   0.63091   0.44641   0.00000  Uiso   1.00
H405   H     0.76626   0.42245   0.02257   0.00000  Uiso   1.00
H406   H     0.71421   0.43268   0.01764   0.00000  Uiso   1.00
H407   H     0.98555   0.47403   0.29119   0.00000  Uiso   1.00
H408   H     0.73758   0.42236   0.10537   0.00000  Uiso   1.00
H409   H     0.68597   0.43257   0.10067   0.00000  Uiso   1.00
H410   H     0.67930   0.36531   0.05372   0.00000  Uiso   1.00
H411   H     0.68653   0.35714   0.10759   0.00000  Uiso   1.00
H412   H     0.73112   0.35505   0.05853   0.00000  Uiso   1.00
H413   H     0.87342   0.33710   0.21071   0.00000  Uiso   1.00
H414   H     0.79225   0.66468   0.28980   0.00000  Uiso   1.00
H415   H     0.93459   0.49212   0.42722   0.00000  Uiso   1.00
H416   H     0.94720   0.46674   0.49225   0.00000  Uiso   1.00
H417   H     0.80284   0.49639   0.08131   0.00000  Uiso   1.00
H418   H     0.70939   0.51488   0.00288   0.00000  Uiso   1.00
H419   H     0.88968   0.52081   0.39162   0.00000  Uiso   1.00
O420   O     0.83333   0.50000   0.25000   0.00000  Uiso   1.00
O421   O     0.82118   0.45970   0.15459   0.00000  Uiso   1.00
O422   O     0.79607   0.53724   0.34968   0.00000  Uiso   1.00
O423   O     0.87491   0.51092   0.14606   0.00000  Uiso   1.00
O424   O     0.84118   0.49213   0.34968   0.00000  Uiso   1.00
O425   O     0.73224   0.53689   0.42035   0.00000  Uiso   1.00
O426   O     0.74792   0.48081   0.04897   0.00000  Uiso   1.00
O427   O     0.84597   0.41352   0.28214   0.00000  Uiso   1.00
O428   O     0.81298   0.59418   0.27014   0.00000  Uiso   1.00
O429   O     0.74078   0.46625   0.23413   0.00000  Uiso   1.00
O430   O     0.93360   0.52605   0.21361   0.00000  Uiso   1.00
O431   O     0.73738   0.52211   0.28213   0.00000  Uiso   1.00
O432   O     0.92158   0.48559   0.27014   0.00000  Uiso   1.00
O433   O     0.80426   0.40277   0.23413   0.00000  Uiso   1.00
O434   O     0.87012   0.58953   0.21361   0.00000  Uiso   1.00
Zn435  Zn    0.86005   0.47327   0.28734   0.00000  Uiso   1.00
Zn436  Zn    0.80046   0.45791   0.21876   0.00000  Uiso   1.00
Zn437  Zn    0.87723   0.53109   0.20657   0.00000  Uiso   1.00
Zn438  Zn    0.79560   0.53773   0.28734   0.00000  Uiso   1.00
C439   C     0.05276   0.82644   0.26001   0.00000  Uiso   1.00
C440   C     0.16530   0.81943   0.05989   0.00000  Uiso   1.00
C441   C     0.23553   0.80056   0.05636   0.00000  Uiso   1.00
C442   C     0.28085   0.84049   0.23992   0.00000  Uiso   1.00
C443   C     0.13593   0.85372   0.42062   0.00000  Uiso   1.00
C444   C     0.32679   0.84301   0.23556   0.00000  Uiso   1.00
C445   C     0.00744   0.82423   0.26411   0.00000  Uiso   1.00
C446   C     0.18052   0.98921   0.23628   0.00000  Uiso   1.00
C447   C     0.15208   0.67845   0.26402   0.00000  Uiso   1.00
C448   C     0.15623   0.72257   0.26019   0.00000  Uiso   1.00
C449   C     0.17663   0.94463   0.24011   0.00000  Uiso   1.00
C450   C     0.07671   0.84795   0.48708   0.00000  Uiso   1.00
C451   C     0.18561   0.81498   0.12939   0.00000  Uiso   1.00
C452   C     0.14857   0.85139   0.37103   0.00000  Uiso   1.00
C453   C     0.24791   0.80459   0.01057   0.00000  Uiso   1.00
C454   C     0.19462   0.80897   0.08106   0.00000  Uiso   1.00
C455   C     0.09324   0.85986   0.44337   0.00000  Uiso   1.00
C456   C     0.04817   0.90748   0.43978   0.00000  Uiso   1.00
C457   C     0.33250   0.89966   0.44926   0.00000  Uiso   1.00
C458   C     0.31185   0.93891   0.46966   0.00000  Uiso   1.00
C459   C     0.07030   0.77108   0.03945   0.00000  Uiso   1.00
C460   C     0.04850   0.75087   0.08332   0.00000  Uiso   1.00
C461   C     0.10210   0.83199   0.00934   0.00000  Uiso   1.00
C462   C     0.03561   0.70418   0.07512   0.00000  Uiso   1.00
C463   C     0.14724   0.83275   0.49006   0.00000  Uiso   1.00
C464   C     0.16387   0.84330   0.44480   0.00000  Uiso   1.00
C465   C     0.17629   0.82207   0.01319   0.00000  Uiso   1.00
C466   C     0.21936   0.81700   0.48922   0.00000  Uiso   1.00
C467   C     0.23462   0.82731   0.44508   0.00000  Uiso   1.00
C468   C     0.20810   0.84266   0.42422   0.00000  Uiso   1.00
H469   H     0.25865   0.79328   0.07296   0.00000  Uiso   1.00
H470   H     0.01599   0.86013   0.20904   0.00000  Uiso   1.00
H471   H     0.06039   0.93162   0.41515   0.00000  Uiso   1.00
H472   H     0.05731   0.92058   0.47114   0.00000  Uiso   1.00
H473   H     0.32332   0.88915   0.41751   0.00000  Uiso   1.00
H474   H     0.32006   0.87465   0.47281   0.00000  Uiso   1.00
H475   H     0.31984   0.94952   0.00197   0.00000  Uiso   1.00
H476   H     0.27635   0.93202   0.47593   0.00000  Uiso   1.00
H477   H     0.32331   0.96424   0.44641   0.00000  Uiso   1.00
H478   H     0.09959   0.75579   0.02257   0.00000  Uiso   1.00
H479   H     0.04754   0.76601   0.01764   0.00000  Uiso   1.00
H480   H     0.31888   0.80737   0.29119   0.00000  Uiso   1.00
H481   H     0.07091   0.75570   0.10537   0.00000  Uiso   1.00
H482   H     0.01930   0.76590   0.10067   0.00000  Uiso   1.00
H483   H     0.01264   0.69865   0.05372   0.00000  Uiso   1.00
H484   H     0.01986   0.69048   0.10759   0.00000  Uiso   1.00
H485   H     0.06445   0.68838   0.05853   0.00000  Uiso   1.00
H486   H     0.20675   0.67044   0.21071   0.00000  Uiso   1.00
H487   H     0.12558   0.99801   0.28980   0.00000  Uiso   1.00
H488   H     0.26792   0.82545   0.42722   0.00000  Uiso   1.00
H489   H     0.28054   0.80008   0.49225   0.00000  Uiso   1.00
H490   H     0.13617   0.82972   0.08131   0.00000  Uiso   1.00
H491   H     0.04273   0.84821   0.00288   0.00000  Uiso   1.00
H492   H     0.22301   0.85414   0.39162   0.00000  Uiso   1.00
O493   O     0.16667   0.83333   0.25000   0.00000  Uiso   1.00
O494   O     0.15451   0.79304   0.15459   0.00000  Uiso   1.00
O495   O     0.12940   0.87058   0.34968   0.00000  Uiso   1.00
O496   O     0.20824   0.84425   0.14606   0.00000  Uiso   1.00
O497   O     0.17451   0.82546   0.34968   0.00000  Uiso   1.00
O498   O     0.06557   0.87023   0.42035   0.00000  Uiso   1.00
O499   O     0.08126   0.81415   0.04897   0.00000  Uiso   1.00
O500   O     0.17930   0.74686   0.28214   0.00000  Uiso   1.00
O501   O     0.14632   0.92751   0.27014   0.00000  Uiso   1.00
O502   O     0.07412   0.79958   0.23413   0.00000  Uiso   1.00
O503   O     0.26693   0.85939   0.21361   0.00000  Uiso   1.00
O504   O     0.07071   0.85544   0.28213   0.00000  Uiso   1.00
O505   O     0.25491   0.81892   0.27014   0.00000  Uiso   1.00
O506   O     0.13760   0.73610   0.23413   0.00000  Uiso   1.00
O507   O     0.20345   0.92286   0.21361   0.00000  Uiso   1.00
Zn508  Zn    0.19338   0.80661   0.28734   0.00000  Uiso   1.00
Zn509  Zn    0.13379   0.79124   0.21876   0.00000  Uiso   1.00
Zn510  Zn    0.21056   0.86442   0.20657   0.00000  Uiso   1.00
Zn511  Zn    0.12893   0.87106   0.28734   0.00000  Uiso   1.00
C512   C     0.38610   0.82644   0.26001   0.00000  Uiso   1.00
C513   C     0.49863   0.81943   0.05989   0.00000  Uiso   1.00
C514   C     0.56886   0.80056   0.05636   0.00000  Uiso   1.00
C515   C     0.61418   0.84049   0.23992   0.00000  Uiso   1.00
C516   C     0.46926   0.85372   0.42062   0.00000  Uiso   1.00
C517   C     0.66013   0.84301   0.23556   0.00000  Uiso   1.00
C518   C     0.34077   0.82423   0.26411   0.00000  Uiso   1.00
C519   C     0.51385   0.98921   0.23628   0.00000  Uiso   1.00
C520   C     0.48541   0.67845   0.26402   0.00000  Uiso   1.00
C521   C     0.48957   0.72257   0.26019   0.00000  Uiso   1.00
C522   C     0.50997   0.94463   0.24011   0.00000  Uiso   1.00
C523   C     0.41004   0.84795   0.48708   0.00000  Uiso   1.00
C524   C     0.51894   0.81498   0.12939   0.00000  Uiso   1.00
C525   C     0.48191   0.85139   0.37103   0.00000  Uiso   1.00
C526   C     0.58124   0.80459   0.01057   0.00000  Uiso   1.00
C527   C     0.52795   0.80897   0.08106   0.00000  Uiso   1.00
C528   C     0.42658   0.85986   0.44337   0.00000  Uiso   1.00
C529   C     0.38150   0.90748   0.43978   0.00000  Uiso   1.00
C530   C     0.66583   0.89966   0.44926   0.00000  Uiso   1.00
C531   C     0.64518   0.93891   0.46966   0.00000  Uiso   1.00
C532   C     0.40363   0.77108   0.03945   0.00000  Uiso   1.00
C533   C     0.38184   0.75087   0.08332   0.00000  Uiso   1.00
C534   C     0.43543   0.83199   0.00934   0.00000  Uiso   1.00
C535   C     0.36894   0.70418   0.07512   0.00000  Uiso   1.00
C536   C     0.48057   0.83275   0.49006   0.00000  Uiso   1.00
C537   C     0.49720   0.84330   0.44480   0.00000  Uiso   1.00
C538   C     0.50963   0.82207   0.01319   0.00000  Uiso   1.00
C539   C     0.55269   0.81700   0.48922   0.00000  Uiso   1.00
C540   C     0.56795   0.82731   0.44508   0.00000  Uiso   1.00
C541   C     0.54143   0.84266   0.42422   0.00000  Uiso   1.00
H542   H     0.59199   0.79328   0.07296   0.00000  Uiso   1.00
H543   H     0.34933   0.86013   0.20904   0.00000  Uiso   1.00
H544   H     0.39373   0.93162   0.41515   0.00000  Uiso   1.00
H545   H     0.39064   0.92058   0.47114   0.00000  Uiso   1.00
H546   H     0.65666   0.88915   0.41751   0.00000  Uiso   1.00
H547   H     0.65339   0.87465   0.47281   0.00000  Uiso   1.00
H548   H     0.65317   0.94952   0.00197   0.00000  Uiso   1.00
H549   H     0.60969   0.93202   0.47593   0.00000  Uiso   1.00
H550   H     0.65664   0.96424   0.44641   0.00000  Uiso   1.00
H551   H     0.43292   0.75579   0.02257   0.00000  Uiso   1.00
H552   H     0.38088   0.76601   0.01764   0.00000  Uiso   1.00
H553   H     0.65221   0.80737   0.29119   0.00000  Uiso   1.00
H554   H     0.40424   0.75570   0.10537   0.00000  Uiso   1.00
H555   H     0.35263   0.76590   0.10067   0.00000  Uiso   1.00
H556   H     0.34597   0.69865   0.05372   0.00000  Uiso   1.00
H557   H     0.35319   0.69048   0.10759   0.00000  Uiso   1.00
H558   H     0.39779   0.68838   0.05853   0.00000  Uiso   1.00
H559   H     0.54008   0.67044   0.21071   0.00000  Uiso   1.00
H560   H     0.45891   0.99801   0.28980   0.00000  Uiso   1.00
H561   H     0.60125   0.82545   0.42722   0.00000  Uiso   1.00
H562   H     0.61387   0.80008   0.49225   0.00000  Uiso   1.00
H563   H     0.46951   0.82972   0.08131   0.00000  Uiso   1.00
H564   H     0.37606   0.84821   0.00288   0.00000  Uiso   1.00
H565   H     0.55635   0.85414   0.39162   0.00000  Uiso   1.00
O566   O     0.50000   0.83333   0.25000   0.00000  Uiso   1.00
O567   O     0.48784   0.79304   0.15459   0.00000  Uiso   1.00
O568   O     0.46274   0.87058   0.34968   0.00000  Uiso   1.00
O569   O     0.54157   0.84425   0.14606   0.00000  Uiso   1.00
O570   O     0.50785   0.82546   0.34968   0.00000  Uiso   1.00
O571   O     0.39890   0.87023   0.42035   0.00000  Uiso   1.00
O572   O     0.41459   0.81415   0.04897   0.00000  Uiso   1.00
O573   O     0.51264   0.74686   0.28214   0.00000  Uiso   1.00
O574   O     0.47965   0.92751   0.27014   0.00000  Uiso   1.00
O575   O     0.40745   0.79958   0.23413   0.00000  Uiso   1.00
O576   O     0.60026   0.85939   0.21361   0.00000  Uiso   1.00
O577   O     0.40405   0.85544   0.28213   0.00000  Uiso   1.00
O578   O     0.58824   0.81892   0.27014   0.00000  Uiso   1.00
O579   O     0.47093   0.73610   0.23413   0.00000  Uiso   1.00
O580   O     0.53678   0.92286   0.21361   0.00000  Uiso   1.00
Zn581  Zn    0.52672   0.80661   0.28734   0.00000  Uiso   1.00
Zn582  Zn    0.46713   0.79124   0.21876   0.00000  Uiso   1.00
Zn583  Zn    0.54389   0.86442   0.20657   0.00000  Uiso   1.00
Zn584  Zn    0.46226   0.87106   0.28734   0.00000  Uiso   1.00
C585   C     0.71943   0.82644   0.26001   0.00000  Uiso   1.00
C586   C     0.83196   0.81943   0.05989   0.00000  Uiso   1.00
C587   C     0.90219   0.80056   0.05636   0.00000  Uiso   1.00
C588   C     0.94751   0.84049   0.23992   0.00000  Uiso   1.00
C589   C     0.80260   0.85372   0.42062   0.00000  Uiso   1.00
C590   C     0.99346   0.84301   0.23556   0.00000  Uiso   1.00
C591   C     0.67410   0.82423   0.26411   0.00000  Uiso   1.00
C592   C     0.84719   0.98921   0.23628   0.00000  Uiso   1.00
C593   C     0.81875   0.67845   0.26402   0.00000  Uiso   1.00
C594   C     0.82290   0.72257   0.26019   0.00000  Uiso   1.00
C595   C     0.84330   0.94463   0.24011   0.00000  Uiso   1.00
C596   C     0.74337   0.84795   0.48708   0.00000  Uiso   1.00
C597   C     0.85228   0.81498   0.12939   0.00000  Uiso   1.00
C598   C     0.81524   0.85139   0.37103   0.00000  Uiso   1.00
C599   C     0.91458   0.80459   0.01057   0.00000  Uiso   1.00
C600   C     0.86128   0.80897   0.08106   0.00000  Uiso   1.00
C601   C     0.75991   0.85986   0.44337   0.00000  Uiso   1.00
C602   C     0.71484   0.90748   0.43978   0.00000  Uiso   1.00
C603   C     0.99917   0.89966   0.44926   0.00000  Uiso   1.00
C604   C     0.97851   0.93891   0.46966   0.00000  Uiso   1.00
C605   C     0.73697   0.77108   0.03945   0.00000  Uiso   1.00
C606   C     0.71517   0.75087   0.08332   0.00000  Uiso   1.00
C607   C     0.76877   0.83199   0.00934   0.00000  Uiso   1.00
C608   C     0.70228   0.70418   0.07512   0.00000  Uiso   1.00
C609   C     0.81391   0.83275   0.49006   0.00000  Uiso   1.00
C610   C     0.83053   0.84330   0.44480   0.00000  Uiso   1.00
C611   C     0.84296   0.82207   0.01319   0.00000  Uiso   1.00
C612   C     0.88603   0.81700   0.48922   0.00000  Uiso   1.00
C613   C     0.90128   0.82731   0.44508   0.00000  Uiso   1.00
C614   C     0.87477   0.84266   0.42422   0.00000  Uiso   1.00
H615   H     0.92532   0.79328   0.07296   0.00000  Uiso   1.00
H616   H     0.68266   0.86013   0.20904   0.00000  Uiso   1.00
H617   H     0.72706   0.93162   0.41515   0.00000  Uiso   1.00
H618   H     0.72398   0.92058   0.47114   0.00000  Uiso   1.00
H619   H     0.98999   0.88915   0.41751   0.00000  Uiso   1.00
H620   H     0.98672   0.87465   0.47281   0.00000  Uiso   1.00
H621   H     0.98650   0.94952   0.00197   0.00000  Uiso   1.00
H622   H     0.94302   0.93202   0.47593   0.00000  Uiso   1.00
H623   H     0.98997   0.96424   0.44641   0.00000  Uiso   1.00
H624   H     0.76626   0.75579   0.02257   0.00000  Uiso   1.00
H625   H     0.71421   0.76601   0.01764   0.00000  Uiso   1.00
H626   H     0.98555   0.80737   0.29119   0.00000  Uiso   1.00
H627   H     0.73758   0.75570   0.10537   0.00000  Uiso   1.00
H628   H     0.68597   0.76590   0.10067   0.00000  Uiso   1.00
H629   H     0.67930   0.69865   0.05372   0.00000  Uiso   1.00
H630   H     0.68653   0.69048   0.10759   0.00000  Uiso   1.00
H631   H     0.73112   0.68838   0.05853   0.00000  Uiso   1.00
H632   H     0.87342   0.67044   0.21071   0.00000  Uiso   1.00
H633   H     0.79225   0.99801   0.28980   0.00000  Uiso   1.00
H634   H     0.93459   0.82545   0.42722   0.00000  Uiso   1.00
H635   H     0.94720   0.80008   0.49225   0.00000  Uiso   1.00
H636   H     0.80284   0.82972   0.08131   0.00000  Uiso   1.00
H637   H     0.70939   0.84821   0.00288   0.00000  Uiso   1.00
H638   H     0.88968   0.85414   0.39162   0.00000  Uiso   1.00
O639   O     0.83333   0.83333   0.25000   0.00000  Uiso   1.00
O640   O     0.82118   0.79304   0.15459   0.00000  Uiso   1.00
O641   O     0.79607   0.87058   0.34968   0.00000  Uiso   1.00
O642   O     0.87491   0.84425   0.14606   0.00000  Uiso   1.00
O643   O     0.84118   0.82546   0.34968   0.00000  Uiso   1.00
O644   O     0.73224   0.87023   0.42035   0.00000  Uiso   1.00
O645   O     0.74792   0.81415   0.04897   0.00000  Uiso   1.00
O646   O     0.84597   0.74686   0.28214   0.00000  Uiso   1.00
O647   O     0.81298   0.92751   0.27014   0.00000  Uiso   1.00
O648   O     0.74078   0.79958   0.23413   0.00000  Uiso   1.00
O649   O     0.93360   0.85939   0.21361   0.00000  Uiso   1.00
O650   O     0.73738   0.85544   0.28213   0.00000  Uiso   1.00
O651   O     0.92158   0.81892   0.27014   0.00000  Uiso   1.00
O652   O     0.80426   0.73610   0.23413   0.00000  Uiso   1.00
O653   O     0.87012   0.92286   0.21361   0.00000  Uiso   1.00
Zn654  Zn    0.86005   0.80661   0.28734   0.00000  Uiso   1.00
Zn655  Zn    0.80046   0.79124   0.21876   0.00000  Uiso   1.00
Zn656  Zn    0.87723   0.86442   0.20657   0.00000  Uiso   1.00
Zn657  Zn    0.79560   0.87106   0.28734   0.00000  Uiso   1.00
C658   C     0.05276   0.15977   0.76001   0.00000  Uiso   1.00
C659   C     0.16530   0.15276   0.55989   0.00000  Uiso   1.00
C660   C     0.23553   0.13390   0.55636   0.00000  Uiso   1.00
C661   C     0.28085   0.17382   0.73992   0.00000  Uiso   1.00
C662   C     0.13593   0.18705   0.92062   0.00000  Uiso   1.00
C663   C     0.32679   0.17634   0.73556   0.00000  Uiso   1.00
C664   C     0.00744   0.15757   0.76411   0.00000  Uiso   1.00
C665   C     0.18052   0.32254   0.73628   0.00000  Uiso   1.00
C666   C     0.15208   0.01179   0.76402   0.00000  Uiso   1.00
C667   C     0.15623   0.05590   0.76019   0.00000  Uiso   1.00
C668   C     0.17663   0.27796   0.74011   0.00000  Uiso   1.00
C669   C     0.07671   0.18128   0.98708   0.00000  Uiso   1.00
C670   C     0.18561   0.14831   0.62939   0.00000  Uiso   1.00
C671   C     0.14857   0.18472   0.87103   0.00000  Uiso   1.00
C672   C     0.24791   0.13792   0.51057   0.00000  Uiso   1.00
C673   C     0.19462   0.14230   0.58106   0.00000  Uiso   1.00
C674   C     0.09324   0.19319   0.94337   0.00000  Uiso   1.00
C675   C     0.04817   0.24081   0.93978   0.00000  Uiso   1.00
C676   C     0.33250   0.23300   0.94926   0.00000  Uiso   1.00
C677   C     0.31185   0.27224   0.96966   0.00000  Uiso   1.00
C678   C     0.07030   0.10441   0.53945   0.00000  Uiso   1.00
C679   C     0.04850   0.08420   0.58332   0.00000  Uiso   1.00
C680   C     0.10210   0.16532   0.50934   0.00000  Uiso   1.00
C681   C     0.03561   0.03752   0.57512   0.00000  Uiso   1.00
C682   C     0.14724   0.16608   0.99006   0.00000  Uiso   1.00
C683   C     0.16387   0.17663   0.94480   0.00000  Uiso   1.00
C684   C     0.17629   0.15541   0.51319   0.00000  Uiso   1.00
C685   C     0.21936   0.15033   0.98922   0.00000  Uiso   1.00
C686   C     0.23462   0.16064   0.94508   0.00000  Uiso   1.00
C687   C     0.20810   0.17599   0.92422   0.00000  Uiso   1.00
H688   H     0.25865   0.12661   0.57296   0.00000  Uiso   1.00
H689   H     0.01599   0.19347   0.70904   0.00000  Uiso   1.00
H690   H     0.06039   0.26495   0.91515   0.00000  Uiso   1.00
H691   H     0.05731   0.25391   0.97114   0.00000  Uiso   1.00
H692   H     0.32332   0.22248   0.91751   0.00000  Uiso   1.00
H693   H     0.32006   0.20799   0.97281   0.00000  Uiso   1.00
H694   H     0.31984   0.28285   0.50197   0.00000  Uiso   1.00
H695   H     0.27635   0.26535   0.97593   0.00000  Uiso   1.00
H696   H     0.32331   0.29758   0.94641   0.00000  Uiso   1.00
H697   H     0.09959   0.08912   0.52257   0.00000  Uiso   1.00
H698   H     0.04754   0.09935   0.51764   0.00000  Uiso   1.00
H699   H     0.31888   0.14070   0.79119   0.00000  Uiso   1.00
H700   H     0.07091   0.08903   0.60537   0.00000  Uiso   1.00
H701   H     0.01930   0.09923   0.60067   0.00000  Uiso   1.00
H702   H     0.01264   0.03198   0.55372   0.00000  Uiso   1.00
H703   H     0.01986   0.02381   0.60759   0.00000  Uiso   1.00
H704   H     0.06445   0.02171   0.55853   0.00000  Uiso   1.00
H705   H     0.20675   0.00377   0.71071   0.00000  Uiso   1.00
H706   H     0.12558   0.33135   0.78980   0.00000  Uiso   1.00
H707   H     0.26792   0.15879   0.92722   0.00000  Uiso   1.00
H708   H     0.28054   0.13341   0.99225   0.00000  Uiso   1.00
H709   H     0.13617   0.16306   0.58131   0.00000  Uiso   1.00
H710   H     0.04273   0.18154   0.50288   0.00000  Uiso   1.00
H711   H     0.22301   0.18747   0.89162   0.00000  Uiso   1.00
O712   O     0.16667   0.16667   0.75000   0.00000  Uiso   1.00
O713   O     0.15451   0.12637   0.65459   0.00000  Uiso   1.00
O714   O     0.12940   0.20391   0.84968   0.00000  Uiso   1.00
O715   O     0.20824   0.17759   0.64606   0.00000  Uiso   1.00
O716   O     0.17451   0.15880   0.84968   0.00000  Uiso   1.00
O717   O     0.06557   0.20356   0.92035   0.00000  Uiso   1.00
O718   O     0.08126   0.14748   0.54897   0.00000  Uiso   1.00
O719   O     0.17930   0.08019   0.78214   0.00000  Uiso   1.00
O720   O     0.14632   0.26085   0.77014   0.00000  Uiso   1.00
O721   O     0.07412   0.13291   0.73413   0.00000  Uiso   1.00
O722   O     0.26693   0.19272   0.71361   0.00000  Uiso   1.00
O723   O     0.07071   0.18878   0.78213   0.00000  Uiso   1.00
O724   O     0.25491   0.15226   0.77014   0.00000  Uiso   1.00
O725   O     0.13760   0.06944   0.73413   0.00000  Uiso   1.00
O726   O     0.20345   0.25620   0.71361   0.00000  Uiso   1.00
Zn727  Zn    0.19338   0.13994   0.78734   0.00000  Uiso   1.00
Zn728  Zn    0.13379   0.12458   0.71876   0.00000  Uiso   1.00
Zn729  Zn    0.21056   0.19775   0.70657   0.00000  Uiso   1.00
Zn730  Zn    0.12893   0.20439   0.78734   0.00000  Uiso   1.00
C731   C     0.38610   0.15977   0.76001   0.00000  Uiso   1.00
C732   C     0.49863   0.15276   0.55989   0.00000  Uiso   1.00
C733   C     0.56886   0.13390   0.55636   0.00000  Uiso   1.00
C734   C     0.61418   0.17382   0.73992   0.00000  Uiso   1.00
C735   C     0.46926   0.18705   0.92062   0.00000  Uiso   1.00
C736   C     0.66013   0.17634   0.73556   0.00000  Uiso   1.00
C737   C     0.34077   0.15757   0.76411   0.00000  Uiso   1.00
C738   C     0.51385   0.32254   0.73628   0.00000  Uiso   1.00
C739   C     0.48541   0.01179   0.76402   0.00000  Uiso   1.00
C740   C     0.48957   0.05590   0.76019   0.00000  Uiso   1.00
C741   C     0.50997   0.27796   0.74011   0.00000  Uiso   1.00
C742   C     0.41004   0.18128   0.98708   0.00000  Uiso   1.00
C743   C     0.51894   0.14831   0.62939   0.00000  Uiso   1.00
C744   C     0.48191   0.18472   0.87103   0.00000  Uiso   1.00
C745   C     0.58124   0.13792   0.51057   0.00000  Uiso   1.00
C746   C     0.52795   0.14230   0.58106   0.00000  Uiso   1.00
C747   C     0.42658   0.19319   0.94337   0.00000  Uiso   1.00
C748   C     0.38150   0.24081   0.93978   0.00000  Uiso   1.00
C749   C     0.66583   0.23300   0.94926   0.00000  Uiso   1.00
C750   C     0.64518   0.27224   0.96966   0.00000  Uiso   1.00
C751   C     0.40363   0.10441   0.53945   0.00000  Uiso   1.00
C752   C     0.38184   0.08420   0.58332   0.00000  Uiso   1.00
C753   C     0.43543   0.16532   0.50934   0.00000  Uiso   1.00
C754   C     0.36894   0.03752   0.57512   0.00000  Uiso   1.00
C755   C     0.48057   0.16608   0.99006   0.00000  Uiso   1.00
C756   C     0.49720   0.17663   0.94480   0.00000  Uiso   1.00
C757   C     0.50963   0.15541   0.51319   0.00000  Uiso   1.00
C758   C     0.55269   0.15033   0.98922   0.00000  Uiso   1.00
C759   C     0.56795   0.16064   0.94508   0.00000  Uiso   1.00
C760   C     0.54143   0.17599   0.92422   0.00000  Uiso   1.00
H761   H     0.59199   0.12661   0.57296   0.00000  Uiso   1.00
H762   H     0.34933   0.19347   0.70904   0.00000  Uiso   1.00
H763   H     0.39373   0.26495   0.91515   0.00000  Uiso   1.00
H764   H     0.39064   0.25391   0.97114   0.00000  Uiso   1.00
H765   H     0.65666   0.22248   0.91751   0.00000  Uiso   1.00
H766   H     0.65339   0.20799   0.97281   0.00000  Uiso   1.00
H767   H     0.65317   0.28285   0.50197   0.00000  Uiso   1.00
H768   H     0.60969   0.26535   0.97593   0.00000  Uiso   1.00
H769   H     0.65664   0.29758   0.94641   0.00000  Uiso   1.00
H770   H     0.43292   0.08912   0.52257   0.00000  Uiso   1.00
H771   H     0.38088   0.09935   0.51764   0.00000  Uiso   1.00
H772   H     0.65221   0.14070   0.79119   0.00000  Uiso   1.00
H773   H     0.40424   0.08903   0.60537   0.00000  Uiso   1.00
H774   H     0.35263   0.09923   0.60067   0.00000  Uiso   1.00
H775   H     0.34597   0.03198   0.55372   0.00000  Uiso   1.00
H776   H     0.35319   0.02381   0.60759   0.00000  Uiso   1.00
H777   H     0.39779   0.02171   0.55853   0.00000  Uiso   1.00
H778   H     0.54008   0.00377   0.71071   0.00000  Uiso   1.00
H779   H     0.45891   0.33135   0.78980   0.00000  Uiso   1.00
H780   H     0.60125   0.15879   0.92722   0.00000  Uiso   1.00
H781   H     0.61387   0.13341   0.99225   0.00000  Uiso   1.00
H782   H     0.46951   0.16306   0.58131   0.00000  Uiso   1.00
H783   H     0.37606   0.18154   0.50288   0.00000  Uiso   1.00
H784   H     0.55635   0.18747   0.89162   0.00000  Uiso   1.00
O785   O     0.50000   0.16667   0.75000   0.00000  Uiso   1.00
O786   O     0.48784   0.12637   0.65459   0.00000  Uiso   1.00
O787   O     0.46274   0.20391   0.84968   0.00000  Uiso   1.00
O788   O     0.54157   0.17759   0.64606   0.00000  Uiso   1.00
O789   O     0.50785   0.15880   0.84968   0.00000  Uiso   1.00
O790   O     0.39890   0.20356   0.92035   0.00000  Uiso   1.00
O791   O     0.41459   0.14748   0.54897   0.00000  Uiso   1.00
O792   O     0.51264   0.08019   0.78214   0.00000  Uiso   1.00
O793   O     0.47965   0.26085   0.77014   0.00000  Uiso   1.00
O794   O     0.40745   0.13291   0.73413   0.00000  Uiso   1.00
O795   O     0.60026   0.19272   0.71361   0.00000  Uiso   1.00
O796   O     0.40405   0.18878   0.78213   0.00000  Uiso   1.00
O797   O     0.58824   0.15226   0.77014   0.00000  Uiso   1.00
O798   O     0.47093   0.06944   0.73413   0.00000  Uiso   1.00
O799   O     0.53678   0.25620   0.71361   0.00000  Uiso   1.00
Zn800  Zn    0.52672   0.13994   0.78734   0.00000  Uiso   1.00
Zn801  Zn    0.46713   0.12458   0.71876   0.00000  Uiso   1.00
Zn802  Zn    0.54389   0.19775   0.70657   0.00000  Uiso   1.00
Zn803  Zn    0.46226   0.20439   0.78734   0.00000  Uiso   1.00
C804   C     0.71943   0.15977   0.76001   0.00000  Uiso   1.00
C805   C     0.83196   0.15276   0.55989   0.00000  Uiso   1.00
C806   C     0.90219   0.13390   0.55636   0.00000  Uiso   1.00
C807   C     0.94751   0.17382   0.73992   0.00000  Uiso   1.00
C808   C     0.80260   0.18705   0.92062   0.00000  Uiso   1.00
C809   C     0.99346   0.17634   0.73556   0.00000  Uiso   1.00
C810   C     0.67410   0.15757   0.76411   0.00000  Uiso   1.00
C811   C     0.84719   0.32254   0.73628   0.00000  Uiso   1.00
C812   C     0.81875   0.01179   0.76402   0.00000  Uiso   1.00
C813   C     0.82290   0.05590   0.76019   0.00000  Uiso   1.00
C814   C     0.84330   0.27796   0.74011   0.00000  Uiso   1.00
C815   C     0.74337   0.18128   0.98708   0.00000  Uiso   1.00
C816   C     0.85228   0.14831   0.62939   0.00000  Uiso   1.00
C817   C     0.81524   0.18472   0.87103   0.00000  Uiso   1.00
C818   C     0.91458   0.13792   0.51057   0.00000  Uiso   1.00
C819   C     0.86128   0.14230   0.58106   0.00000  Uiso   1.00
C820   C     0.75991   0.19319   0.94337   0.00000  Uiso   1.00
C821   C     0.71484   0.24081   0.93978   0.00000  Uiso   1.00
C822   C     0.99917   0.23300   0.94926   0.00000  Uiso   1.00
C823   C     0.97851   0.27224   0.96966   0.00000  Uiso   1.00
C824   C     0.73697   0.10441   0.53945   0.00000  Uiso   1.00
C825   C     0.71517   0.08420   0.58332   0.00000  Uiso   1.00
C826   C     0.76877   0.16532   0.50934   0.00000  Uiso   1.00
C827   C     0.70228   0.03752   0.57512   0.00000  Uiso   1.00
C828   C     0.81391   0.16608   0.99006   0.00000  Uiso   1.00
C829   C     0.83053   0.17663   0.94480   0.00000  Uiso   1.00
C830   C     0.84296   0.15541   0.51319   0.00000  Uiso   1.00
C831   C     0.88603   0.15033   0.98922   0.00000  Uiso   1.00
C832   C     0.90128   0.16064   0.94508   0.00000  Uiso   1.00
C833   C     0.87477   0.17599   0.92422   0.00000  Uiso   1.00
H834   H     0.92532   0.12661   0.57296   0.00000  Uiso   1.00
H835   H     0.68266   0.19347   0.70904   0.00000  Uiso   1.00
H836   H     0.72706   0.26495   0.91515   0.00000  Uiso   1.00
H837   H     0.72398   0.25391   0.97114   0.00000  Uiso   1.00
H838   H     0.98999   0.22248   0.91751   0.00000  Uiso   1.00
H839   H     0.98672   0.20799   0.97281   0.00000  Uiso   1.00
H840   H     0.98650   0.28285   0.50197   0.00000  Uiso   1.00
H841   H     0.94302   0.26535   0.97593   0.00000  Uiso   1.00
H842   H     0.98997   0.29758   0.94641   0.00000  Uiso   1.00
H843   H     0.76626   0.08912   0.52257   0.00000  Uiso   1.00
H844   H     0.71421   0.09935   0.51764   0.00000  Uiso   1.00
H845   H     0.98555   0.14070   0.79119   0.00000  Uiso   1.00
H846   H     0.73758   0.08903   0.60537   0.00000  Uiso   1.00
H847   H     0.68597   0.09923   0.60067   0.00000  Uiso   1.00
H848   H     0.67930   0.03198   0.55372   0.00000  Uiso   1.00
H849   H     0.68653   0.02381   0.60759   0.00000  Uiso   1.00
H850   H     0.73112   0.02171   0.55853   0.00000  Uiso   1.00
H851   H     0.87342   0.00377   0.71071   0.00000  Uiso   1.00
H852   H     0.79225   0.33135   0.78980   0.00000  Uiso   1.00
H853   H     0.93459   0.15879   0.92722   0.00000  Uiso   1.00
H854   H     0.94720   0.13341   0.99225   0.00000  Uiso   1.00
H855   H     0.80284   0.16306   0.58131   0.00000  Uiso   1.00
H856   H     0.70939   0.18154   0.50288   0.00000  Uiso   1.00
H857   H     0.88968   0.18747   0.89162   0.00000  Uiso   1.00
O858   O     0.83333   0.16667   0.75000   0.00000  Uiso   1.00
O859   O     0.82118   0.12637   0.65459   0.00000  Uiso   1.00
O860   O     0.79607   0.20391   0.84968   0.00000  Uiso   1.00
O861   O     0.87491   0.17759   0.64606   0.00000  Uiso   1.00
O862   O     0.84118   0.15880   0.84968   0.00000  Uiso   1.00
O863   O     0.73224   0.20356   0.92035   0.00000  Uiso   1.00
O864   O     0.74792   0.14748   0.54897   0.00000  Uiso   1.00
O865   O     0.84597   0.08019   0.78214   0.00000  Uiso   1.00
O866   O     0.81298   0.26085   0.77014   0.00000  Uiso   1.00
O867   O     0.74078   0.13291   0.73413   0.00000  Uiso   1.00
O868   O     0.93360   0.19272   0.71361   0.00000  Uiso   1.00
O869   O     0.73738   0.18878   0.78213   0.00000  Uiso   1.00
O870   O     0.92158   0.15226   0.77014   0.00000  Uiso   1.00
O871   O     0.80426   0.06944   0.73413   0.00000  Uiso   1.00
O872   O     0.87012   0.25620   0.71361   0.00000  Uiso   1.00
Zn873  Zn    0.86005   0.13994   0.78734   0.00000  Uiso   1.00
Zn874  Zn    0.80046   0.12458   0.71876   0.00000  Uiso   1.00
Zn875  Zn    0.87723   0.19775   0.70657   0.00000  Uiso   1.00
Zn876  Zn    0.79560   0.20439   0.78734   0.00000  Uiso   1.00
C877   C     0.05276   0.49310   0.76001   0.00000  Uiso   1.00
C878   C     0.16530   0.48610   0.55989   0.00000  Uiso   1.00
C879   C     0.23553   0.46723   0.55636   0.00000  Uiso   1.00
C880   C     0.28085   0.50715   0.73992   0.00000  Uiso   1.00
C881   C     0.13593   0.52038   0.92062   0.00000  Uiso   1.00
C882   C     0.32679   0.50967   0.73556   0.00000  Uiso   1.00
C883   C     0.00744   0.49090   0.76411   0.00000  Uiso   1.00
C884   C     0.18052   0.65587   0.73628   0.00000  Uiso   1.00
C885   C     0.15208   0.34512   0.76402   0.00000  Uiso   1.00
C886   C     0.15623   0.38923   0.76019   0.00000  Uiso   1.00
C887   C     0.17663   0.61129   0.74011   0.00000  Uiso   1.00
C888   C     0.07671   0.51462   0.98708   0.00000  Uiso   1.00
C889   C     0.18561   0.48164   0.62939   0.00000  Uiso   1.00
C890   C     0.14857   0.51805   0.87103   0.00000  Uiso   1.00
C891   C     0.24791   0.47125   0.51057   0.00000  Uiso   1.00
C892   C     0.19462   0.47563   0.58106   0.00000  Uiso   1.00
C893   C     0.09324   0.52653   0.94337   0.00000  Uiso   1.00
C894   C     0.04817   0.57414   0.93978   0.00000  Uiso   1.00
C895   C     0.33250   0.56633   0.94926   0.00000  Uiso   1.00
C896   C     0.31185   0.60557   0.96966   0.00000  Uiso   1.00
C897   C     0.07030   0.43775   0.53945   0.00000  Uiso   1.00
C898   C     0.04850   0.41754   0.58332   0.00000  Uiso   1.00
C899   C     0.10210   0.49865   0.50934   0.00000  Uiso   1.00
C900   C     0.03561   0.37085   0.57512   0.00000  Uiso   1.00
C901   C     0.14724   0.49942   0.99006   0.00000  Uiso   1.00
C902   C     0.16387   0.50996   0.94480   0.00000  Uiso   1.00
C903   C     0.17629   0.48874   0.51319   0.00000  Uiso   1.00
C904   C     0.21936   0.48367   0.98922   0.00000  Uiso   1.00
C905   C     0.23462   0.49398   0.94508   0.00000  Uiso   1.00
C906   C     0.20810   0.50933   0.92422   0.00000  Uiso   1.00
H907   H     0.25865   0.45994   0.57296   0.00000  Uiso   1.00
H908   H     0.01599   0.52680   0.70904   0.00000  Uiso   1.00
H909   H     0.06039   0.59829   0.91515   0.00000  Uiso   1.00
H910   H     0.05731   0.58725   0.97114   0.00000  Uiso   1.00
H911   H     0.32332   0.55582   0.91751   0.00000  Uiso   1.00
H912   H     0.32006   0.54132   0.97281   0.00000  Uiso   1.00
H913   H     0.31984   0.61618   0.50197   0.00000  Uiso   1.00
H914   H     0.27635   0.59868   0.97593   0.00000  Uiso   1.00
H915   H     0.32331   0.63091   0.94641   0.00000  Uiso   1.00
H916   H     0.09959   0.42245   0.52257   0.00000  Uiso   1.00
H917   H     0.04754   0.43268   0.51764   0.00000  Uiso   1.00
H918   H     0.31888   0.47403   0.79119   0.00000  Uiso   1.00
H919   H     0.07091   0.42236   0.60537   0.00000  Uiso   1.00
H920   H     0.01930   0.43257   0.60067   0.00000  Uiso   1.00
H921   H     0.01264   0.36531   0.55372   0.00000  Uiso   1.00
H922   H     0.01986   0.35714   0.60759   0.00000  Uiso   1.00
H923   H     0.06445   0.35505   0.55853   0.00000  Uiso   1.00
H924   H     0.20675   0.33710   0.71071   0.00000  Uiso   1.00
H925   H     0.12558   0.66468   0.78980   0.00000  Uiso   1.00
H926   H     0.26792   0.49212   0.92722   0.00000  Uiso   1.00
H927   H     0.28054   0.46674   0.99225   0.00000  Uiso   1.00
H928   H     0.13617   0.49639   0.58131   0.00000  Uiso   1.00
H929   H     0.04273   0.51488   0.50288   0.00000  Uiso   1.00
H930   H     0.22301   0.52081   0.89162   0.00000  Uiso   1.00
O931   O     0.16667   0.50000   0.75000   0.00000  Uiso   1.00
O932   O     0.15451   0.45970   0.65459   0.00000  Uiso   1.00
O933   O     0.12940   0.53724   0.84968   0.00000  Uiso   1.00
O934   O     0.20824   0.51092   0.64606   0.00000  Uiso   1.00
O935   O     0.17451   0.49213   0.84968   0.00000  Uiso   1.00
O936   O     0.06557   0.53689   0.92035   0.00000  Uiso   1.00
O937   O     0.08126   0.48081   0.54897   0.00000  Uiso   1.00
O938   O     0.17930   0.41352   0.78214   0.00000  Uiso   1.00
O939   O     0.14632   0.59418   0.77014   0.00000  Uiso   1.00
O940   O     0.07412   0.46625   0.73413   0.00000  Uiso   1.00
O941   O     0.26693   0.52605   0.71361   0.00000  Uiso   1.00
O942   O     0.07071   0.52211   0.78213   0.00000  Uiso   1.00
O943   O     0.25491   0.48559   0.77014   0.00000  Uiso   1.00
O944   O     0.13760   0.40277   0.73413   0.00000  Uiso   1.00
O945   O     0.20345   0.58953   0.71361   0.00000  Uiso   1.00
Zn946  Zn    0.19338   0.47327   0.78734   0.00000  Uiso   1.00
Zn947  Zn    0.13379   0.45791   0.71876   0.00000  Uiso   1.00
Zn948  Zn    0.21056   0.53109   0.70657   0.00000  Uiso   1.00
Zn949  Zn    0.12893   0.53773   0.78734   0.00000  Uiso   1.00
C950   C     0.38610   0.49310   0.76001   0.00000  Uiso   1.00
C951   C     0.49863   0.48610   0.55989   0.00000  Uiso   1.00
C952   C     0.56886   0.46723   0.55636   0.00000  Uiso   1.00
C953   C     0.61418   0.50715   0.73992   0.00000  Uiso   1.00
C954   C     0.46926   0.52038   0.92062   0.00000  Uiso   1.00
C955   C     0.66013   0.50967   0.73556   0.00000  Uiso   1.00
C956   C     0.34077   0.49090   0.76411   0.00000  Uiso   1.00
C957   C     0.51385   0.65587   0.73628   0.00000  Uiso   1.00
C958   C     0.48541   0.34512   0.76402   0.00000  Uiso   1.00
C959   C     0.48957   0.38923   0.76019   0.00000  Uiso   1.00
C960   C     0.50997   0.61129   0.74011   0.00000  Uiso   1.00
C961   C     0.41004   0.51462   0.98708   0.00000  Uiso   1.00
C962   C     0.51894   0.48164   0.62939   0.00000  Uiso   1.00
C963   C     0.48191   0.51805   0.87103   0.00000  Uiso   1.00
C964   C     0.58124   0.47125   0.51057   0.00000  Uiso   1.00
C965   C     0.52795   0.47563   0.58106   0.00000  Uiso   1.00
C966   C     0.42658   0.52653   0.94337   0.00000  Uiso   1.00
C967   C     0.38150   0.57414   0.93978   0.00000  Uiso   1.00
C968   C     0.66583   0.56633   0.94926   0.00000  Uiso   1.00
C969   C     0.64518   0.60557   0.96966   0.00000  Uiso   1.00
C970   C     0.40363   0.43775   0.53945   0.00000  Uiso   1.00
C971   C     0.38184   0.41754   0.58332   0.00000  Uiso   1.00
C972   C     0.43543   0.49865   0.50934   0.00000  Uiso   1.00
C973   C     0.36894   0.37085   0.57512   0.00000  Uiso   1.00
C974   C     0.48057   0.49942   0.99006   0.00000  Uiso   1.00
C975   C     0.49720   0.50996   0.94480   0.00000  Uiso   1.00
C976   C     0.50963   0.48874   0.51319   0.00000  Uiso   1.00
C977   C     0.55269   0.48367   0.98922   0.00000  Uiso   1.00
C978   C     0.56795   0.49398   0.94508   0.00000  Uiso   1.00
C979   C     0.54143   0.50933   0.92422   0.00000  Uiso   1.00
H980   H     0.59199   0.45994   0.57296   0.00000  Uiso   1.00
H981   H     0.34933   0.52680   0.70904   0.00000  Uiso   1.00
H982   H     0.39373   0.59829   0.91515   0.00000  Uiso   1.00
H983   H     0.39064   0.58725   0.97114   0.00000  Uiso   1.00
H984   H     0.65666   0.55582   0.91751   0.00000  Uiso   1.00
H985   H     0.65339   0.54132   0.97281   0.00000  Uiso   1.00
H986   H     0.65317   0.61618   0.50197   0.00000  Uiso   1.00
H987   H     0.60969   0.59868   0.97593   0.00000  Uiso   1.00
H988   H     0.65664   0.63091   0.94641   0.00000  Uiso   1.00
H989   H     0.43292   0.42245   0.52257   0.00000  Uiso   1.00
H990   H     0.38088   0.43268   0.51764   0.00000  Uiso   1.00
H991   H     0.65221   0.47403   0.79119   0.00000  Uiso   1.00
H992   H     0.40424   0.42236   0.60537   0.00000  Uiso   1.00
H993   H     0.35263   0.43257   0.60067   0.00000  Uiso   1.00
H994   H     0.34597   0.36531   0.55372   0.00000  Uiso   1.00
H995   H     0.35319   0.35714   0.60759   0.00000  Uiso   1.00
H996   H     0.39779   0.35505   0.55853   0.00000  Uiso   1.00
H997   H     0.54008   0.33710   0.71071   0.00000  Uiso   1.00
H998   H     0.45891   0.66468   0.78980   0.00000  Uiso   1.00
H999   H     0.60125   0.49212   0.92722   0.00000  Uiso   1.00
H1000  H     0.61387   0.46674   0.99225   0.00000  Uiso   1.00
H1001  H     0.46951   0.49639   0.58131   0.00000  Uiso   1.00
H1002  H     0.37606   0.51488   0.50288   0.00000  Uiso   1.00
H1003  H     0.55635   0.52081   0.89162   0.00000  Uiso   1.00
O1004  O     0.50000   0.50000   0.75000   0.00000  Uiso   1.00
O1005  O     0.48784   0.45970   0.65459   0.00000  Uiso   1.00
O1006  O     0.46274   0.53724   0.84968   0.00000  Uiso   1.00
O1007  O     0.54157   0.51092   0.64606   0.00000  Uiso   1.00
O1008  O     0.50785   0.49213   0.84968   0.00000  Uiso   1.00
O1009  O     0.39890   0.53689   0.92035   0.00000  Uiso   1.00
O1010  O     0.41459   0.48081   0.54897   0.00000  Uiso   1.00
O1011  O     0.51264   0.41352   0.78214   0.00000  Uiso   1.00
O1012  O     0.47965   0.59418   0.77014   0.00000  Uiso   1.00
O1013  O     0.40745   0.46625   0.73413   0.00000  Uiso   1.00
O1014  O     0.60026   0.52605   0.71361   0.00000  Uiso   1.00
O1015  O     0.40405   0.52211   0.78213   0.00000  Uiso   1.00
O1016  O     0.58824   0.48559   0.77014   0.00000  Uiso   1.00
O1017  O     0.47093   0.40277   0.73413   0.00000  Uiso   1.00
O1018  O     0.53678   0.58953   0.71361   0.00000  Uiso   1.00
Zn1019 Zn    0.52672   0.47327   0.78734   0.00000  Uiso   1.00
Zn1020 Zn    0.46713   0.45791   0.71876   0.00000  Uiso   1.00
Zn1021 Zn    0.54389   0.53109   0.70657   0.00000  Uiso   1.00
Zn1022 Zn    0.46226   0.53773   0.78734   0.00000  Uiso   1.00
C1023  C     0.71943   0.49310   0.76001   0.00000  Uiso   1.00
C1024  C     0.83196   0.48610   0.55989   0.00000  Uiso   1.00
C1025  C     0.90219   0.46723   0.55636   0.00000  Uiso   1.00
C1026  C     0.94751   0.50715   0.73992   0.00000  Uiso   1.00
C1027  C     0.80260   0.52038   0.92062   0.00000  Uiso   1.00
C1028  C     0.99346   0.50967   0.73556   0.00000  Uiso   1.00
C1029  C     0.67410   0.49090   0.76411   0.00000  Uiso   1.00
C1030  C     0.84719   0.65587   0.73628   0.00000  Uiso   1.00
C1031  C     0.81875   0.34512   0.76402   0.00000  Uiso   1.00
C1032  C     0.82290   0.38923   0.76019   0.00000  Uiso   1.00
C1033  C     0.84330   0.61129   0.74011   0.00000  Uiso   1.00
C1034  C     0.74337   0.51462   0.98708   0.00000  Uiso   1.00
C1035  C     0.85228   0.48164   0.62939   0.00000  Uiso   1.00
C1036  C     0.81524   0.51805   0.87103   0.00000  Uiso   1.00
C1037  C     0.91458   0.47125   0.51057   0.00000  Uiso   1.00
C1038  C     0.86128   0.47563   0.58106   0.00000  Uiso   1.00
C1039  C     0.75991   0.52653   0.94337   0.00000  Uiso   1.00
C1040  C     0.71484   0.57414   0.93978   0.00000  Uiso   1.00
C1041  C     0.99917   0.56633   0.94926   0.00000  Uiso   1.00
C1042  C     0.97851   0.60557   0.96966   0.00000  Uiso   1.00
C1043  C     0.73697   0.43775   0.53945   0.00000  Uiso   1.00
C1044  C     0.71517   0.41754   0.58332   0.00000  Uiso   1.00
C1045  C     0.76877   0.49865   0.50934   0.00000  Uiso   1.00
C1046  C     0.70228   0.37085   0.57512   0.00000  Uiso   1.00
C1047  C     0.81391   0.49942   0.99006   0.00000  Uiso   1.00
C1048  C     0.83053   0.50996   0.94480   0.00000  Uiso   1.00
C1049  C     0.84296   0.48874   0.51319   0.00000  Uiso   1.00
C1050  C     0.88603   0.48367   0.98922   0.00000  Uiso   1.00
C1051  C     0.90128   0.49398   0.94508   0.00000  Uiso   1.00
C1052  C     0.87477   0.50933   0.92422   0.00000  Uiso   1.00
H1053  H     0.92532   0.45994   0.57296   0.00000  Uiso   1.00
H1054  H     0.68266   0.52680   0.70904   0.00000  Uiso   1.00
H1055  H     0.72706   0.59829   0.91515   0.00000  Uiso   1.00
H1056  H     0.72398   0.58725   0.97114   0.00000  Uiso   1.00
H1057  H     0.98999   0.55582   0.91751   0.00000  Uiso   1.00
H1058  H     0.98672   0.54132   0.97281   0.00000  Uiso   1.00
H1059  H     0.98650   0.61618   0.50197   0.00000  Uiso   1.00
H1060  H     0.94302   0.59868   0.97593   0.00000  Uiso   1.00
H1061  H     0.98997   0.63091   0.94641   0.00000  Uiso   1.00
H1062  H     0.76626   0.42245   0.52257   0.00000  Uiso   1.00
H1063  H     0.71421   0.43268   0.51764   0.00000  Uiso   1.00
H1064  H     0.98555   0.47403   0.79119   0.00000  Uiso   1.00
H1065  H     0.73758   0.42236   0.60537   0.00000  Uiso   1.00
H1066  H     0.68597   0.43257   0.60067   0.00000  Uiso   1.00
H1067  H     0.67930   0.36531   0.55372   0.00000  Uiso   1.00
H1068  H     0.68653   0.35714   0.60759   0.00000  Uiso   1.00
H1069  H     0.73112   0.35505   0.55853   0.00000  Uiso   1.00
H1070  H     0.87342   0.33710   0.71071   0.00000  Uiso   1.00
H1071  H     0.79225   0.66468   0.78980   0.00000  Uiso   1.00
H1072  H     0.93459   0.49212   0.92722   0.00000  Uiso   1.00
H1073  H     0.94720   0.46674   0.99225   0.00000  Uiso   1.00
H1074  H     0.80284   0.49639   0.58131   0.00000  Uiso   1.00
H1075  H     0.70939   0.51488   0.50288   0.00000  Uiso   1.00
H1076  H     0.88968   0.52081   0.89162   0.00000  Uiso   1.00
O1077  O     0.83333   0.50000   0.75000   0.00000  Uiso   1.00
O1078  O     0.82118   0.45970   0.65459   0.00000  Uiso   1.00
O1079  O     0.79607   0.53724   0.84968   0.00000  Uiso   1.00
O1080  O     0.87491   0.51092   0.64606   0.00000  Uiso   1.00
O1081  O     0.84118   0.49213   0.84968   0.00000  Uiso   1.00
O1082  O     0.73224   0.53689   0.92035   0.00000  Uiso   1.00
O1083  O     0.74792   0.48081   0.54897   0.00000  Uiso   1.00
O1084  O     0.84597   0.41352   0.78214   0.00000  Uiso   1.00
O1085  O     0.81298   0.59418   0.77014   0.00000  Uiso   1.00
O1086  O     0.74078   0.46625   0.73413   0.00000  Uiso   1.00
O1087  O     0.93360   0.52605   0.71361   0.00000  Uiso   1.00
O1088  O     0.73738   0.52211   0.78213   0.00000  Uiso   1.00
O1089  O     0.92158   0.48559   0.77014   0.00000  Uiso   1.00
O1090  O     0.80426   0.40277   0.73413   0.00000  Uiso   1.00
O1091  O     0.87012   0.58953   0.71361   0.00000  Uiso   1.00
Zn1092 Zn    0.86005   0.47327   0.78734   0.00000  Uiso   1.00
Zn1093 Zn    0.80046   0.45791   0.71876   0.00000  Uiso   1.00
Zn1094 Zn    0.87723   0.53109   0.70657   0.00000  Uiso   1.00
Zn1095 Zn    0.79560   0.53773   0.78734   0.00000  Uiso   1.00
C1096  C     0.05276   0.82644   0.76001   0.00000  Uiso   1.00
C1097  C     0.16530   0.81943   0.55989   0.00000  Uiso   1.00
C1098  C     0.23553   0.80056   0.55636   0.00000  Uiso   1.00
C1099  C     0.28085   0.84049   0.73992   0.00000  Uiso   1.00
C1100  C     0.13593   0.85372   0.92062   0.00000  Uiso   1.00
C1101  C     0.32679   0.84301   0.73556   0.00000  Uiso   1.00
C1102  C     0.00744   0.82423   0.76411   0.00000  Uiso   1.00
C1103  C     0.18052   0.98921   0.73628   0.00000  Uiso   1.00
C1104  C     0.15208   0.67845   0.76402   0.00000  Uiso   1.00
C1105  C     0.15623   0.72257   0.76019   0.00000  Uiso   1.00
C1106  C     0.17663   0.94463   0.74011   0.00000  Uiso   1.00
C1107  C     0.07671   0.84795   0.98708   0.00000  Uiso   1.00
C1108  C     0.18561   0.81498   0.62939   0.00000  Uiso   1.00
C1109  C     0.14857   0.85139   0.87103   0.00000  Uiso   1.00
C1110  C     0.24791   0.80459   0.51057   0.00000  Uiso   1.00
C1111  C     0.19462   0.80897   0.58106   0.00000  Uiso   1.00
C1112  C     0.09324   0.85986   0.94337   0.00000  Uiso   1.00
C1113  C     0.04817   0.90748   0.93978   0.00000  Uiso   1.00
C1114  C     0.33250   0.89966   0.94926   0.00000  Uiso   1.00
C1115  C     0.31185   0.93891   0.96966   0.00000  Uiso   1.00
C1116  C     0.07030   0.77108   0.53945   0.00000  Uiso   1.00
C1117  C     0.04850   0.75087   0.58332   0.00000  Uiso   1.00
C1118  C     0.10210   0.83199   0.50934   0.00000  Uiso   1.00
C1119  C     0.03561   0.70418   0.57512   0.00000  Uiso   1.00
C1120  C     0.14724   0.83275   0.99006   0.00000  Uiso   1.00
C1121  C     0.16387   0.84330   0.94480   0.00000  Uiso   1.00
C1122  C     0.17629   0.82207   0.51319   0.00000  Uiso   1.00
C1123  C     0.21936   0.81700   0.98922   0.00000  Uiso   1.00
C1124  C     0.23462   0.82731   0.94508   0.00000  Uiso   1.00
C1125  C     0.20810   0.84266   0.92422   0.00000  Uiso   1.00
H1126  H     0.25865   0.79328   0.57296   0.00000  Uiso   1.00
H1127  H     0.01599   0.86013   0.70904   0.00000  Uiso   1.00
H1128  H     0.06039   0.93162   0.91515   0.00000  Uiso   1.00
H1129  H     0.05731   0.92058   0.97114   0.00000  Uiso   1.00
H1130  H     0.32332   0.88915   0.91751   0.00000  Uiso   1.00
H1131  H     0.32006   0.87465   0.97281   0.00000  Uiso   1.00
H1132  H     0.31984   0.94952   0.50197   0.00000  Uiso   1.00
H1133  H     0.27635   0.93202   0.97593   0.00000  Uiso   1.00
H1134  H     0.32331   0.96424   0.94641   0.00000  Uiso   1.00
H1135  H     0.09959   0.75579   0.52257   0.00000  Uiso   1.00
H1136  H     0.04754   0.76601   0.51764   0.00000  Uiso   1.00
H1137  H     0.31888   0.80737   0.79119   0.00000  Uiso   1.00
H1138  H     0.07091   0.75570   0.60537   0.00000  Uiso   1.00
H1139  H     0.01930   0.76590   0.60067   0.00000  Uiso   1.00
H1140  H     0.01264   0.69865   0.55372   0.00000  Uiso   1.00
H1141  H     0.01986   0.69048   0.60759   0.00000  Uiso   1.00
H1142  H     0.06445   0.68838   0.55853   0.00000  Uiso   1.00
H1143  H     0.20675   0.67044   0.71071   0.00000  Uiso   1.00
H1144  H     0.12558   0.99801   0.78980   0.00000  Uiso   1.00
H1145  H     0.26792   0.82545   0.92722   0.00000  Uiso   1.00
H1146  H     0.28054   0.80008   0.99225   0.00000  Uiso   1.00
H1147  H     0.13617   0.82972   0.58131   0.00000  Uiso   1.00
H1148  H     0.04273   0.84821   0.50288   0.00000  Uiso   1.00
H1149  H     0.22301   0.85414   0.89162   0.00000  Uiso   1.00
O1150  O     0.16667   0.83333   0.75000   0.00000  Uiso   1.00
O1151  O     0.15451   0.79304   0.65459   0.00000  Uiso   1.00
O1152  O     0.12940   0.87058   0.84968   0.00000  Uiso   1.00
O1153  O     0.20824   0.84425   0.64606   0.00000  Uiso   1.00
O1154  O     0.17451   0.82546   0.84968   0.00000  Uiso   1.00
O1155  O     0.06557   0.87023   0.92035   0.00000  Uiso   1.00
O1156  O     0.08126   0.81415   0.54897   0.00000  Uiso   1.00
O1157  O     0.17930   0.74686   0.78214   0.00000  Uiso   1.00
O1158  O     0.14632   0.92751   0.77014   0.00000  Uiso   1.00
O1159  O     0.07412   0.79958   0.73413   0.00000  Uiso   1.00
O1160  O     0.26693   0.85939   0.71361   0.00000  Uiso   1.00
O1161  O     0.07071   0.85544   0.78213   0.00000  Uiso   1.00
O1162  O     0.25491   0.81892   0.77014   0.00000  Uiso   1.00
O1163  O     0.13760   0.73610   0.73413   0.00000  Uiso   1.00
O1164  O     0.20345   0.92286   0.71361   0.00000  Uiso   1.00
Zn1165 Zn    0.19338   0.80661   0.78734   0.00000  Uiso   1.00
Zn1166 Zn    0.13379   0.79124   0.71876   0.00000  Uiso   1.00
Zn1167 Zn    0.21056   0.86442   0.70657   0.00000  Uiso   1.00
Zn1168 Zn    0.12893   0.87106   0.78734   0.00000  Uiso   1.00
C1169  C     0.38610   0.82644   0.76001   0.00000  Uiso   1.00
C1170  C     0.49863   0.81943   0.55989   0.00000  Uiso   1.00
C1171  C     0.56886   0.80056   0.55636   0.00000  Uiso   1.00
C1172  C     0.61418   0.84049   0.73992   0.00000  Uiso   1.00
C1173  C     0.46926   0.85372   0.92062   0.00000  Uiso   1.00
C1174  C     0.66013   0.84301   0.73556   0.00000  Uiso   1.00
C1175  C     0.34077   0.82423   0.76411   0.00000  Uiso   1.00
C1176  C     0.51385   0.98921   0.73628   0.00000  Uiso   1.00
C1177  C     0.48541   0.67845   0.76402   0.00000  Uiso   1.00
C1178  C     0.48957   0.72257   0.76019   0.00000  Uiso   1.00
C1179  C     0.50997   0.94463   0.74011   0.00000  Uiso   1.00
C1180  C     0.41004   0.84795   0.98708   0.00000  Uiso   1.00
C1181  C     0.51894   0.81498   0.62939   0.00000  Uiso   1.00
C1182  C     0.48191   0.85139   0.87103   0.00000  Uiso   1.00
C1183  C     0.58124   0.80459   0.51057   0.00000  Uiso   1.00
C1184  C     0.52795   0.80897   0.58106   0.00000  Uiso   1.00
C1185  C     0.42658   0.85986   0.94337   0.00000  Uiso   1.00
C1186  C     0.38150   0.90748   0.93978   0.00000  Uiso   1.00
C1187  C     0.66583   0.89966   0.94926   0.00000  Uiso   1.00
C1188  C     0.64518   0.93891   0.96966   0.00000  Uiso   1.00
C1189  C     0.40363   0.77108   0.53945   0.00000  Uiso   1.00
C1190  C     0.38184   0.75087   0.58332   0.00000  Uiso   1.00
C1191  C     0.43543   0.83199   0.50934   0.00000  Uiso   1.00
C1192  C     0.36894   0.70418   0.57512   0.00000  Uiso   1.00
C1193  C     0.48057   0.83275   0.99006   0.00000  Uiso   1.00
C1194  C     0.49720   0.84330   0.94480   0.00000  Uiso   1.00
C1195  C     0.50963   0.82207   0.51319   0.00000  Uiso   1.00
C1196  C     0.55269   0.81700   0.98922   0.00000  Uiso   1.00
C1197  C     0.56795   0.82731   0.94508   0.00000  Uiso   1.00
C1198  C     0.54143   0.84266   0.92422   0.00000  Uiso   1.00
H1199  H     0.59199   0.79328   0.57296   0.00000  Uiso   1.00
H1200  H     0.34933   0.86013   0.70904   0.00000  Uiso   1.00
H1201  H     0.39373   0.93162   0.91515   0.00000  Uiso   1.00
H1202  H     0.39064   0.92058   0.97114   0.00000  Uiso   1.00
H1203  H     0.65666   0.88915   0.91751   0.00000  Uiso   1.00
H1204  H     0.65339   0.87465   0.97281   0.00000  Uiso   1.00
H1205  H     0.65317   0.94952   0.50197   0.00000  Uiso   1.00
H1206  H     0.60969   0.93202   0.97593   0.00000  Uiso   1.00
H1207  H     0.65664   0.96424   0.94641   0.00000  Uiso   1.00
H1208  H     0.43292   0.75579   0.52257   0.00000  Uiso   1.00
H1209  H     0.38088   0.76601   0.51764   0.00000  Uiso   1.00
H1210  H     0.65221   0.80737   0.79119   0.00000  Uiso   1.00
H1211  H     0.40424   0.75570   0.60537   0.00000  Uiso   1.00
H1212  H     0.35263   0.76590   0.60067   0.00000  Uiso   1.00
H1213  H     0.34597   0.69865   0.55372   0.00000  Uiso   1.00
H1214  H     0.35319   0.69048   0.60759   0.00000  Uiso   1.00
H1215  H     0.39779   0.68838   0.55853   0.00000  Uiso   1.00
H1216  H     0.54008   0.67044   0.71071   0.00000  Uiso   1.00
H1217  H     0.45891   0.99801   0.78980   0.00000  Uiso   1.00
H1218  H     0.60125   0.82545   0.92722   0.00000  Uiso   1.00
H1219  H     0.61387   0.80008   0.99225   0.00000  Uiso   1.00
H1220  H     0.46951   0.82972   0.58131   0.00000  Uiso   1.00
H1221  H     0.37606   0.84821   0.50288   0.00000  Uiso   1.00
H1222  H     0.55635   0.85414   0.89162   0.00000  Uiso   1.00
O1223  O     0.50000   0.83333   0.75000   0.00000  Uiso   1.00
O1224  O     0.48784   0.79304   0.65459   0.00000  Uiso   1.00
O1225  O     0.46274   0.87058   0.84968   0.00000  Uiso   1.00
O1226  O     0.54157   0.84425   0.64606   0.00000  Uiso   1.00
O1227  O     0.50785   0.82546   0.84968   0.00000  Uiso   1.00
O1228  O     0.39890   0.87023   0.92035   0.00000  Uiso   1.00
O1229  O     0.41459   0.81415   0.54897   0.00000  Uiso   1.00
O1230  O     0.51264   0.74686   0.78214   0.00000  Uiso   1.00
O1231  O     0.47965   0.92751   0.77014   0.00000  Uiso   1.00
O1232  O     0.40745   0.79958   0.73413   0.00000  Uiso   1.00
O1233  O     0.60026   0.85939   0.71361   0.00000  Uiso   1.00
O1234  O     0.40405   0.85544   0.78213   0.00000  Uiso   1.00
O1235  O     0.58824   0.81892   0.77014   0.00000  Uiso   1.00
O1236  O     0.47093   0.73610   0.73413   0.00000  Uiso   1.00
O1237  O     0.53678   0.92286   0.71361   0.00000  Uiso   1.00
Zn1238 Zn    0.52672   0.80661   0.78734   0.00000  Uiso   1.00
Zn1239 Zn    0.46713   0.79124   0.71876   0.00000  Uiso   1.00
Zn1240 Zn    0.54389   0.86442   0.70657   0.00000  Uiso   1.00
Zn1241 Zn    0.46226   0.87106   0.78734   0.00000  Uiso   1.00
C1242  C     0.71943   0.82644   0.76001   0.00000  Uiso   1.00
C1243  C     0.83196   0.81943   0.55989   0.00000  Uiso   1.00
C1244  C     0.90219   0.80056   0.55636   0.00000  Uiso   1.00
C1245  C     0.94751   0.84049   0.73992   0.00000  Uiso   1.00
C1246  C     0.80260   0.85372   0.92062   0.00000  Uiso   1.00
C1247  C     0.99346   0.84301   0.73556   0.00000  Uiso   1.00
C1248  C     0.67410   0.82423   0.76411   0.00000  Uiso   1.00
C1249  C     0.84719   0.98921   0.73628   0.00000  Uiso   1.00
C1250  C     0.81875   0.67845   0.76402   0.00000  Uiso   1.00
C1251  C     0.82290   0.72257   0.76019   0.00000  Uiso   1.00
C1252  C     0.84330   0.94463   0.74011   0.00000  Uiso   1.00
C1253  C     0.74337   0.84795   0.98708   0.00000  Uiso   1.00
C1254  C     0.85228   0.81498   0.62939   0.00000  Uiso   1.00
C1255  C     0.81524   0.85139   0.87103   0.00000  Uiso   1.00
C1256  C     0.91458   0.80459   0.51057   0.00000  Uiso   1.00
C1257  C     0.86128   0.80897   0.58106   0.00000  Uiso   1.00
C1258  C     0.75991   0.85986   0.94337   0.00000  Uiso   1.00
C1259  C     0.71484   0.90748   0.93978   0.00000  Uiso   1.00
C1260  C     0.99917   0.89966   0.94926   0.00000  Uiso   1.00
C1261  C     0.97851   0.93891   0.96966   0.00000  Uiso   1.00
C1262  C     0.73697   0.77108   0.53945   0.00000  Uiso   1.00
C1263  C     0.71517   0.75087   0.58332   0.00000  Uiso   1.00
C1264  C     0.76877   0.83199   0.50934   0.00000  Uiso   1.00
C1265  C     0.70228   0.70418   0.57512   0.00000  Uiso   1.00
C1266  C     0.81391   0.83275   0.99006   0.00000  Uiso   1.00
C1267  C     0.83053   0.84330   0.94480   0.00000  Uiso   1.00
C1268  C     0.84296   0.82207   0.51319   0.00000  Uiso   1.00
C1269  C     0.88603   0.81700   0.98922   0.00000  Uiso   1.00
C1270  C     0.90128   0.82731   0.94508   0.00000  Uiso   1.00
C1271  C     0.87477   0.84266   0.92422   0.00000  Uiso   1.00
H1272  H     0.92532   0.79328   0.57296   0.00000  Uiso   1.00
H1273  H     0.68266   0.86013   0.70904   0.00000  Uiso   1.00
H1274  H     0.72706   0.93162   0.91515   0.00000  Uiso   1.00
H1275  H     0.72398   0.92058   0.97114   0.00000  Uiso   1.00
H1276  H     0.98999   0.88915   0.91751   0.00000  Uiso   1.00
H1277  H     0.98672   0.87465   0.97281   0.00000  Uiso   1.00
H1278  H     0.98650   0.94952   0.50197   0.00000  Uiso   1.00
H1279  H     0.94302   0.93202   0.97593   0.00000  Uiso   1.00
H1280  H     0.98997   0.96424   0.94641   0.00000  Uiso   1.00
H1281  H     0.76626   0.75579   0.52257   0.00000  Uiso   1.00
H1282  H     0.71421   0.76601   0.51764   0.00000  Uiso   1.00
H1283  H     0.98555   0.80737   0.79119   0.00000  Uiso   1.00
H1284  H     0.73758   0.75570   0.60537   0.00000  Uiso   1.00
H1285  H     0.68597   0.76590   0.60067   0.00000  Uiso   1.00
H1286  H     0.67930   0.69865   0.55372   0.00000  Uiso   1.00
H1287  H     0.68653   0.69048   0.60759   0.00000  Uiso   1.00
H1288  H     0.73112   0.68838   0.55853   0.00000  Uiso   1.00
H1289  H     0.87342   0.67044   0.71071   0.00000  Uiso   1.00
H1290  H     0.79225   0.99801   0.78980   0.00000  Uiso   1.00
H1291  H     0.93459   0.82545   0.92722   0.00000  Uiso   1.00
H1292  H     0.94720   0.80008   0.99225   0.00000  Uiso   1.00
H1293  H     0.80284   0.82972   0.58131   0.00000  Uiso   1.00
H1294  H     0.70939   0.84821   0.50288   0.00000  Uiso   1.00
H1295  H     0.88968   0.85414   0.89162   0.00000  Uiso   1.00
O1296  O     0.83333   0.83333   0.75000   0.00000  Uiso   1.00
O1297  O     0.82118   0.79304   0.65459   0.00000  Uiso   1.00
O1298  O     0.79607   0.87058   0.84968   0.00000  Uiso   1.00
O1299  O     0.87491   0.84425   0.64606   0.00000  Uiso   1.00
O1300  O     0.84118   0.82546   0.84968   0.00000  Uiso   1.00
O1301  O     0.73224   0.87023   0.92035   0.00000  Uiso   1.00
O1302  O     0.74792   0.81415   0.54897   0.00000  Uiso   1.00
O1303  O     0.84597   0.74686   0.78214   0.00000  Uiso   1.00
O1304  O     0.81298   0.92751   0.77014   0.00000  Uiso   1.00
O1305  O     0.74078   0.79958   0.73413   0.00000  Uiso   1.00
O1306  O     0.93360   0.85939   0.71361   0.00000  Uiso   1.00
O1307  O     0.73738   0.85544   0.78213   0.00000  Uiso   1.00
O1308  O     0.92158   0.81892   0.77014   0.00000  Uiso   1.00
O1309  O     0.80426   0.73610   0.73413   0.00000  Uiso   1.00
O1310  O     0.87012   0.92286   0.71361   0.00000  Uiso   1.00
Zn1311 Zn    0.86005   0.80661   0.78734   0.00000  Uiso   1.00
Zn1312 Zn    0.80046   0.79124   0.71876   0.00000  Uiso   1.00
Zn1313 Zn    0.87723   0.86442   0.70657   0.00000  Uiso   1.00
Zn1314 Zn    0.79560   0.87106   0.78734   0.00000  Uiso   1.00
loop_
_geom_bond_atom_site_label_1
_geom_bond_atom_site_label_2
_geom_bond_distance
_geom_bond_site_symmetry_2
_ccdc_geom_bond_type
C1     O66     1.271   .     A
C1     O64     1.272   .     A
C1     C7      1.437   .     S
C2     C16     1.392   .     A
C2     H52     1.077   .     S
C2     C27     1.409   .     A
C3     H31     1.084   .     S
C3     C15     1.387   .     A
C3     C16     1.396   .     A
C4     O65     1.281   .     A
C4     C6      1.455   .     S
C4     O67     1.277   .     A
C5     C26     1.420   .     A
C5     C14     1.482   .     S
C5     C17     1.411   .     A
C6     C80     1.335   .     S
C6     H105    1.088   .     S
C7     C152    1.335   1_455 S
C7     H188    1.086   1_455 S
C8     C11     1.451   .     S
C8     C228    1.331   .     S
C8     H267    1.088   .     S
C9     C10     1.435   .     S
C9     C446    1.331   1_545 S
C9     H487    1.086   1_545 S
C10    O62     1.279   .     A
C10    O68     1.279   .     A
C11    O69     1.269   .     A
C11    O63     1.269   .     A
C12    C17     1.395   .     A
C12    C680    1.393   .     S
C12    H710    1.083   .     S
C13    C16     1.449   .     S
C13    O56     1.277   .     A
C13    O58     1.268   .     A
C14    O59     1.284   .     A
C14    O57     1.282   .     A
C15    C685    1.401   1_554 S
C15    H708    1.084   1_554 S
C17    O60     1.386   .     S
C18    H34     1.118   .     S
C18    O60     1.418   .     S
C18    H33     1.111   .     S
C18    C165    1.529   1_455 S
C19    C20     1.526   .     S
C19    H36     1.111   .     S
C19    H35     1.112   .     S
C19    C91     1.529   .     S
C20    H38     1.111   .     S
C20    H39     1.111   .     S
C20    H694    1.111   .     S
C21    O61     1.412   .     S
C21    C22     1.528   .     S
C21    H40     1.115   .     S
C21    H41     1.115   .     S
C22    C24     1.526   .     S
C22    H44     1.112   .     S
C22    H43     1.112   .     S
C23    O61     1.381   .     S
C23    C669    1.393   1_554 S
C23    C682    1.427   1_554 S
C24    H46     1.110   .     S
C24    H47     1.111   .     S
C24    H45     1.111   .     S
C25    C26     1.426   .     A
C25    C680    1.427   .     S
C25    C684    1.430   .     S
C26    C30     1.411   .     A
C27    C682    1.430   1_554 S
C27    C685    1.423   1_554 S
C28    C29     1.389   .     A
C28    C672    1.401   .     S
C28    C684    1.423   .     S
C29    H50     1.084   .     S
C29    C30     1.382   .     A
C30    H54     1.081   .     S
H32    C152    1.088   1_455 S
H37    C677    1.111   1_554 S
H42    C80     1.086   .     S
H48    C446    1.088   1_545 S
H49    C228    1.086   .     S
H51    C672    1.084   .     S
H53    C669    1.083   1_554 S
O55    Zn72    1.929   .     S
O55    Zn70    1.959   .     S
O55    Zn73    1.931   .     S
O55    Zn71    1.949   .     S
O56    Zn71    1.932   .     S
O57    Zn73    1.945   .     S
O58    Zn72    1.942   .     S
O59    Zn70    1.930   .     S
O62    Zn70    1.928   .     S
O63    Zn73    1.928   .     S
O64    Zn71    1.923   .     S
O65    Zn72    1.935   .     S
O66    Zn73    1.932   .     S
O67    Zn70    1.920   .     S
O68    Zn71    1.933   .     S
O69    Zn72    1.929   .     S
C74    O139    1.271   .     A
C74    O137    1.272   .     A
C74    C80     1.437   .     S
C75    C89     1.392   .     A
C75    H125    1.077   .     S
C75    C100    1.409   .     A
C76    H104    1.084   .     S
C76    C88     1.387   .     A
C76    C89     1.396   .     A
C77    O138    1.281   .     A
C77    C79     1.455   .     S
C77    O140    1.277   .     A
C78    C99     1.420   .     A
C78    C87     1.482   .     S
C78    C90     1.411   .     A
C79    C153    1.335   .     S
C79    H178    1.088   .     S
C81    C84     1.451   .     S
C81    C301    1.331   .     S
C81    H340    1.088   .     S
C82    C83     1.435   .     S
C82    C519    1.331   1_545 S
C82    H560    1.086   1_545 S
C83    O135    1.279   .     A
C83    O141    1.279   .     A
C84    O142    1.269   .     A
C84    O136    1.269   .     A
C85    C90     1.395   .     A
C85    C753    1.393   .     S
C85    H783    1.083   .     S
C86    C89     1.449   .     S
C86    O129    1.277   .     A
C86    O131    1.268   .     A
C87    O132    1.284   .     A
C87    O130    1.282   .     A
C88    C758    1.401   1_554 S
C88    H781    1.084   1_554 S
C90    O133    1.386   .     S
C91    H107    1.118   .     S
C91    O133    1.418   .     S
C91    H106    1.111   .     S
C92    C93     1.526   .     S
C92    H109    1.111   .     S
C92    H108    1.112   .     S
C92    C164    1.529   .     S
C93    H111    1.111   .     S
C93    H112    1.111   .     S
C93    H767    1.111   .     S
C94    O134    1.412   .     S
C94    C95     1.528   .     S
C94    H113    1.115   .     S
C94    H114    1.115   .     S
C95    C97     1.526   .     S
C95    H117    1.112   .     S
C95    H116    1.112   .     S
C96    O134    1.381   .     S
C96    C742    1.393   1_554 S
C96    C755    1.427   1_554 S
C97    H119    1.110   .     S
C97    H120    1.111   .     S
C97    H118    1.111   .     S
C98    C99     1.426   .     A
C98    C753    1.427   .     S
C98    C757    1.430   .     S
C99    C103    1.411   .     A
C100   C755    1.430   1_554 S
C100   C758    1.423   1_554 S
C101   C102    1.389   .     A
C101   C745    1.401   .     S
C101   C757    1.423   .     S
C102   H123    1.084   .     S
C102   C103    1.382   .     A
C103   H127    1.081   .     S
H110   C750    1.111   1_554 S
H115   C153    1.086   .     S
H121   C519    1.088   1_545 S
H122   C301    1.086   .     S
H124   C745    1.084   .     S
H126   C742    1.083   1_554 S
O128   Zn145   1.929   .     S
O128   Zn143   1.959   .     S
O128   Zn146   1.931   .     S
O128   Zn144   1.949   .     S
O129   Zn144   1.932   .     S
O130   Zn146   1.945   .     S
O131   Zn145   1.942   .     S
O132   Zn143   1.930   .     S
O135   Zn143   1.928   .     S
O136   Zn146   1.928   .     S
O137   Zn144   1.923   .     S
O138   Zn145   1.935   .     S
O139   Zn146   1.932   .     S
O140   Zn143   1.920   .     S
O141   Zn144   1.933   .     S
O142   Zn145   1.929   .     S
C147   O212    1.271   .     A
C147   O210    1.272   .     A
C147   C153    1.437   .     S
C148   C162    1.392   .     A
C148   H198    1.077   .     S
C148   C173    1.409   .     A
C149   H177    1.084   .     S
C149   C161    1.387   .     A
C149   C162    1.396   .     A
C150   O211    1.281   .     A
C150   C152    1.455   .     S
C150   O213    1.277   .     A
C151   C172    1.420   .     A
C151   C160    1.482   .     S
C151   C163    1.411   .     A
C152   C7      1.335   1_655 S
C152   H32     1.088   1_655 S
C154   C157    1.451   .     S
C154   C374    1.331   .     S
C154   H413    1.088   .     S
C155   C156    1.435   .     S
C155   C592    1.331   1_545 S
C155   H633    1.086   1_545 S
C156   O208    1.279   .     A
C156   O214    1.279   .     A
C157   O215    1.269   .     A
C157   O209    1.269   .     A
C158   C163    1.395   .     A
C158   C826    1.393   .     S
C158   H856    1.083   .     S
C159   C162    1.449   .     S
C159   O202    1.277   .     A
C159   O204    1.268   .     A
C160   O205    1.284   .     A
C160   O203    1.282   .     A
C161   C831    1.401   1_554 S
C161   H854    1.084   1_554 S
C163   O206    1.386   .     S
C164   H180    1.118   .     S
C164   O206    1.418   .     S
C164   H179    1.111   .     S
C165   C166    1.526   .     S
C165   H182    1.111   .     S
C165   H181    1.112   .     S
C165   C18     1.529   1_655 S
C166   H184    1.111   .     S
C166   H185    1.111   .     S
C166   H840    1.111   .     S
C167   O207    1.412   .     S
C167   C168    1.528   .     S
C167   H186    1.115   .     S
C167   H187    1.115   .     S
C168   C170    1.526   .     S
C168   H190    1.112   .     S
C168   H189    1.112   .     S
C169   O207    1.381   .     S
C169   C815    1.393   1_554 S
C169   C828    1.427   1_554 S
C170   H192    1.110   .     S
C170   H193    1.111   .     S
C170   H191    1.111   .     S
C171   C172    1.426   .     A
C171   C826    1.427   .     S
C171   C830    1.430   .     S
C172   C176    1.411   .     A
C173   C828    1.430   1_554 S
C173   C831    1.423   1_554 S
C174   C175    1.389   .     A
C174   C818    1.401   .     S
C174   C830    1.423   .     S
C175   H196    1.084   .     S
C175   C176    1.382   .     A
C176   H200    1.081   .     S
H183   C823    1.111   1_554 S
H188   C7      1.086   1_655 S
H194   C592    1.088   1_545 S
H195   C374    1.086   .     S
H197   C818    1.084   .     S
H199   C815    1.083   1_554 S
O201   Zn218   1.929   .     S
O201   Zn216   1.959   .     S
O201   Zn219   1.931   .     S
O201   Zn217   1.949   .     S
O202   Zn217   1.932   .     S
O203   Zn219   1.945   .     S
O204   Zn218   1.942   .     S
O205   Zn216   1.930   .     S
O208   Zn216   1.928   .     S
O209   Zn219   1.928   .     S
O210   Zn217   1.923   .     S
O211   Zn218   1.935   .     S
O212   Zn219   1.932   .     S
O213   Zn216   1.920   .     S
O214   Zn217   1.933   .     S
O215   Zn218   1.929   .     S
C220   O285    1.271   .     A
C220   O283    1.272   .     A
C220   C226    1.437   .     S
C221   C235    1.392   .     A
C221   H271    1.077   .     S
C221   C246    1.409   .     A
C222   H250    1.084   .     S
C222   C234    1.387   .     A
C222   C235    1.396   .     A
C223   O284    1.281   .     A
C223   C225    1.455   .     S
C223   O286    1.277   .     A
C224   C245    1.420   .     A
C224   C233    1.482   .     S
C224   C236    1.411   .     A
C225   C299    1.335   .     S
C225   H324    1.088   .     S
C226   C371    1.335   1_455 S
C226   H407    1.086   1_455 S
C227   C230    1.451   .     S
C227   C447    1.331   .     S
C227   H486    1.088   .     S
C228   C229    1.435   .     S
C229   O281    1.279   .     A
C229   O287    1.279   .     A
C230   O288    1.269   .     A
C230   O282    1.269   .     A
C231   C236    1.395   .     A
C231   C899    1.393   .     S
C231   H929    1.083   .     S
C232   C235    1.449   .     S
C232   O275    1.277   .     A
C232   O277    1.268   .     A
C233   O278    1.284   .     A
C233   O276    1.282   .     A
C234   C904    1.401   1_554 S
C234   H927    1.084   1_554 S
C236   O279    1.386   .     S
C237   H253    1.118   .     S
C237   O279    1.418   .     S
C237   H252    1.111   .     S
C237   C384    1.529   1_455 S
C238   C239    1.526   .     S
C238   H255    1.111   .     S
C238   H254    1.112   .     S
C238   C310    1.529   .     S
C239   H257    1.111   .     S
C239   H258    1.111   .     S
C239   H913    1.111   .     S
C240   O280    1.412   .     S
C240   C241    1.528   .     S
C240   H259    1.115   .     S
C240   H260    1.115   .     S
C241   C243    1.526   .     S
C241   H263    1.112   .     S
C241   H262    1.112   .     S
C242   O280    1.381   .     S
C242   C888    1.393   1_554 S
C242   C901    1.427   1_554 S
C243   H265    1.110   .     S
C243   H266    1.111   .     S
C243   H264    1.111   .     S
C244   C245    1.426   .     A
C244   C899    1.427   .     S
C244   C903    1.430   .     S
C245   C249    1.411   .     A
C246   C901    1.430   1_554 S
C246   C904    1.423   1_554 S
C247   C248    1.389   .     A
C247   C891    1.401   .     S
C247   C903    1.423   .     S
C248   H269    1.084   .     S
C248   C249    1.382   .     A
C249   H273    1.081   .     S
H251   C371    1.088   1_455 S
H256   C896    1.111   1_554 S
H261   C299    1.086   .     S
H268   C447    1.086   .     S
H270   C891    1.084   .     S
H272   C888    1.083   1_554 S
O274   Zn291   1.929   .     S
O274   Zn289   1.959   .     S
O274   Zn292   1.931   .     S
O274   Zn290   1.949   .     S
O275   Zn290   1.932   .     S
O276   Zn292   1.945   .     S
O277   Zn291   1.942   .     S
O278   Zn289   1.930   .     S
O281   Zn289   1.928   .     S
O282   Zn292   1.928   .     S
O283   Zn290   1.923   .     S
O284   Zn291   1.935   .     S
O285   Zn292   1.932   .     S
O286   Zn289   1.920   .     S
O287   Zn290   1.933   .     S
O288   Zn291   1.929   .     S
C293   O358    1.271   .     A
C293   O356    1.272   .     A
C293   C299    1.437   .     S
C294   C308    1.392   .     A
C294   H344    1.077   .     S
C294   C319    1.409   .     A
C295   H323    1.084   .     S
C295   C307    1.387   .     A
C295   C308    1.396   .     A
C296   O357    1.281   .     A
C296   C298    1.455   .     S
C296   O359    1.277   .     A
C297   C318    1.420   .     A
C297   C306    1.482   .     S
C297   C309    1.411   .     A
C298   C372    1.335   .     S
C298   H397    1.088   .     S
C300   C303    1.451   .     S
C300   C520    1.331   .     S
C300   H559    1.088   .     S
C301   C302    1.435   .     S
C302   O354    1.279   .     A
C302   O360    1.279   .     A
C303   O361    1.269   .     A
C303   O355    1.269   .     A
C304   C309    1.395   .     A
C304   C972    1.393   .     S
C304   H1002   1.083   .     S
C305   C308    1.449   .     S
C305   O348    1.277   .     A
C305   O350    1.268   .     A
C306   O351    1.284   .     A
C306   O349    1.282   .     A
C307   C977    1.401   1_554 S
C307   H1000   1.084   1_554 S
C309   O352    1.386   .     S
C310   H326    1.118   .     S
C310   O352    1.418   .     S
C310   H325    1.111   .     S
C311   C312    1.526   .     S
C311   H328    1.111   .     S
C311   H327    1.112   .     S
C311   C383    1.529   .     S
C312   H330    1.111   .     S
C312   H331    1.111   .     S
C312   H986    1.111   .     S
C313   O353    1.412   .     S
C313   C314    1.528   .     S
C313   H332    1.115   .     S
C313   H333    1.115   .     S
C314   C316    1.526   .     S
C314   H336    1.112   .     S
C314   H335    1.112   .     S
C315   O353    1.381   .     S
C315   C961    1.393   1_554 S
C315   C974    1.427   1_554 S
C316   H338    1.110   .     S
C316   H339    1.111   .     S
C316   H337    1.111   .     S
C317   C318    1.426   .     A
C317   C972    1.427   .     S
C317   C976    1.430   .     S
C318   C322    1.411   .     A
C319   C974    1.430   1_554 S
C319   C977    1.423   1_554 S
C320   C321    1.389   .     A
C320   C964    1.401   .     S
C320   C976    1.423   .     S
C321   H342    1.084   .     S
C321   C322    1.382   .     A
C322   H346    1.081   .     S
H329   C969    1.111   1_554 S
H334   C372    1.086   .     S
H341   C520    1.086   .     S
H343   C964    1.084   .     S
H345   C961    1.083   1_554 S
O347   Zn364   1.929   .     S
O347   Zn362   1.959   .     S
O347   Zn365   1.931   .     S
O347   Zn363   1.949   .     S
O348   Zn363   1.932   .     S
O349   Zn365   1.945   .     S
O350   Zn364   1.942   .     S
O351   Zn362   1.930   .     S
O354   Zn362   1.928   .     S
O355   Zn365   1.928   .     S
O356   Zn363   1.923   .     S
O357   Zn364   1.935   .     S
O358   Zn365   1.932   .     S
O359   Zn362   1.920   .     S
O360   Zn363   1.933   .     S
O361   Zn364   1.929   .     S
C366   O431    1.271   .     A
C366   O429    1.272   .     A
C366   C372    1.437   .     S
C367   C381    1.392   .     A
C367   H417    1.077   .     S
C367   C392    1.409   .     A
C368   H396    1.084   .     S
C368   C380    1.387   .     A
C368   C381    1.396   .     A
C369   O430    1.281   .     A
C369   C371    1.455   .     S
C369   O432    1.277   .     A
C370   C391    1.420   .     A
C370   C379    1.482   .     S
C370   C382    1.411   .     A
C371   C226    1.335   1_655 S
C371   H251    1.088   1_655 S
C373   C376    1.451   .     S
C373   C593    1.331   .     S
C373   H632    1.088   .     S
C374   C375    1.435   .     S
C375   O427    1.279   .     A
C375   O433    1.279   .     A
C376   O434    1.269   .     A
C376   O428    1.269   .     A
C377   C382    1.395   .     A
C377   C1045   1.393   .     S
C377   H1075   1.083   .     S
C378   C381    1.449   .     S
C378   O421    1.277   .     A
C378   O423    1.268   .     A
C379   O424    1.284   .     A
C379   O422    1.282   .     A
C380   C1050   1.401   1_554 S
C380   H1073   1.084   1_554 S
C382   O425    1.386   .     S
C383   H399    1.118   .     S
C383   O425    1.418   .     S
C383   H398    1.111   .     S
C384   C385    1.526   .     S
C384   H401    1.111   .     S
C384   H400    1.112   .     S
C384   C237    1.529   1_655 S
C385   H403    1.111   .     S
C385   H404    1.111   .     S
C385   H1059   1.111   .     S
C386   O426    1.412   .     S
C386   C387    1.528   .     S
C386   H405    1.115   .     S
C386   H406    1.115   .     S
C387   C389    1.526   .     S
C387   H409    1.112   .     S
C387   H408    1.112   .     S
C388   O426    1.381   .     S
C388   C1034   1.393   1_554 S
C388   C1047   1.427   1_554 S
C389   H411    1.110   .     S
C389   H412    1.111   .     S
C389   H410    1.111   .     S
C390   C391    1.426   .     A
C390   C1045   1.427   .     S
C390   C1049   1.430   .     S
C391   C395    1.411   .     A
C392   C1047   1.430   1_554 S
C392   C1050   1.423   1_554 S
C393   C394    1.389   .     A
C393   C1037   1.401   .     S
C393   C1049   1.423   .     S
C394   H415    1.084   .     S
C394   C395    1.382   .     A
C395   H419    1.081   .     S
H402   C1042   1.111   1_554 S
H407   C226    1.086   1_655 S
H414   C593    1.086   .     S
H416   C1037   1.084   .     S
H418   C1034   1.083   1_554 S
O420   Zn437   1.929   .     S
O420   Zn435   1.959   .     S
O420   Zn438   1.931   .     S
O420   Zn436   1.949   .     S
O421   Zn436   1.932   .     S
O422   Zn438   1.945   .     S
O423   Zn437   1.942   .     S
O424   Zn435   1.930   .     S
O427   Zn435   1.928   .     S
O428   Zn438   1.928   .     S
O429   Zn436   1.923   .     S
O430   Zn437   1.935   .     S
O431   Zn438   1.932   .     S
O432   Zn435   1.920   .     S
O433   Zn436   1.933   .     S
O434   Zn437   1.929   .     S
C439   O504    1.271   .     A
C439   O502    1.272   .     A
C439   C445    1.437   .     S
C440   C454    1.392   .     A
C440   H490    1.077   .     S
C440   C465    1.409   .     A
C441   H469    1.084   .     S
C441   C453    1.387   .     A
C441   C454    1.396   .     A
C442   O503    1.281   .     A
C442   C444    1.455   .     S
C442   O505    1.277   .     A
C443   C464    1.420   .     A
C443   C452    1.482   .     S
C443   C455    1.411   .     A
C444   C518    1.335   .     S
C444   H543    1.088   .     S
C445   C590    1.335   1_455 S
C445   H626    1.086   1_455 S
C446   C449    1.451   .     S
C446   C9      1.331   1_565 S
C446   H48     1.088   1_565 S
C447   C448    1.435   .     S
C448   O500    1.279   .     A
C448   O506    1.279   .     A
C449   O507    1.269   .     A
C449   O501    1.269   .     A
C450   C455    1.395   .     A
C450   C1118   1.393   .     S
C450   H1148   1.083   .     S
C451   C454    1.449   .     S
C451   O494    1.277   .     A
C451   O496    1.268   .     A
C452   O497    1.284   .     A
C452   O495    1.282   .     A
C453   C1123   1.401   1_554 S
C453   H1146   1.084   1_554 S
C455   O498    1.386   .     S
C456   H472    1.118   .     S
C456   O498    1.418   .     S
C456   H471    1.111   .     S
C456   C603    1.529   1_455 S
C457   C458    1.526   .     S
C457   H474    1.111   .     S
C457   H473    1.112   .     S
C457   C529    1.529   .     S
C458   H476    1.111   .     S
C458   H477    1.111   .     S
C458   H1132   1.111   .     S
C459   O499    1.412   .     S
C459   C460    1.528   .     S
C459   H478    1.115   .     S
C459   H479    1.115   .     S
C460   C462    1.526   .     S
C460   H482    1.112   .     S
C460   H481    1.112   .     S
C461   O499    1.381   .     S
C461   C1107   1.393   1_554 S
C461   C1120   1.427   1_554 S
C462   H484    1.110   .     S
C462   H485    1.111   .     S
C462   H483    1.111   .     S
C463   C464    1.426   .     A
C463   C1118   1.427   .     S
C463   C1122   1.430   .     S
C464   C468    1.411   .     A
C465   C1120   1.430   1_554 S
C465   C1123   1.423   1_554 S
C466   C467    1.389   .     A
C466   C1110   1.401   .     S
C466   C1122   1.423   .     S
C467   H488    1.084   .     S
C467   C468    1.382   .     A
C468   H492    1.081   .     S
H470   C590    1.088   1_455 S
H475   C1115   1.111   1_554 S
H480   C518    1.086   .     S
H487   C9      1.086   1_565 S
H489   C1110   1.084   .     S
H491   C1107   1.083   1_554 S
O493   Zn510   1.929   .     S
O493   Zn508   1.959   .     S
O493   Zn511   1.931   .     S
O493   Zn509   1.949   .     S
O494   Zn509   1.932   .     S
O495   Zn511   1.945   .     S
O496   Zn510   1.942   .     S
O497   Zn508   1.930   .     S
O500   Zn508   1.928   .     S
O501   Zn511   1.928   .     S
O502   Zn509   1.923   .     S
O503   Zn510   1.935   .     S
O504   Zn511   1.932   .     S
O505   Zn508   1.920   .     S
O506   Zn509   1.933   .     S
O507   Zn510   1.929   .     S
C512   O577    1.271   .     A
C512   O575    1.272   .     A
C512   C518    1.437   .     S
C513   C527    1.392   .     A
C513   H563    1.077   .     S
C513   C538    1.409   .     A
C514   H542    1.084   .     S
C514   C526    1.387   .     A
C514   C527    1.396   .     A
C515   O576    1.281   .     A
C515   C517    1.455   .     S
C515   O578    1.277   .     A
C516   C537    1.420   .     A
C516   C525    1.482   .     S
C516   C528    1.411   .     A
C517   C591    1.335   .     S
C517   H616    1.088   .     S
C519   C522    1.451   .     S
C519   C82     1.331   1_565 S
C519   H121    1.088   1_565 S
C520   C521    1.435   .     S
C521   O573    1.279   .     A
C521   O579    1.279   .     A
C522   O580    1.269   .     A
C522   O574    1.269   .     A
C523   C528    1.395   .     A
C523   C1191   1.393   .     S
C523   H1221   1.083   .     S
C524   C527    1.449   .     S
C524   O567    1.277   .     A
C524   O569    1.268   .     A
C525   O570    1.284   .     A
C525   O568    1.282   .     A
C526   C1196   1.401   1_554 S
C526   H1219   1.084   1_554 S
C528   O571    1.386   .     S
C529   H545    1.118   .     S
C529   O571    1.418   .     S
C529   H544    1.111   .     S
C530   C531    1.526   .     S
C530   H547    1.111   .     S
C530   H546    1.112   .     S
C530   C602    1.529   .     S
C531   H549    1.111   .     S
C531   H550    1.111   .     S
C531   H1205   1.111   .     S
C532   O572    1.412   .     S
C532   C533    1.528   .     S
C532   H551    1.115   .     S
C532   H552    1.115   .     S
C533   C535    1.526   .     S
C533   H555    1.112   .     S
C533   H554    1.112   .     S
C534   O572    1.381   .     S
C534   C1180   1.393   1_554 S
C534   C1193   1.427   1_554 S
C535   H557    1.110   .     S
C535   H558    1.111   .     S
C535   H556    1.111   .     S
C536   C537    1.426   .     A
C536   C1191   1.427   .     S
C536   C1195   1.430   .     S
C537   C541    1.411   .     A
C538   C1193   1.430   1_554 S
C538   C1196   1.423   1_554 S
C539   C540    1.389   .     A
C539   C1183   1.401   .     S
C539   C1195   1.423   .     S
C540   H561    1.084   .     S
C540   C541    1.382   .     A
C541   H565    1.081   .     S
H548   C1188   1.111   1_554 S
H553   C591    1.086   .     S
H560   C82     1.086   1_565 S
H562   C1183   1.084   .     S
H564   C1180   1.083   1_554 S
O566   Zn583   1.929   .     S
O566   Zn581   1.959   .     S
O566   Zn584   1.931   .     S
O566   Zn582   1.949   .     S
O567   Zn582   1.932   .     S
O568   Zn584   1.945   .     S
O569   Zn583   1.942   .     S
O570   Zn581   1.930   .     S
O573   Zn581   1.928   .     S
O574   Zn584   1.928   .     S
O575   Zn582   1.923   .     S
O576   Zn583   1.935   .     S
O577   Zn584   1.932   .     S
O578   Zn581   1.920   .     S
O579   Zn582   1.933   .     S
O580   Zn583   1.929   .     S
C585   O650    1.271   .     A
C585   O648    1.272   .     A
C585   C591    1.437   .     S
C586   C600    1.392   .     A
C586   H636    1.077   .     S
C586   C611    1.409   .     A
C587   H615    1.084   .     S
C587   C599    1.387   .     A
C587   C600    1.396   .     A
C588   O649    1.281   .     A
C588   C590    1.455   .     S
C588   O651    1.277   .     A
C589   C610    1.420   .     A
C589   C598    1.482   .     S
C589   C601    1.411   .     A
C590   C445    1.335   1_655 S
C590   H470    1.088   1_655 S
C592   C595    1.451   .     S
C592   C155    1.331   1_565 S
C592   H194    1.088   1_565 S
C593   C594    1.435   .     S
C594   O646    1.279   .     A
C594   O652    1.279   .     A
C595   O653    1.269   .     A
C595   O647    1.269   .     A
C596   C601    1.395   .     A
C596   C1264   1.393   .     S
C596   H1294   1.083   .     S
C597   C600    1.449   .     S
C597   O640    1.277   .     A
C597   O642    1.268   .     A
C598   O643    1.284   .     A
C598   O641    1.282   .     A
C599   C1269   1.401   1_554 S
C599   H1292   1.084   1_554 S
C601   O644    1.386   .     S
C602   H618    1.118   .     S
C602   O644    1.418   .     S
C602   H617    1.111   .     S
C603   C604    1.526   .     S
C603   H620    1.111   .     S
C603   H619    1.112   .     S
C603   C456    1.529   1_655 S
C604   H622    1.111   .     S
C604   H623    1.111   .     S
C604   H1278   1.111   .     S
C605   O645    1.412   .     S
C605   C606    1.528   .     S
C605   H624    1.115   .     S
C605   H625    1.115   .     S
C606   C608    1.526   .     S
C606   H628    1.112   .     S
C606   H627    1.112   .     S
C607   O645    1.381   .     S
C607   C1253   1.393   1_554 S
C607   C1266   1.427   1_554 S
C608   H630    1.110   .     S
C608   H631    1.111   .     S
C608   H629    1.111   .     S
C609   C610    1.426   .     A
C609   C1264   1.427   .     S
C609   C1268   1.430   .     S
C610   C614    1.411   .     A
C611   C1266   1.430   1_554 S
C611   C1269   1.423   1_554 S
C612   C613    1.389   .     A
C612   C1256   1.401   .     S
C612   C1268   1.423   .     S
C613   H634    1.084   .     S
C613   C614    1.382   .     A
C614   H638    1.081   .     S
H621   C1261   1.111   1_554 S
H626   C445    1.086   1_655 S
H633   C155    1.086   1_565 S
H635   C1256   1.084   .     S
H637   C1253   1.083   1_554 S
O639   Zn656   1.929   .     S
O639   Zn654   1.959   .     S
O639   Zn657   1.931   .     S
O639   Zn655   1.949   .     S
O640   Zn655   1.932   .     S
O641   Zn657   1.945   .     S
O642   Zn656   1.942   .     S
O643   Zn654   1.930   .     S
O646   Zn654   1.928   .     S
O647   Zn657   1.928   .     S
O648   Zn655   1.923   .     S
O649   Zn656   1.935   .     S
O650   Zn657   1.932   .     S
O651   Zn654   1.920   .     S
O652   Zn655   1.933   .     S
O653   Zn656   1.929   .     S
C658   O723    1.271   .     A
C658   O721    1.272   .     A
C658   C664    1.437   .     S
C659   C673    1.392   .     A
C659   H709    1.077   .     S
C659   C684    1.409   .     A
C660   H688    1.084   .     S
C660   C672    1.387   .     A
C660   C673    1.396   .     A
C661   O722    1.281   .     A
C661   C663    1.455   .     S
C661   O724    1.277   .     A
C662   C683    1.420   .     A
C662   C671    1.482   .     S
C662   C674    1.411   .     A
C663   C737    1.335   .     S
C663   H762    1.088   .     S
C664   C809    1.335   1_455 S
C664   H845    1.086   1_455 S
C665   C668    1.451   .     S
C665   C885    1.331   .     S
C665   H924    1.088   .     S
C666   C667    1.435   .     S
C666   C1103   1.331   1_545 S
C666   H1144   1.086   1_545 S
C667   O719    1.279   .     A
C667   O725    1.279   .     A
C668   O726    1.269   .     A
C668   O720    1.269   .     A
C669   C674    1.395   .     A
C669   C23     1.393   1_556 S
C669   H53     1.083   1_556 S
C670   C673    1.449   .     S
C670   O713    1.277   .     A
C670   O715    1.268   .     A
C671   O716    1.284   .     A
C671   O714    1.282   .     A
C674   O717    1.386   .     S
C675   H691    1.118   .     S
C675   O717    1.418   .     S
C675   H690    1.111   .     S
C675   C822    1.529   1_455 S
C676   C677    1.526   .     S
C676   H693    1.111   .     S
C676   H692    1.112   .     S
C676   C748    1.529   .     S
C677   H695    1.111   .     S
C677   H696    1.111   .     S
C677   H37     1.111   1_556 S
C678   O718    1.412   .     S
C678   C679    1.528   .     S
C678   H697    1.115   .     S
C678   H698    1.115   .     S
C679   C681    1.526   .     S
C679   H701    1.112   .     S
C679   H700    1.112   .     S
C680   O718    1.381   .     S
C681   H703    1.110   .     S
C681   H704    1.111   .     S
C681   H702    1.111   .     S
C682   C683    1.426   .     A
C682   C23     1.427   1_556 S
C682   C27     1.430   1_556 S
C683   C687    1.411   .     A
C685   C686    1.389   .     A
C685   C15     1.401   1_556 S
C685   C27     1.423   1_556 S
C686   H707    1.084   .     S
C686   C687    1.382   .     A
C687   H711    1.081   .     S
H689   C809    1.088   1_455 S
H699   C737    1.086   .     S
H705   C1103   1.088   1_545 S
H706   C885    1.086   .     S
H708   C15     1.084   1_556 S
O712   Zn729   1.929   .     S
O712   Zn727   1.959   .     S
O712   Zn730   1.931   .     S
O712   Zn728   1.949   .     S
O713   Zn728   1.932   .     S
O714   Zn730   1.945   .     S
O715   Zn729   1.942   .     S
O716   Zn727   1.930   .     S
O719   Zn727   1.928   .     S
O720   Zn730   1.928   .     S
O721   Zn728   1.923   .     S
O722   Zn729   1.935   .     S
O723   Zn730   1.932   .     S
O724   Zn727   1.920   .     S
O725   Zn728   1.933   .     S
O726   Zn729   1.929   .     S
C731   O796    1.271   .     A
C731   O794    1.272   .     A
C731   C737    1.437   .     S
C732   C746    1.392   .     A
C732   H782    1.077   .     S
C732   C757    1.409   .     A
C733   H761    1.084   .     S
C733   C745    1.387   .     A
C733   C746    1.396   .     A
C734   O795    1.281   .     A
C734   C736    1.455   .     S
C734   O797    1.277   .     A
C735   C756    1.420   .     A
C735   C744    1.482   .     S
C735   C747    1.411   .     A
C736   C810    1.335   .     S
C736   H835    1.088   .     S
C738   C741    1.451   .     S
C738   C958    1.331   .     S
C738   H997    1.088   .     S
C739   C740    1.435   .     S
C739   C1176   1.331   1_545 S
C739   H1217   1.086   1_545 S
C740   O792    1.279   .     A
C740   O798    1.279   .     A
C741   O799    1.269   .     A
C741   O793    1.269   .     A
C742   C747    1.395   .     A
C742   C96     1.393   1_556 S
C742   H126    1.083   1_556 S
C743   C746    1.449   .     S
C743   O786    1.277   .     A
C743   O788    1.268   .     A
C744   O789    1.284   .     A
C744   O787    1.282   .     A
C747   O790    1.386   .     S
C748   H764    1.118   .     S
C748   O790    1.418   .     S
C748   H763    1.111   .     S
C749   C750    1.526   .     S
C749   H766    1.111   .     S
C749   H765    1.112   .     S
C749   C821    1.529   .     S
C750   H768    1.111   .     S
C750   H769    1.111   .     S
C750   H110    1.111   1_556 S
C751   O791    1.412   .     S
C751   C752    1.528   .     S
C751   H770    1.115   .     S
C751   H771    1.115   .     S
C752   C754    1.526   .     S
C752   H774    1.112   .     S
C752   H773    1.112   .     S
C753   O791    1.381   .     S
C754   H776    1.110   .     S
C754   H777    1.111   .     S
C754   H775    1.111   .     S
C755   C756    1.426   .     A
C755   C96     1.427   1_556 S
C755   C100    1.430   1_556 S
C756   C760    1.411   .     A
C758   C759    1.389   .     A
C758   C88     1.401   1_556 S
C758   C100    1.423   1_556 S
C759   H780    1.084   .     S
C759   C760    1.382   .     A
C760   H784    1.081   .     S
H772   C810    1.086   .     S
H778   C1176   1.088   1_545 S
H779   C958    1.086   .     S
H781   C88     1.084   1_556 S
O785   Zn802   1.929   .     S
O785   Zn800   1.959   .     S
O785   Zn803   1.931   .     S
O785   Zn801   1.949   .     S
O786   Zn801   1.932   .     S
O787   Zn803   1.945   .     S
O788   Zn802   1.942   .     S
O789   Zn800   1.930   .     S
O792   Zn800   1.928   .     S
O793   Zn803   1.928   .     S
O794   Zn801   1.923   .     S
O795   Zn802   1.935   .     S
O796   Zn803   1.932   .     S
O797   Zn800   1.920   .     S
O798   Zn801   1.933   .     S
O799   Zn802   1.929   .     S
C804   O869    1.271   .     A
C804   O867    1.272   .     A
C804   C810    1.437   .     S
C805   C819    1.392   .     A
C805   H855    1.077   .     S
C805   C830    1.409   .     A
C806   H834    1.084   .     S
C806   C818    1.387   .     A
C806   C819    1.396   .     A
C807   O868    1.281   .     A
C807   C809    1.455   .     S
C807   O870    1.277   .     A
C808   C829    1.420   .     A
C808   C817    1.482   .     S
C808   C820    1.411   .     A
C809   C664    1.335   1_655 S
C809   H689    1.088   1_655 S
C811   C814    1.451   .     S
C811   C1031   1.331   .     S
C811   H1070   1.088   .     S
C812   C813    1.435   .     S
C812   C1249   1.331   1_545 S
C812   H1290   1.086   1_545 S
C813   O865    1.279   .     A
C813   O871    1.279   .     A
C814   O872    1.269   .     A
C814   O866    1.269   .     A
C815   C820    1.395   .     A
C815   C169    1.393   1_556 S
C815   H199    1.083   1_556 S
C816   C819    1.449   .     S
C816   O859    1.277   .     A
C816   O861    1.268   .     A
C817   O862    1.284   .     A
C817   O860    1.282   .     A
C820   O863    1.386   .     S
C821   H837    1.118   .     S
C821   O863    1.418   .     S
C821   H836    1.111   .     S
C822   C823    1.526   .     S
C822   H839    1.111   .     S
C822   H838    1.112   .     S
C822   C675    1.529   1_655 S
C823   H841    1.111   .     S
C823   H842    1.111   .     S
C823   H183    1.111   1_556 S
C824   O864    1.412   .     S
C824   C825    1.528   .     S
C824   H843    1.115   .     S
C824   H844    1.115   .     S
C825   C827    1.526   .     S
C825   H847    1.112   .     S
C825   H846    1.112   .     S
C826   O864    1.381   .     S
C827   H849    1.110   .     S
C827   H850    1.111   .     S
C827   H848    1.111   .     S
C828   C829    1.426   .     A
C828   C169    1.427   1_556 S
C828   C173    1.430   1_556 S
C829   C833    1.411   .     A
C831   C832    1.389   .     A
C831   C161    1.401   1_556 S
C831   C173    1.423   1_556 S
C832   H853    1.084   .     S
C832   C833    1.382   .     A
C833   H857    1.081   .     S
H845   C664    1.086   1_655 S
H851   C1249   1.088   1_545 S
H852   C1031   1.086   .     S
H854   C161    1.084   1_556 S
O858   Zn875   1.929   .     S
O858   Zn873   1.959   .     S
O858   Zn876   1.931   .     S
O858   Zn874   1.949   .     S
O859   Zn874   1.932   .     S
O860   Zn876   1.945   .     S
O861   Zn875   1.942   .     S
O862   Zn873   1.930   .     S
O865   Zn873   1.928   .     S
O866   Zn876   1.928   .     S
O867   Zn874   1.923   .     S
O868   Zn875   1.935   .     S
O869   Zn876   1.932   .     S
O870   Zn873   1.920   .     S
O871   Zn874   1.933   .     S
O872   Zn875   1.929   .     S
C877   O942    1.271   .     A
C877   O940    1.272   .     A
C877   C883    1.437   .     S
C878   C892    1.392   .     A
C878   H928    1.077   .     S
C878   C903    1.409   .     A
C879   H907    1.084   .     S
C879   C891    1.387   .     A
C879   C892    1.396   .     A
C880   O941    1.281   .     A
C880   C882    1.455   .     S
C880   O943    1.277   .     A
C881   C902    1.420   .     A
C881   C890    1.482   .     S
C881   C893    1.411   .     A
C882   C956    1.335   .     S
C882   H981    1.088   .     S
C883   C1028   1.335   1_455 S
C883   H1064   1.086   1_455 S
C884   C887    1.451   .     S
C884   C1104   1.331   .     S
C884   H1143   1.088   .     S
C885   C886    1.435   .     S
C886   O938    1.279   .     A
C886   O944    1.279   .     A
C887   O945    1.269   .     A
C887   O939    1.269   .     A
C888   C893    1.395   .     A
C888   C242    1.393   1_556 S
C888   H272    1.083   1_556 S
C889   C892    1.449   .     S
C889   O932    1.277   .     A
C889   O934    1.268   .     A
C890   O935    1.284   .     A
C890   O933    1.282   .     A
C893   O936    1.386   .     S
C894   H910    1.118   .     S
C894   O936    1.418   .     S
C894   H909    1.111   .     S
C894   C1041   1.529   1_455 S
C895   C896    1.526   .     S
C895   H912    1.111   .     S
C895   H911    1.112   .     S
C895   C967    1.529   .     S
C896   H914    1.111   .     S
C896   H915    1.111   .     S
C896   H256    1.111   1_556 S
C897   O937    1.412   .     S
C897   C898    1.528   .     S
C897   H916    1.115   .     S
C897   H917    1.115   .     S
C898   C900    1.526   .     S
C898   H920    1.112   .     S
C898   H919    1.112   .     S
C899   O937    1.381   .     S
C900   H922    1.110   .     S
C900   H923    1.111   .     S
C900   H921    1.111   .     S
C901   C902    1.426   .     A
C901   C242    1.427   1_556 S
C901   C246    1.430   1_556 S
C902   C906    1.411   .     A
C904   C905    1.389   .     A
C904   C234    1.401   1_556 S
C904   C246    1.423   1_556 S
C905   H926    1.084   .     S
C905   C906    1.382   .     A
C906   H930    1.081   .     S
H908   C1028   1.088   1_455 S
H918   C956    1.086   .     S
H925   C1104   1.086   .     S
H927   C234    1.084   1_556 S
O931   Zn948   1.929   .     S
O931   Zn946   1.959   .     S
O931   Zn949   1.931   .     S
O931   Zn947   1.949   .     S
O932   Zn947   1.932   .     S
O933   Zn949   1.945   .     S
O934   Zn948   1.942   .     S
O935   Zn946   1.930   .     S
O938   Zn946   1.928   .     S
O939   Zn949   1.928   .     S
O940   Zn947   1.923   .     S
O941   Zn948   1.935   .     S
O942   Zn949   1.932   .     S
O943   Zn946   1.920   .     S
O944   Zn947   1.933   .     S
O945   Zn948   1.929   .     S
C950   O1015   1.271   .     A
C950   O1013   1.272   .     A
C950   C956    1.437   .     S
C951   C965    1.392   .     A
C951   H1001   1.077   .     S
C951   C976    1.409   .     A
C952   H980    1.084   .     S
C952   C964    1.387   .     A
C952   C965    1.396   .     A
C953   O1014   1.281   .     A
C953   C955    1.455   .     S
C953   O1016   1.277   .     A
C954   C975    1.420   .     A
C954   C963    1.482   .     S
C954   C966    1.411   .     A
C955   C1029   1.335   .     S
C955   H1054   1.088   .     S
C957   C960    1.451   .     S
C957   C1177   1.331   .     S
C957   H1216   1.088   .     S
C958   C959    1.435   .     S
C959   O1011   1.279   .     A
C959   O1017   1.279   .     A
C960   O1018   1.269   .     A
C960   O1012   1.269   .     A
C961   C966    1.395   .     A
C961   C315    1.393   1_556 S
C961   H345    1.083   1_556 S
C962   C965    1.449   .     S
C962   O1005   1.277   .     A
C962   O1007   1.268   .     A
C963   O1008   1.284   .     A
C963   O1006   1.282   .     A
C966   O1009   1.386   .     S
C967   H983    1.118   .     S
C967   O1009   1.418   .     S
C967   H982    1.111   .     S
C968   C969    1.526   .     S
C968   H985    1.111   .     S
C968   H984    1.112   .     S
C968   C1040   1.529   .     S
C969   H987    1.111   .     S
C969   H988    1.111   .     S
C969   H329    1.111   1_556 S
C970   O1010   1.412   .     S
C970   C971    1.528   .     S
C970   H989    1.115   .     S
C970   H990    1.115   .     S
C971   C973    1.526   .     S
C971   H993    1.112   .     S
C971   H992    1.112   .     S
C972   O1010   1.381   .     S
C973   H995    1.110   .     S
C973   H996    1.111   .     S
C973   H994    1.111   .     S
C974   C975    1.426   .     A
C974   C315    1.427   1_556 S
C974   C319    1.430   1_556 S
C975   C979    1.411   .     A
C977   C978    1.389   .     A
C977   C307    1.401   1_556 S
C977   C319    1.423   1_556 S
C978   H999    1.084   .     S
C978   C979    1.382   .     A
C979   H1003   1.081   .     S
H991   C1029   1.086   .     S
H998   C1177   1.086   .     S
H1000  C307    1.084   1_556 S
O1004  Zn1021  1.929   .     S
O1004  Zn1019  1.959   .     S
O1004  Zn1022  1.931   .     S
O1004  Zn1020  1.949   .     S
O1005  Zn1020  1.932   .     S
O1006  Zn1022  1.945   .     S
O1007  Zn1021  1.942   .     S
O1008  Zn1019  1.930   .     S
O1011  Zn1019  1.928   .     S
O1012  Zn1022  1.928   .     S
O1013  Zn1020  1.923   .     S
O1014  Zn1021  1.935   .     S
O1015  Zn1022  1.932   .     S
O1016  Zn1019  1.920   .     S
O1017  Zn1020  1.933   .     S
O1018  Zn1021  1.929   .     S
C1023  O1088   1.271   .     A
C1023  O1086   1.272   .     A
C1023  C1029   1.437   .     S
C1024  C1038   1.392   .     A
C1024  H1074   1.077   .     S
C1024  C1049   1.409   .     A
C1025  H1053   1.084   .     S
C1025  C1037   1.387   .     A
C1025  C1038   1.396   .     A
C1026  O1087   1.281   .     A
C1026  C1028   1.455   .     S
C1026  O1089   1.277   .     A
C1027  C1048   1.420   .     A
C1027  C1036   1.482   .     S
C1027  C1039   1.411   .     A
C1028  C883    1.335   1_655 S
C1028  H908    1.088   1_655 S
C1030  C1033   1.451   .     S
C1030  C1250   1.331   .     S
C1030  H1289   1.088   .     S
C1031  C1032   1.435   .     S
C1032  O1084   1.279   .     A
C1032  O1090   1.279   .     A
C1033  O1091   1.269   .     A
C1033  O1085   1.269   .     A
C1034  C1039   1.395   .     A
C1034  C388    1.393   1_556 S
C1034  H418    1.083   1_556 S
C1035  C1038   1.449   .     S
C1035  O1078   1.277   .     A
C1035  O1080   1.268   .     A
C1036  O1081   1.284   .     A
C1036  O1079   1.282   .     A
C1039  O1082   1.386   .     S
C1040  H1056   1.118   .     S
C1040  O1082   1.418   .     S
C1040  H1055   1.111   .     S
C1041  C1042   1.526   .     S
C1041  H1058   1.111   .     S
C1041  H1057   1.112   .     S
C1041  C894    1.529   1_655 S
C1042  H1060   1.111   .     S
C1042  H1061   1.111   .     S
C1042  H402    1.111   1_556 S
C1043  O1083   1.412   .     S
C1043  C1044   1.528   .     S
C1043  H1062   1.115   .     S
C1043  H1063   1.115   .     S
C1044  C1046   1.526   .     S
C1044  H1066   1.112   .     S
C1044  H1065   1.112   .     S
C1045  O1083   1.381   .     S
C1046  H1068   1.110   .     S
C1046  H1069   1.111   .     S
C1046  H1067   1.111   .     S
C1047  C1048   1.426   .     A
C1047  C388    1.427   1_556 S
C1047  C392    1.430   1_556 S
C1048  C1052   1.411   .     A
C1050  C1051   1.389   .     A
C1050  C380    1.401   1_556 S
C1050  C392    1.423   1_556 S
C1051  H1072   1.084   .     S
C1051  C1052   1.382   .     A
C1052  H1076   1.081   .     S
H1064  C883    1.086   1_655 S
H1071  C1250   1.086   .     S
H1073  C380    1.084   1_556 S
O1077  Zn1094  1.929   .     S
O1077  Zn1092  1.959   .     S
O1077  Zn1095  1.931   .     S
O1077  Zn1093  1.949   .     S
O1078  Zn1093  1.932   .     S
O1079  Zn1095  1.945   .     S
O1080  Zn1094  1.942   .     S
O1081  Zn1092  1.930   .     S
O1084  Zn1092  1.928   .     S
O1085  Zn1095  1.928   .     S
O1086  Zn1093  1.923   .     S
O1087  Zn1094  1.935   .     S
O1088  Zn1095  1.932   .     S
O1089  Zn1092  1.920   .     S
O1090  Zn1093  1.933   .     S
O1091  Zn1094  1.929   .     S
C1096  O1161   1.271   .     A
C1096  O1159   1.272   .     A
C1096  C1102   1.437   .     S
C1097  C1111   1.392   .     A
C1097  H1147   1.077   .     S
C1097  C1122   1.409   .     A
C1098  H1126   1.084   .     S
C1098  C1110   1.387   .     A
C1098  C1111   1.396   .     A
C1099  O1160   1.281   .     A
C1099  C1101   1.455   .     S
C1099  O1162   1.277   .     A
C1100  C1121   1.420   .     A
C1100  C1109   1.482   .     S
C1100  C1112   1.411   .     A
C1101  C1175   1.335   .     S
C1101  H1200   1.088   .     S
C1102  C1247   1.335   1_455 S
C1102  H1283   1.086   1_455 S
C1103  C1106   1.451   .     S
C1103  C666    1.331   1_565 S
C1103  H705    1.088   1_565 S
C1104  C1105   1.435   .     S
C1105  O1157   1.279   .     A
C1105  O1163   1.279   .     A
C1106  O1164   1.269   .     A
C1106  O1158   1.269   .     A
C1107  C1112   1.395   .     A
C1107  C461    1.393   1_556 S
C1107  H491    1.083   1_556 S
C1108  C1111   1.449   .     S
C1108  O1151   1.277   .     A
C1108  O1153   1.268   .     A
C1109  O1154   1.284   .     A
C1109  O1152   1.282   .     A
C1112  O1155   1.386   .     S
C1113  H1129   1.118   .     S
C1113  O1155   1.418   .     S
C1113  H1128   1.111   .     S
C1113  C1260   1.529   1_455 S
C1114  C1115   1.526   .     S
C1114  H1131   1.111   .     S
C1114  H1130   1.112   .     S
C1114  C1186   1.529   .     S
C1115  H1133   1.111   .     S
C1115  H1134   1.111   .     S
C1115  H475    1.111   1_556 S
C1116  O1156   1.412   .     S
C1116  C1117   1.528   .     S
C1116  H1135   1.115   .     S
C1116  H1136   1.115   .     S
C1117  C1119   1.526   .     S
C1117  H1139   1.112   .     S
C1117  H1138   1.112   .     S
C1118  O1156   1.381   .     S
C1119  H1141   1.110   .     S
C1119  H1142   1.111   .     S
C1119  H1140   1.111   .     S
C1120  C1121   1.426   .     A
C1120  C461    1.427   1_556 S
C1120  C465    1.430   1_556 S
C1121  C1125   1.411   .     A
C1123  C1124   1.389   .     A
C1123  C453    1.401   1_556 S
C1123  C465    1.423   1_556 S
C1124  H1145   1.084   .     S
C1124  C1125   1.382   .     A
C1125  H1149   1.081   .     S
H1127  C1247   1.088   1_455 S
H1137  C1175   1.086   .     S
H1144  C666    1.086   1_565 S
H1146  C453    1.084   1_556 S
O1150  Zn1167  1.929   .     S
O1150  Zn1165  1.959   .     S
O1150  Zn1168  1.931   .     S
O1150  Zn1166  1.949   .     S
O1151  Zn1166  1.932   .     S
O1152  Zn1168  1.945   .     S
O1153  Zn1167  1.942   .     S
O1154  Zn1165  1.930   .     S
O1157  Zn1165  1.928   .     S
O1158  Zn1168  1.928   .     S
O1159  Zn1166  1.923   .     S
O1160  Zn1167  1.935   .     S
O1161  Zn1168  1.932   .     S
O1162  Zn1165  1.920   .     S
O1163  Zn1166  1.933   .     S
O1164  Zn1167  1.929   .     S
C1169  O1234   1.271   .     A
C1169  O1232   1.272   .     A
C1169  C1175   1.437   .     S
C1170  C1184   1.392   .     A
C1170  H1220   1.077   .     S
C1170  C1195   1.409   .     A
C1171  H1199   1.084   .     S
C1171  C1183   1.387   .     A
C1171  C1184   1.396   .     A
C1172  O1233   1.281   .     A
C1172  C1174   1.455   .     S
C1172  O1235   1.277   .     A
C1173  C1194   1.420   .     A
C1173  C1182   1.482   .     S
C1173  C1185   1.411   .     A
C1174  C1248   1.335   .     S
C1174  H1273   1.088   .     S
C1176  C1179   1.451   .     S
C1176  C739    1.331   1_565 S
C1176  H778    1.088   1_565 S
C1177  C1178   1.435   .     S
C1178  O1230   1.279   .     A
C1178  O1236   1.279   .     A
C1179  O1237   1.269   .     A
C1179  O1231   1.269   .     A
C1180  C1185   1.395   .     A
C1180  C534    1.393   1_556 S
C1180  H564    1.083   1_556 S
C1181  C1184   1.449   .     S
C1181  O1224   1.277   .     A
C1181  O1226   1.268   .     A
C1182  O1227   1.284   .     A
C1182  O1225   1.282   .     A
C1185  O1228   1.386   .     S
C1186  H1202   1.118   .     S
C1186  O1228   1.418   .     S
C1186  H1201   1.111   .     S
C1187  C1188   1.526   .     S
C1187  H1204   1.111   .     S
C1187  H1203   1.112   .     S
C1187  C1259   1.529   .     S
C1188  H1206   1.111   .     S
C1188  H1207   1.111   .     S
C1188  H548    1.111   1_556 S
C1189  O1229   1.412   .     S
C1189  C1190   1.528   .     S
C1189  H1208   1.115   .     S
C1189  H1209   1.115   .     S
C1190  C1192   1.526   .     S
C1190  H1212   1.112   .     S
C1190  H1211   1.112   .     S
C1191  O1229   1.381   .     S
C1192  H1214   1.110   .     S
C1192  H1215   1.111   .     S
C1192  H1213   1.111   .     S
C1193  C1194   1.426   .     A
C1193  C534    1.427   1_556 S
C1193  C538    1.430   1_556 S
C1194  C1198   1.411   .     A
C1196  C1197   1.389   .     A
C1196  C526    1.401   1_556 S
C1196  C538    1.423   1_556 S
C1197  H1218   1.084   .     S
C1197  C1198   1.382   .     A
C1198  H1222   1.081   .     S
H1210  C1248   1.086   .     S
H1217  C739    1.086   1_565 S
H1219  C526    1.084   1_556 S
O1223  Zn1240  1.929   .     S
O1223  Zn1238  1.959   .     S
O1223  Zn1241  1.931   .     S
O1223  Zn1239  1.949   .     S
O1224  Zn1239  1.932   .     S
O1225  Zn1241  1.945   .     S
O1226  Zn1240  1.942   .     S
O1227  Zn1238  1.930   .     S
O1230  Zn1238  1.928   .     S
O1231  Zn1241  1.928   .     S
O1232  Zn1239  1.923   .     S
O1233  Zn1240  1.935   .     S
O1234  Zn1241  1.932   .     S
O1235  Zn1238  1.920   .     S
O1236  Zn1239  1.933   .     S
O1237  Zn1240  1.929   .     S
C1242  O1307   1.271   .     A
C1242  O1305   1.272   .     A
C1242  C1248   1.437   .     S
C1243  C1257   1.392   .     A
C1243  H1293   1.077   .     S
C1243  C1268   1.409   .     A
C1244  H1272   1.084   .     S
C1244  C1256   1.387   .     A
C1244  C1257   1.396   .     A
C1245  O1306   1.281   .     A
C1245  C1247   1.455   .     S
C1245  O1308   1.277   .     A
C1246  C1267   1.420   .     A
C1246  C1255   1.482   .     S
C1246  C1258   1.411   .     A
C1247  C1102   1.335   1_655 S
C1247  H1127   1.088   1_655 S
C1249  C1252   1.451   .     S
C1249  C812    1.331   1_565 S
C1249  H851    1.088   1_565 S
C1250  C1251   1.435   .     S
C1251  O1303   1.279   .     A
C1251  O1309   1.279   .     A
C1252  O1310   1.269   .     A
C1252  O1304   1.269   .     A
C1253  C1258   1.395   .     A
C1253  C607    1.393   1_556 S
C1253  H637    1.083   1_556 S
C1254  C1257   1.449   .     S
C1254  O1297   1.277   .     A
C1254  O1299   1.268   .     A
C1255  O1300   1.284   .     A
C1255  O1298   1.282   .     A
C1258  O1301   1.386   .     S
C1259  H1275   1.118   .     S
C1259  O1301   1.418   .     S
C1259  H1274   1.111   .     S
C1260  C1261   1.526   .     S
C1260  H1277   1.111   .     S
C1260  H1276   1.112   .     S
C1260  C1113   1.529   1_655 S
C1261  H1279   1.111   .     S
C1261  H1280   1.111   .     S
C1261  H621    1.111   1_556 S
C1262  O1302   1.412   .     S
C1262  C1263   1.528   .     S
C1262  H1281   1.115   .     S
C1262  H1282   1.115   .     S
C1263  C1265   1.526   .     S
C1263  H1285   1.112   .     S
C1263  H1284   1.112   .     S
C1264  O1302   1.381   .     S
C1265  H1287   1.110   .     S
C1265  H1288   1.111   .     S
C1265  H1286   1.111   .     S
C1266  C1267   1.426   .     A
C1266  C607    1.427   1_556 S
C1266  C611    1.430   1_556 S
C1267  C1271   1.411   .     A
C1269  C1270   1.389   .     A
C1269  C599    1.401   1_556 S
C1269  C611    1.423   1_556 S
C1270  H1291   1.084   .     S
C1270  C1271   1.382   .     A
C1271  H1295   1.081   .     S
H1283  C1102   1.086   1_655 S
H1290  C812    1.086   1_565 S
H1292  C599    1.084   1_556 S
O1296  Zn1313  1.929   .     S
O1296  Zn1311  1.959   .     S
O1296  Zn1314  1.931   .     S
O1296  Zn1312  1.949   .     S
O1297  Zn1312  1.932   .     S
O1298  Zn1314  1.945   .     S
O1299  Zn1313  1.942   .     S
O1300  Zn1311  1.930   .     S
O1303  Zn1311  1.928   .     S
O1304  Zn1314  1.928   .     S
O1305  Zn1312  1.923   .     S
O1306  Zn1313  1.935   .     S
O1307  Zn1314  1.932   .     S
O1308  Zn1311  1.920   .     S
O1309  Zn1312  1.933   .     S
O1310  Zn1313  1.929   .     S
