data_str_m1_o10_o16_pcu_sym.197
_audit_creation_date              2020-01-03
_audit_creation_method            'Materials Studio'
_symmetry_space_group_name_H-M    'P1'
_symmetry_Int_Tables_number       1
_symmetry_cell_setting            triclinic
loop_
_symmetry_equiv_pos_as_xyz
  x,y,z
_cell_length_a                    32.5245
_cell_length_b                    32.5046
_cell_length_c                    31.0498
_cell_angle_alpha                 96.7220
_cell_angle_beta                  74.9568
_cell_angle_gamma                 98.5356
loop_
_atom_site_label
_atom_site_type_symbol
_atom_site_fract_x
_atom_site_fract_y
_atom_site_fract_z
_atom_site_U_iso_or_equiv
_atom_site_adp_type
_atom_site_occupancy
C1     C     0.05270   0.15957   0.26002   0.00000  Uiso   1.00
C2     C     0.18373   0.16793   0.05621   0.00000  Uiso   1.00
C3     C     0.19688   0.09774   0.06270   0.00000  Uiso   1.00
C4     C     0.28074   0.17379   0.24005   0.00000  Uiso   1.00
C5     C     0.14709   0.19801   0.41902   0.00000  Uiso   1.00
C6     C     0.32658   0.17650   0.23608   0.00000  Uiso   1.00
C7     C     0.00744   0.15702   0.26386   0.00000  Uiso   1.00
C8     C     0.18034   0.32244   0.23661   0.00000  Uiso   1.00
C9     C     0.15171   0.01172   0.26384   0.00000  Uiso   1.00
C10    C     0.15604   0.05584   0.26022   0.00000  Uiso   1.00
C11    C     0.17654   0.27788   0.24022   0.00000  Uiso   1.00
C12    C     0.15965   0.25568   0.47324   0.00000  Uiso   1.00
C13    C     0.18520   0.14780   0.12939   0.00000  Uiso   1.00
C14    C     0.14876   0.18505   0.37108   0.00000  Uiso   1.00
C15    C     0.19140   0.08570   0.01995   0.00000  Uiso   1.00
C16    C     0.19166   0.13853   0.08133   0.00000  Uiso   1.00
C17    C     0.14489   0.24055   0.43541   0.00000  Uiso   1.00
C18    C     0.12988   0.27120   0.41308   0.00000  Uiso   1.00
C19    C     0.17383   0.22943   0.49695   0.00000  Uiso   1.00
C20    C     0.16985   0.18569   0.48585   0.00000  Uiso   1.00
C21    C     0.15684   0.17011   0.44595   0.00000  Uiso   1.00
C22    C     0.17929   0.15688   0.01221   0.00000  Uiso   1.00
C23    C     0.18063   0.11431   0.49554   0.00000  Uiso   1.00
C24    C     0.16808   0.09988   0.45637   0.00000  Uiso   1.00
C25    C     0.15414   0.12682   0.43341   0.00000  Uiso   1.00
F26    F     0.20415   0.06883   0.08720   0.00000  Uiso   1.00
F27    F     0.19382   0.24819   0.02866   0.00000  Uiso   1.00
H28    H     0.31916   0.13904   0.28983   0.00000  Uiso   1.00
H29    H     0.14116   0.32806   0.38936   0.00000  Uiso   1.00
H30    H     0.20672   0.00365   0.21157   0.00000  Uiso   1.00
H31    H     0.12497   0.33132   0.28903   0.00000  Uiso   1.00
H32    H     0.16687   0.06706   0.44466   0.00000  Uiso   1.00
H33    H     0.19318   0.05340   0.00694   0.00000  Uiso   1.00
H34    H     0.17618   0.19752   0.07375   0.00000  Uiso   1.00
H35    H     0.16127   0.28871   0.48402   0.00000  Uiso   1.00
H36    H     0.14093   0.11304   0.40573   0.00000  Uiso   1.00
H37    H     0.01556   0.19441   0.21043   0.00000  Uiso   1.00
O38    O     0.16667   0.16667   0.25000   0.00000  Uiso   1.00
O39    O     0.15451   0.12637   0.15458   0.00000  Uiso   1.00
O40    O     0.12940   0.20391   0.34968   0.00000  Uiso   1.00
O41    O     0.20824   0.17759   0.14606   0.00000  Uiso   1.00
O42    O     0.17451   0.15880   0.34968   0.00000  Uiso   1.00
O43    O     0.09468   0.26396   0.40466   0.00000  Uiso   1.00
O44    O     0.15504   0.30945   0.40400   0.00000  Uiso   1.00
O45    O     0.17930   0.08019   0.28213   0.00000  Uiso   1.00
O46    O     0.14632   0.26085   0.27013   0.00000  Uiso   1.00
O47    O     0.07412   0.13291   0.23413   0.00000  Uiso   1.00
O48    O     0.26693   0.19272   0.21360   0.00000  Uiso   1.00
O49    O     0.07071   0.18878   0.28213   0.00000  Uiso   1.00
O50    O     0.25491   0.15226   0.27013   0.00000  Uiso   1.00
O51    O     0.13760   0.06944   0.23413   0.00000  Uiso   1.00
O52    O     0.20345   0.25620   0.21360   0.00000  Uiso   1.00
Zn53   Zn    0.19338   0.13994   0.28734   0.00000  Uiso   1.00
Zn54   Zn    0.13379   0.12458   0.21875   0.00000  Uiso   1.00
Zn55   Zn    0.21056   0.19775   0.20657   0.00000  Uiso   1.00
Zn56   Zn    0.12893   0.20439   0.28733   0.00000  Uiso   1.00
C57    C     0.38604   0.15957   0.26002   0.00000  Uiso   1.00
C58    C     0.51706   0.16793   0.05621   0.00000  Uiso   1.00
C59    C     0.53021   0.09774   0.06270   0.00000  Uiso   1.00
C60    C     0.61407   0.17379   0.24005   0.00000  Uiso   1.00
C61    C     0.48043   0.19801   0.41902   0.00000  Uiso   1.00
C62    C     0.65991   0.17650   0.23608   0.00000  Uiso   1.00
C63    C     0.34077   0.15702   0.26386   0.00000  Uiso   1.00
C64    C     0.51367   0.32244   0.23661   0.00000  Uiso   1.00
C65    C     0.48504   0.01172   0.26384   0.00000  Uiso   1.00
C66    C     0.48937   0.05584   0.26022   0.00000  Uiso   1.00
C67    C     0.50987   0.27788   0.24022   0.00000  Uiso   1.00
C68    C     0.49298   0.25568   0.47324   0.00000  Uiso   1.00
C69    C     0.51854   0.14780   0.12939   0.00000  Uiso   1.00
C70    C     0.48209   0.18505   0.37108   0.00000  Uiso   1.00
C71    C     0.52473   0.08570   0.01995   0.00000  Uiso   1.00
C72    C     0.52500   0.13853   0.08133   0.00000  Uiso   1.00
C73    C     0.47822   0.24055   0.43541   0.00000  Uiso   1.00
C74    C     0.46321   0.27120   0.41308   0.00000  Uiso   1.00
C75    C     0.50717   0.22943   0.49695   0.00000  Uiso   1.00
C76    C     0.50318   0.18569   0.48585   0.00000  Uiso   1.00
C77    C     0.49017   0.17011   0.44595   0.00000  Uiso   1.00
C78    C     0.51262   0.15688   0.01221   0.00000  Uiso   1.00
C79    C     0.51397   0.11431   0.49554   0.00000  Uiso   1.00
C80    C     0.50142   0.09988   0.45637   0.00000  Uiso   1.00
C81    C     0.48748   0.12682   0.43341   0.00000  Uiso   1.00
F82    F     0.53749   0.06883   0.08720   0.00000  Uiso   1.00
F83    F     0.52715   0.24819   0.02866   0.00000  Uiso   1.00
H84    H     0.65249   0.13904   0.28983   0.00000  Uiso   1.00
H85    H     0.47449   0.32806   0.38936   0.00000  Uiso   1.00
H86    H     0.54005   0.00365   0.21157   0.00000  Uiso   1.00
H87    H     0.45831   0.33132   0.28903   0.00000  Uiso   1.00
H88    H     0.50020   0.06706   0.44466   0.00000  Uiso   1.00
H89    H     0.52651   0.05340   0.00694   0.00000  Uiso   1.00
H90    H     0.50951   0.19752   0.07375   0.00000  Uiso   1.00
H91    H     0.49460   0.28871   0.48402   0.00000  Uiso   1.00
H92    H     0.47427   0.11304   0.40573   0.00000  Uiso   1.00
H93    H     0.34889   0.19441   0.21043   0.00000  Uiso   1.00
O94    O     0.50000   0.16667   0.25000   0.00000  Uiso   1.00
O95    O     0.48784   0.12637   0.15458   0.00000  Uiso   1.00
O96    O     0.46274   0.20391   0.34968   0.00000  Uiso   1.00
O97    O     0.54157   0.17759   0.14606   0.00000  Uiso   1.00
O98    O     0.50785   0.15880   0.34968   0.00000  Uiso   1.00
O99    O     0.42801   0.26396   0.40466   0.00000  Uiso   1.00
O100   O     0.48838   0.30945   0.40400   0.00000  Uiso   1.00
O101   O     0.51264   0.08019   0.28213   0.00000  Uiso   1.00
O102   O     0.47965   0.26085   0.27013   0.00000  Uiso   1.00
O103   O     0.40745   0.13291   0.23413   0.00000  Uiso   1.00
O104   O     0.60026   0.19272   0.21360   0.00000  Uiso   1.00
O105   O     0.40405   0.18878   0.28213   0.00000  Uiso   1.00
O106   O     0.58824   0.15226   0.27013   0.00000  Uiso   1.00
O107   O     0.47093   0.06944   0.23413   0.00000  Uiso   1.00
O108   O     0.53678   0.25620   0.21360   0.00000  Uiso   1.00
Zn109  Zn    0.52672   0.13994   0.28734   0.00000  Uiso   1.00
Zn110  Zn    0.46713   0.12458   0.21875   0.00000  Uiso   1.00
Zn111  Zn    0.54389   0.19775   0.20657   0.00000  Uiso   1.00
Zn112  Zn    0.46226   0.20439   0.28733   0.00000  Uiso   1.00
C113   C     0.71937   0.15957   0.26002   0.00000  Uiso   1.00
C114   C     0.85039   0.16793   0.05621   0.00000  Uiso   1.00
C115   C     0.86354   0.09774   0.06270   0.00000  Uiso   1.00
C116   C     0.94741   0.17379   0.24005   0.00000  Uiso   1.00
C117   C     0.81376   0.19801   0.41902   0.00000  Uiso   1.00
C118   C     0.99324   0.17650   0.23608   0.00000  Uiso   1.00
C119   C     0.67411   0.15702   0.26386   0.00000  Uiso   1.00
C120   C     0.84700   0.32244   0.23661   0.00000  Uiso   1.00
C121   C     0.81837   0.01172   0.26384   0.00000  Uiso   1.00
C122   C     0.82270   0.05584   0.26022   0.00000  Uiso   1.00
C123   C     0.84320   0.27788   0.24022   0.00000  Uiso   1.00
C124   C     0.82631   0.25568   0.47324   0.00000  Uiso   1.00
C125   C     0.85187   0.14780   0.12939   0.00000  Uiso   1.00
C126   C     0.81542   0.18505   0.37108   0.00000  Uiso   1.00
C127   C     0.85806   0.08570   0.01995   0.00000  Uiso   1.00
C128   C     0.85833   0.13853   0.08133   0.00000  Uiso   1.00
C129   C     0.81155   0.24055   0.43541   0.00000  Uiso   1.00
C130   C     0.79655   0.27120   0.41308   0.00000  Uiso   1.00
C131   C     0.84050   0.22943   0.49695   0.00000  Uiso   1.00
C132   C     0.83652   0.18569   0.48585   0.00000  Uiso   1.00
C133   C     0.82351   0.17011   0.44595   0.00000  Uiso   1.00
C134   C     0.84595   0.15688   0.01221   0.00000  Uiso   1.00
C135   C     0.84730   0.11431   0.49554   0.00000  Uiso   1.00
C136   C     0.83475   0.09988   0.45637   0.00000  Uiso   1.00
C137   C     0.82081   0.12682   0.43341   0.00000  Uiso   1.00
F138   F     0.87082   0.06883   0.08720   0.00000  Uiso   1.00
F139   F     0.86049   0.24819   0.02866   0.00000  Uiso   1.00
H140   H     0.98582   0.13904   0.28983   0.00000  Uiso   1.00
H141   H     0.80783   0.32806   0.38936   0.00000  Uiso   1.00
H142   H     0.87338   0.00365   0.21157   0.00000  Uiso   1.00
H143   H     0.79164   0.33132   0.28903   0.00000  Uiso   1.00
H144   H     0.83353   0.06706   0.44466   0.00000  Uiso   1.00
H145   H     0.85985   0.05340   0.00694   0.00000  Uiso   1.00
H146   H     0.84285   0.19752   0.07375   0.00000  Uiso   1.00
H147   H     0.82793   0.28871   0.48402   0.00000  Uiso   1.00
H148   H     0.80760   0.11304   0.40573   0.00000  Uiso   1.00
H149   H     0.68223   0.19441   0.21043   0.00000  Uiso   1.00
O150   O     0.83333   0.16667   0.25000   0.00000  Uiso   1.00
O151   O     0.82118   0.12637   0.15458   0.00000  Uiso   1.00
O152   O     0.79607   0.20391   0.34968   0.00000  Uiso   1.00
O153   O     0.87491   0.17759   0.14606   0.00000  Uiso   1.00
O154   O     0.84118   0.15880   0.34968   0.00000  Uiso   1.00
O155   O     0.76134   0.26396   0.40466   0.00000  Uiso   1.00
O156   O     0.82171   0.30945   0.40400   0.00000  Uiso   1.00
O157   O     0.84597   0.08019   0.28213   0.00000  Uiso   1.00
O158   O     0.81298   0.26085   0.27013   0.00000  Uiso   1.00
O159   O     0.74078   0.13291   0.23413   0.00000  Uiso   1.00
O160   O     0.93360   0.19272   0.21360   0.00000  Uiso   1.00
O161   O     0.73738   0.18878   0.28213   0.00000  Uiso   1.00
O162   O     0.92158   0.15226   0.27013   0.00000  Uiso   1.00
O163   O     0.80426   0.06944   0.23413   0.00000  Uiso   1.00
O164   O     0.87012   0.25620   0.21360   0.00000  Uiso   1.00
Zn165  Zn    0.86005   0.13994   0.28734   0.00000  Uiso   1.00
Zn166  Zn    0.80046   0.12458   0.21875   0.00000  Uiso   1.00
Zn167  Zn    0.87723   0.19775   0.20657   0.00000  Uiso   1.00
Zn168  Zn    0.79560   0.20439   0.28733   0.00000  Uiso   1.00
C169   C     0.05270   0.49290   0.26002   0.00000  Uiso   1.00
C170   C     0.18373   0.50126   0.05621   0.00000  Uiso   1.00
C171   C     0.19688   0.43107   0.06270   0.00000  Uiso   1.00
C172   C     0.28074   0.50712   0.24005   0.00000  Uiso   1.00
C173   C     0.14709   0.53134   0.41902   0.00000  Uiso   1.00
C174   C     0.32658   0.50983   0.23608   0.00000  Uiso   1.00
C175   C     0.00744   0.49035   0.26386   0.00000  Uiso   1.00
C176   C     0.18034   0.65578   0.23661   0.00000  Uiso   1.00
C177   C     0.15171   0.34506   0.26384   0.00000  Uiso   1.00
C178   C     0.15604   0.38918   0.26022   0.00000  Uiso   1.00
C179   C     0.17654   0.61122   0.24022   0.00000  Uiso   1.00
C180   C     0.15965   0.58901   0.47324   0.00000  Uiso   1.00
C181   C     0.18520   0.48113   0.12939   0.00000  Uiso   1.00
C182   C     0.14876   0.51838   0.37108   0.00000  Uiso   1.00
C183   C     0.19140   0.41903   0.01995   0.00000  Uiso   1.00
C184   C     0.19166   0.47186   0.08133   0.00000  Uiso   1.00
C185   C     0.14489   0.57389   0.43541   0.00000  Uiso   1.00
C186   C     0.12988   0.60453   0.41308   0.00000  Uiso   1.00
C187   C     0.17383   0.56277   0.49695   0.00000  Uiso   1.00
C188   C     0.16985   0.51902   0.48585   0.00000  Uiso   1.00
C189   C     0.15684   0.50344   0.44595   0.00000  Uiso   1.00
C190   C     0.17929   0.49021   0.01221   0.00000  Uiso   1.00
C191   C     0.18063   0.44765   0.49554   0.00000  Uiso   1.00
C192   C     0.16808   0.43321   0.45637   0.00000  Uiso   1.00
C193   C     0.15414   0.46015   0.43341   0.00000  Uiso   1.00
F194   F     0.20415   0.40217   0.08720   0.00000  Uiso   1.00
F195   F     0.19382   0.58152   0.02866   0.00000  Uiso   1.00
H196   H     0.31916   0.47238   0.28983   0.00000  Uiso   1.00
H197   H     0.14116   0.66140   0.38936   0.00000  Uiso   1.00
H198   H     0.20672   0.33699   0.21157   0.00000  Uiso   1.00
H199   H     0.12497   0.66466   0.28903   0.00000  Uiso   1.00
H200   H     0.16687   0.40039   0.44466   0.00000  Uiso   1.00
H201   H     0.19318   0.38673   0.00694   0.00000  Uiso   1.00
H202   H     0.17618   0.53085   0.07375   0.00000  Uiso   1.00
H203   H     0.16127   0.62204   0.48402   0.00000  Uiso   1.00
H204   H     0.14093   0.44637   0.40573   0.00000  Uiso   1.00
H205   H     0.01556   0.52774   0.21043   0.00000  Uiso   1.00
O206   O     0.16667   0.50000   0.25000   0.00000  Uiso   1.00
O207   O     0.15451   0.45970   0.15458   0.00000  Uiso   1.00
O208   O     0.12940   0.53724   0.34968   0.00000  Uiso   1.00
O209   O     0.20824   0.51092   0.14606   0.00000  Uiso   1.00
O210   O     0.17451   0.49213   0.34968   0.00000  Uiso   1.00
O211   O     0.09468   0.59729   0.40466   0.00000  Uiso   1.00
O212   O     0.15504   0.64279   0.40400   0.00000  Uiso   1.00
O213   O     0.17930   0.41352   0.28213   0.00000  Uiso   1.00
O214   O     0.14632   0.59418   0.27013   0.00000  Uiso   1.00
O215   O     0.07412   0.46625   0.23413   0.00000  Uiso   1.00
O216   O     0.26693   0.52605   0.21360   0.00000  Uiso   1.00
O217   O     0.07071   0.52211   0.28213   0.00000  Uiso   1.00
O218   O     0.25491   0.48559   0.27013   0.00000  Uiso   1.00
O219   O     0.13760   0.40277   0.23413   0.00000  Uiso   1.00
O220   O     0.20345   0.58953   0.21360   0.00000  Uiso   1.00
Zn221  Zn    0.19338   0.47327   0.28734   0.00000  Uiso   1.00
Zn222  Zn    0.13379   0.45791   0.21875   0.00000  Uiso   1.00
Zn223  Zn    0.21056   0.53109   0.20657   0.00000  Uiso   1.00
Zn224  Zn    0.12893   0.53773   0.28733   0.00000  Uiso   1.00
C225   C     0.38604   0.49290   0.26002   0.00000  Uiso   1.00
C226   C     0.51706   0.50126   0.05621   0.00000  Uiso   1.00
C227   C     0.53021   0.43107   0.06270   0.00000  Uiso   1.00
C228   C     0.61407   0.50712   0.24005   0.00000  Uiso   1.00
C229   C     0.48043   0.53134   0.41902   0.00000  Uiso   1.00
C230   C     0.65991   0.50983   0.23608   0.00000  Uiso   1.00
C231   C     0.34077   0.49035   0.26386   0.00000  Uiso   1.00
C232   C     0.51367   0.65578   0.23661   0.00000  Uiso   1.00
C233   C     0.48504   0.34506   0.26384   0.00000  Uiso   1.00
C234   C     0.48937   0.38918   0.26022   0.00000  Uiso   1.00
C235   C     0.50987   0.61122   0.24022   0.00000  Uiso   1.00
C236   C     0.49298   0.58901   0.47324   0.00000  Uiso   1.00
C237   C     0.51854   0.48113   0.12939   0.00000  Uiso   1.00
C238   C     0.48209   0.51838   0.37108   0.00000  Uiso   1.00
C239   C     0.52473   0.41903   0.01995   0.00000  Uiso   1.00
C240   C     0.52500   0.47186   0.08133   0.00000  Uiso   1.00
C241   C     0.47822   0.57389   0.43541   0.00000  Uiso   1.00
C242   C     0.46321   0.60453   0.41308   0.00000  Uiso   1.00
C243   C     0.50717   0.56277   0.49695   0.00000  Uiso   1.00
C244   C     0.50318   0.51902   0.48585   0.00000  Uiso   1.00
C245   C     0.49017   0.50344   0.44595   0.00000  Uiso   1.00
C246   C     0.51262   0.49021   0.01221   0.00000  Uiso   1.00
C247   C     0.51397   0.44765   0.49554   0.00000  Uiso   1.00
C248   C     0.50142   0.43321   0.45637   0.00000  Uiso   1.00
C249   C     0.48748   0.46015   0.43341   0.00000  Uiso   1.00
F250   F     0.53749   0.40217   0.08720   0.00000  Uiso   1.00
F251   F     0.52715   0.58152   0.02866   0.00000  Uiso   1.00
H252   H     0.65249   0.47238   0.28983   0.00000  Uiso   1.00
H253   H     0.47449   0.66140   0.38936   0.00000  Uiso   1.00
H254   H     0.54005   0.33699   0.21157   0.00000  Uiso   1.00
H255   H     0.45831   0.66466   0.28903   0.00000  Uiso   1.00
H256   H     0.50020   0.40039   0.44466   0.00000  Uiso   1.00
H257   H     0.52651   0.38673   0.00694   0.00000  Uiso   1.00
H258   H     0.50951   0.53085   0.07375   0.00000  Uiso   1.00
H259   H     0.49460   0.62204   0.48402   0.00000  Uiso   1.00
H260   H     0.47427   0.44637   0.40573   0.00000  Uiso   1.00
H261   H     0.34889   0.52774   0.21043   0.00000  Uiso   1.00
O262   O     0.50000   0.50000   0.25000   0.00000  Uiso   1.00
O263   O     0.48784   0.45970   0.15458   0.00000  Uiso   1.00
O264   O     0.46274   0.53724   0.34968   0.00000  Uiso   1.00
O265   O     0.54157   0.51092   0.14606   0.00000  Uiso   1.00
O266   O     0.50785   0.49213   0.34968   0.00000  Uiso   1.00
O267   O     0.42801   0.59729   0.40466   0.00000  Uiso   1.00
O268   O     0.48838   0.64279   0.40400   0.00000  Uiso   1.00
O269   O     0.51264   0.41352   0.28213   0.00000  Uiso   1.00
O270   O     0.47965   0.59418   0.27013   0.00000  Uiso   1.00
O271   O     0.40745   0.46625   0.23413   0.00000  Uiso   1.00
O272   O     0.60026   0.52605   0.21360   0.00000  Uiso   1.00
O273   O     0.40405   0.52211   0.28213   0.00000  Uiso   1.00
O274   O     0.58824   0.48559   0.27013   0.00000  Uiso   1.00
O275   O     0.47093   0.40277   0.23413   0.00000  Uiso   1.00
O276   O     0.53678   0.58953   0.21360   0.00000  Uiso   1.00
Zn277  Zn    0.52672   0.47327   0.28734   0.00000  Uiso   1.00
Zn278  Zn    0.46713   0.45791   0.21875   0.00000  Uiso   1.00
Zn279  Zn    0.54389   0.53109   0.20657   0.00000  Uiso   1.00
Zn280  Zn    0.46226   0.53773   0.28733   0.00000  Uiso   1.00
C281   C     0.71937   0.49290   0.26002   0.00000  Uiso   1.00
C282   C     0.85039   0.50126   0.05621   0.00000  Uiso   1.00
C283   C     0.86354   0.43107   0.06270   0.00000  Uiso   1.00
C284   C     0.94741   0.50712   0.24005   0.00000  Uiso   1.00
C285   C     0.81376   0.53134   0.41902   0.00000  Uiso   1.00
C286   C     0.99324   0.50983   0.23608   0.00000  Uiso   1.00
C287   C     0.67411   0.49035   0.26386   0.00000  Uiso   1.00
C288   C     0.84700   0.65578   0.23661   0.00000  Uiso   1.00
C289   C     0.81837   0.34506   0.26384   0.00000  Uiso   1.00
C290   C     0.82270   0.38918   0.26022   0.00000  Uiso   1.00
C291   C     0.84320   0.61122   0.24022   0.00000  Uiso   1.00
C292   C     0.82631   0.58901   0.47324   0.00000  Uiso   1.00
C293   C     0.85187   0.48113   0.12939   0.00000  Uiso   1.00
C294   C     0.81542   0.51838   0.37108   0.00000  Uiso   1.00
C295   C     0.85806   0.41903   0.01995   0.00000  Uiso   1.00
C296   C     0.85833   0.47186   0.08133   0.00000  Uiso   1.00
C297   C     0.81155   0.57389   0.43541   0.00000  Uiso   1.00
C298   C     0.79655   0.60453   0.41308   0.00000  Uiso   1.00
C299   C     0.84050   0.56277   0.49695   0.00000  Uiso   1.00
C300   C     0.83652   0.51902   0.48585   0.00000  Uiso   1.00
C301   C     0.82351   0.50344   0.44595   0.00000  Uiso   1.00
C302   C     0.84595   0.49021   0.01221   0.00000  Uiso   1.00
C303   C     0.84730   0.44765   0.49554   0.00000  Uiso   1.00
C304   C     0.83475   0.43321   0.45637   0.00000  Uiso   1.00
C305   C     0.82081   0.46015   0.43341   0.00000  Uiso   1.00
F306   F     0.87082   0.40217   0.08720   0.00000  Uiso   1.00
F307   F     0.86049   0.58152   0.02866   0.00000  Uiso   1.00
H308   H     0.98582   0.47238   0.28983   0.00000  Uiso   1.00
H309   H     0.80783   0.66140   0.38936   0.00000  Uiso   1.00
H310   H     0.87338   0.33699   0.21157   0.00000  Uiso   1.00
H311   H     0.79164   0.66466   0.28903   0.00000  Uiso   1.00
H312   H     0.83353   0.40039   0.44466   0.00000  Uiso   1.00
H313   H     0.85985   0.38673   0.00694   0.00000  Uiso   1.00
H314   H     0.84285   0.53085   0.07375   0.00000  Uiso   1.00
H315   H     0.82793   0.62204   0.48402   0.00000  Uiso   1.00
H316   H     0.80760   0.44637   0.40573   0.00000  Uiso   1.00
H317   H     0.68223   0.52774   0.21043   0.00000  Uiso   1.00
O318   O     0.83333   0.50000   0.25000   0.00000  Uiso   1.00
O319   O     0.82118   0.45970   0.15458   0.00000  Uiso   1.00
O320   O     0.79607   0.53724   0.34968   0.00000  Uiso   1.00
O321   O     0.87491   0.51092   0.14606   0.00000  Uiso   1.00
O322   O     0.84118   0.49213   0.34968   0.00000  Uiso   1.00
O323   O     0.76134   0.59729   0.40466   0.00000  Uiso   1.00
O324   O     0.82171   0.64279   0.40400   0.00000  Uiso   1.00
O325   O     0.84597   0.41352   0.28213   0.00000  Uiso   1.00
O326   O     0.81298   0.59418   0.27013   0.00000  Uiso   1.00
O327   O     0.74078   0.46625   0.23413   0.00000  Uiso   1.00
O328   O     0.93360   0.52605   0.21360   0.00000  Uiso   1.00
O329   O     0.73738   0.52211   0.28213   0.00000  Uiso   1.00
O330   O     0.92158   0.48559   0.27013   0.00000  Uiso   1.00
O331   O     0.80426   0.40277   0.23413   0.00000  Uiso   1.00
O332   O     0.87012   0.58953   0.21360   0.00000  Uiso   1.00
Zn333  Zn    0.86005   0.47327   0.28734   0.00000  Uiso   1.00
Zn334  Zn    0.80046   0.45791   0.21875   0.00000  Uiso   1.00
Zn335  Zn    0.87723   0.53109   0.20657   0.00000  Uiso   1.00
Zn336  Zn    0.79560   0.53773   0.28733   0.00000  Uiso   1.00
C337   C     0.05270   0.82624   0.26002   0.00000  Uiso   1.00
C338   C     0.18373   0.83460   0.05621   0.00000  Uiso   1.00
C339   C     0.19688   0.76440   0.06270   0.00000  Uiso   1.00
C340   C     0.28074   0.84045   0.24005   0.00000  Uiso   1.00
C341   C     0.14709   0.86468   0.41902   0.00000  Uiso   1.00
C342   C     0.32658   0.84316   0.23608   0.00000  Uiso   1.00
C343   C     0.00744   0.82369   0.26386   0.00000  Uiso   1.00
C344   C     0.18034   0.98911   0.23661   0.00000  Uiso   1.00
C345   C     0.15171   0.67839   0.26384   0.00000  Uiso   1.00
C346   C     0.15604   0.72251   0.26022   0.00000  Uiso   1.00
C347   C     0.17654   0.94455   0.24022   0.00000  Uiso   1.00
C348   C     0.15965   0.92234   0.47324   0.00000  Uiso   1.00
C349   C     0.18520   0.81447   0.12939   0.00000  Uiso   1.00
C350   C     0.14876   0.85172   0.37108   0.00000  Uiso   1.00
C351   C     0.19140   0.75237   0.01995   0.00000  Uiso   1.00
C352   C     0.19166   0.80519   0.08133   0.00000  Uiso   1.00
C353   C     0.14489   0.90722   0.43541   0.00000  Uiso   1.00
C354   C     0.12988   0.93787   0.41308   0.00000  Uiso   1.00
C355   C     0.17383   0.89610   0.49695   0.00000  Uiso   1.00
C356   C     0.16985   0.85236   0.48585   0.00000  Uiso   1.00
C357   C     0.15684   0.83677   0.44595   0.00000  Uiso   1.00
C358   C     0.17929   0.82354   0.01221   0.00000  Uiso   1.00
C359   C     0.18063   0.78098   0.49554   0.00000  Uiso   1.00
C360   C     0.16808   0.76655   0.45637   0.00000  Uiso   1.00
C361   C     0.15414   0.79349   0.43341   0.00000  Uiso   1.00
F362   F     0.20415   0.73550   0.08720   0.00000  Uiso   1.00
F363   F     0.19382   0.91486   0.02866   0.00000  Uiso   1.00
H364   H     0.31916   0.80571   0.28983   0.00000  Uiso   1.00
H365   H     0.14116   0.99473   0.38936   0.00000  Uiso   1.00
H366   H     0.20672   0.67032   0.21157   0.00000  Uiso   1.00
H367   H     0.12497   0.99799   0.28903   0.00000  Uiso   1.00
H368   H     0.16687   0.73373   0.44466   0.00000  Uiso   1.00
H369   H     0.19318   0.72006   0.00694   0.00000  Uiso   1.00
H370   H     0.17618   0.86419   0.07375   0.00000  Uiso   1.00
H371   H     0.16127   0.95538   0.48402   0.00000  Uiso   1.00
H372   H     0.14093   0.77971   0.40573   0.00000  Uiso   1.00
H373   H     0.01556   0.86107   0.21043   0.00000  Uiso   1.00
O374   O     0.16667   0.83333   0.25000   0.00000  Uiso   1.00
O375   O     0.15451   0.79304   0.15458   0.00000  Uiso   1.00
O376   O     0.12940   0.87058   0.34968   0.00000  Uiso   1.00
O377   O     0.20824   0.84425   0.14606   0.00000  Uiso   1.00
O378   O     0.17451   0.82546   0.34968   0.00000  Uiso   1.00
O379   O     0.09468   0.93062   0.40466   0.00000  Uiso   1.00
O380   O     0.15504   0.97612   0.40400   0.00000  Uiso   1.00
O381   O     0.17930   0.74686   0.28213   0.00000  Uiso   1.00
O382   O     0.14632   0.92751   0.27013   0.00000  Uiso   1.00
O383   O     0.07412   0.79958   0.23413   0.00000  Uiso   1.00
O384   O     0.26693   0.85939   0.21360   0.00000  Uiso   1.00
O385   O     0.07071   0.85544   0.28213   0.00000  Uiso   1.00
O386   O     0.25491   0.81892   0.27013   0.00000  Uiso   1.00
O387   O     0.13760   0.73610   0.23413   0.00000  Uiso   1.00
O388   O     0.20345   0.92286   0.21360   0.00000  Uiso   1.00
Zn389  Zn    0.19338   0.80661   0.28734   0.00000  Uiso   1.00
Zn390  Zn    0.13379   0.79124   0.21875   0.00000  Uiso   1.00
Zn391  Zn    0.21056   0.86442   0.20657   0.00000  Uiso   1.00
Zn392  Zn    0.12893   0.87106   0.28733   0.00000  Uiso   1.00
C393   C     0.38604   0.82624   0.26002   0.00000  Uiso   1.00
C394   C     0.51706   0.83460   0.05621   0.00000  Uiso   1.00
C395   C     0.53021   0.76440   0.06270   0.00000  Uiso   1.00
C396   C     0.61407   0.84045   0.24005   0.00000  Uiso   1.00
C397   C     0.48043   0.86468   0.41902   0.00000  Uiso   1.00
C398   C     0.65991   0.84316   0.23608   0.00000  Uiso   1.00
C399   C     0.34077   0.82369   0.26386   0.00000  Uiso   1.00
C400   C     0.51367   0.98911   0.23661   0.00000  Uiso   1.00
C401   C     0.48504   0.67839   0.26384   0.00000  Uiso   1.00
C402   C     0.48937   0.72251   0.26022   0.00000  Uiso   1.00
C403   C     0.50987   0.94455   0.24022   0.00000  Uiso   1.00
C404   C     0.49298   0.92234   0.47324   0.00000  Uiso   1.00
C405   C     0.51854   0.81447   0.12939   0.00000  Uiso   1.00
C406   C     0.48209   0.85172   0.37108   0.00000  Uiso   1.00
C407   C     0.52473   0.75237   0.01995   0.00000  Uiso   1.00
C408   C     0.52500   0.80519   0.08133   0.00000  Uiso   1.00
C409   C     0.47822   0.90722   0.43541   0.00000  Uiso   1.00
C410   C     0.46321   0.93787   0.41308   0.00000  Uiso   1.00
C411   C     0.50717   0.89610   0.49695   0.00000  Uiso   1.00
C412   C     0.50318   0.85236   0.48585   0.00000  Uiso   1.00
C413   C     0.49017   0.83677   0.44595   0.00000  Uiso   1.00
C414   C     0.51262   0.82354   0.01221   0.00000  Uiso   1.00
C415   C     0.51397   0.78098   0.49554   0.00000  Uiso   1.00
C416   C     0.50142   0.76655   0.45637   0.00000  Uiso   1.00
C417   C     0.48748   0.79349   0.43341   0.00000  Uiso   1.00
F418   F     0.53749   0.73550   0.08720   0.00000  Uiso   1.00
F419   F     0.52715   0.91486   0.02866   0.00000  Uiso   1.00
H420   H     0.65249   0.80571   0.28983   0.00000  Uiso   1.00
H421   H     0.47449   0.99473   0.38936   0.00000  Uiso   1.00
H422   H     0.54005   0.67032   0.21157   0.00000  Uiso   1.00
H423   H     0.45831   0.99799   0.28903   0.00000  Uiso   1.00
H424   H     0.50020   0.73373   0.44466   0.00000  Uiso   1.00
H425   H     0.52651   0.72006   0.00694   0.00000  Uiso   1.00
H426   H     0.50951   0.86419   0.07375   0.00000  Uiso   1.00
H427   H     0.49460   0.95538   0.48402   0.00000  Uiso   1.00
H428   H     0.47427   0.77971   0.40573   0.00000  Uiso   1.00
H429   H     0.34889   0.86107   0.21043   0.00000  Uiso   1.00
O430   O     0.50000   0.83333   0.25000   0.00000  Uiso   1.00
O431   O     0.48784   0.79304   0.15458   0.00000  Uiso   1.00
O432   O     0.46274   0.87058   0.34968   0.00000  Uiso   1.00
O433   O     0.54157   0.84425   0.14606   0.00000  Uiso   1.00
O434   O     0.50785   0.82546   0.34968   0.00000  Uiso   1.00
O435   O     0.42801   0.93062   0.40466   0.00000  Uiso   1.00
O436   O     0.48838   0.97612   0.40400   0.00000  Uiso   1.00
O437   O     0.51264   0.74686   0.28213   0.00000  Uiso   1.00
O438   O     0.47965   0.92751   0.27013   0.00000  Uiso   1.00
O439   O     0.40745   0.79958   0.23413   0.00000  Uiso   1.00
O440   O     0.60026   0.85939   0.21360   0.00000  Uiso   1.00
O441   O     0.40405   0.85544   0.28213   0.00000  Uiso   1.00
O442   O     0.58824   0.81892   0.27013   0.00000  Uiso   1.00
O443   O     0.47093   0.73610   0.23413   0.00000  Uiso   1.00
O444   O     0.53678   0.92286   0.21360   0.00000  Uiso   1.00
Zn445  Zn    0.52672   0.80661   0.28734   0.00000  Uiso   1.00
Zn446  Zn    0.46713   0.79124   0.21875   0.00000  Uiso   1.00
Zn447  Zn    0.54389   0.86442   0.20657   0.00000  Uiso   1.00
Zn448  Zn    0.46226   0.87106   0.28733   0.00000  Uiso   1.00
C449   C     0.71937   0.82624   0.26002   0.00000  Uiso   1.00
C450   C     0.85039   0.83460   0.05621   0.00000  Uiso   1.00
C451   C     0.86354   0.76440   0.06270   0.00000  Uiso   1.00
C452   C     0.94741   0.84045   0.24005   0.00000  Uiso   1.00
C453   C     0.81376   0.86468   0.41902   0.00000  Uiso   1.00
C454   C     0.99324   0.84316   0.23608   0.00000  Uiso   1.00
C455   C     0.67411   0.82369   0.26386   0.00000  Uiso   1.00
C456   C     0.84700   0.98911   0.23661   0.00000  Uiso   1.00
C457   C     0.81837   0.67839   0.26384   0.00000  Uiso   1.00
C458   C     0.82270   0.72251   0.26022   0.00000  Uiso   1.00
C459   C     0.84320   0.94455   0.24022   0.00000  Uiso   1.00
C460   C     0.82631   0.92234   0.47324   0.00000  Uiso   1.00
C461   C     0.85187   0.81447   0.12939   0.00000  Uiso   1.00
C462   C     0.81542   0.85172   0.37108   0.00000  Uiso   1.00
C463   C     0.85806   0.75237   0.01995   0.00000  Uiso   1.00
C464   C     0.85833   0.80519   0.08133   0.00000  Uiso   1.00
C465   C     0.81155   0.90722   0.43541   0.00000  Uiso   1.00
C466   C     0.79655   0.93787   0.41308   0.00000  Uiso   1.00
C467   C     0.84050   0.89610   0.49695   0.00000  Uiso   1.00
C468   C     0.83652   0.85236   0.48585   0.00000  Uiso   1.00
C469   C     0.82351   0.83677   0.44595   0.00000  Uiso   1.00
C470   C     0.84595   0.82354   0.01221   0.00000  Uiso   1.00
C471   C     0.84730   0.78098   0.49554   0.00000  Uiso   1.00
C472   C     0.83475   0.76655   0.45637   0.00000  Uiso   1.00
C473   C     0.82081   0.79349   0.43341   0.00000  Uiso   1.00
F474   F     0.87082   0.73550   0.08720   0.00000  Uiso   1.00
F475   F     0.86049   0.91486   0.02866   0.00000  Uiso   1.00
H476   H     0.98582   0.80571   0.28983   0.00000  Uiso   1.00
H477   H     0.80783   0.99473   0.38936   0.00000  Uiso   1.00
H478   H     0.87338   0.67032   0.21157   0.00000  Uiso   1.00
H479   H     0.79164   0.99799   0.28903   0.00000  Uiso   1.00
H480   H     0.83353   0.73373   0.44466   0.00000  Uiso   1.00
H481   H     0.85985   0.72006   0.00694   0.00000  Uiso   1.00
H482   H     0.84285   0.86419   0.07375   0.00000  Uiso   1.00
H483   H     0.82793   0.95538   0.48402   0.00000  Uiso   1.00
H484   H     0.80760   0.77971   0.40573   0.00000  Uiso   1.00
H485   H     0.68223   0.86107   0.21043   0.00000  Uiso   1.00
O486   O     0.83333   0.83333   0.25000   0.00000  Uiso   1.00
O487   O     0.82118   0.79304   0.15458   0.00000  Uiso   1.00
O488   O     0.79607   0.87058   0.34968   0.00000  Uiso   1.00
O489   O     0.87491   0.84425   0.14606   0.00000  Uiso   1.00
O490   O     0.84118   0.82546   0.34968   0.00000  Uiso   1.00
O491   O     0.76134   0.93062   0.40466   0.00000  Uiso   1.00
O492   O     0.82171   0.97612   0.40400   0.00000  Uiso   1.00
O493   O     0.84597   0.74686   0.28213   0.00000  Uiso   1.00
O494   O     0.81298   0.92751   0.27013   0.00000  Uiso   1.00
O495   O     0.74078   0.79958   0.23413   0.00000  Uiso   1.00
O496   O     0.93360   0.85939   0.21360   0.00000  Uiso   1.00
O497   O     0.73738   0.85544   0.28213   0.00000  Uiso   1.00
O498   O     0.92158   0.81892   0.27013   0.00000  Uiso   1.00
O499   O     0.80426   0.73610   0.23413   0.00000  Uiso   1.00
O500   O     0.87012   0.92286   0.21360   0.00000  Uiso   1.00
Zn501  Zn    0.86005   0.80661   0.28734   0.00000  Uiso   1.00
Zn502  Zn    0.80046   0.79124   0.21875   0.00000  Uiso   1.00
Zn503  Zn    0.87723   0.86442   0.20657   0.00000  Uiso   1.00
Zn504  Zn    0.79560   0.87106   0.28733   0.00000  Uiso   1.00
C505   C     0.05270   0.15957   0.76002   0.00000  Uiso   1.00
C506   C     0.18373   0.16793   0.55621   0.00000  Uiso   1.00
C507   C     0.19688   0.09774   0.56270   0.00000  Uiso   1.00
C508   C     0.28074   0.17379   0.74005   0.00000  Uiso   1.00
C509   C     0.14709   0.19801   0.91902   0.00000  Uiso   1.00
C510   C     0.32658   0.17650   0.73608   0.00000  Uiso   1.00
C511   C     0.00744   0.15702   0.76386   0.00000  Uiso   1.00
C512   C     0.18034   0.32244   0.73661   0.00000  Uiso   1.00
C513   C     0.15171   0.01172   0.76384   0.00000  Uiso   1.00
C514   C     0.15604   0.05584   0.76022   0.00000  Uiso   1.00
C515   C     0.17654   0.27788   0.74022   0.00000  Uiso   1.00
C516   C     0.15965   0.25568   0.97324   0.00000  Uiso   1.00
C517   C     0.18520   0.14780   0.62939   0.00000  Uiso   1.00
C518   C     0.14876   0.18505   0.87108   0.00000  Uiso   1.00
C519   C     0.19140   0.08570   0.51995   0.00000  Uiso   1.00
C520   C     0.19166   0.13853   0.58133   0.00000  Uiso   1.00
C521   C     0.14489   0.24055   0.93541   0.00000  Uiso   1.00
C522   C     0.12988   0.27120   0.91308   0.00000  Uiso   1.00
C523   C     0.17383   0.22943   0.99695   0.00000  Uiso   1.00
C524   C     0.16985   0.18569   0.98585   0.00000  Uiso   1.00
C525   C     0.15684   0.17011   0.94595   0.00000  Uiso   1.00
C526   C     0.17929   0.15688   0.51221   0.00000  Uiso   1.00
C527   C     0.18063   0.11431   0.99554   0.00000  Uiso   1.00
C528   C     0.16808   0.09988   0.95637   0.00000  Uiso   1.00
C529   C     0.15414   0.12682   0.93341   0.00000  Uiso   1.00
F530   F     0.20415   0.06883   0.58720   0.00000  Uiso   1.00
F531   F     0.19382   0.24819   0.52866   0.00000  Uiso   1.00
H532   H     0.31916   0.13904   0.78983   0.00000  Uiso   1.00
H533   H     0.14116   0.32806   0.88936   0.00000  Uiso   1.00
H534   H     0.20672   0.00365   0.71157   0.00000  Uiso   1.00
H535   H     0.12497   0.33132   0.78903   0.00000  Uiso   1.00
H536   H     0.16687   0.06706   0.94466   0.00000  Uiso   1.00
H537   H     0.19318   0.05340   0.50694   0.00000  Uiso   1.00
H538   H     0.17618   0.19752   0.57375   0.00000  Uiso   1.00
H539   H     0.16127   0.28871   0.98402   0.00000  Uiso   1.00
H540   H     0.14093   0.11304   0.90573   0.00000  Uiso   1.00
H541   H     0.01556   0.19441   0.71043   0.00000  Uiso   1.00
O542   O     0.16667   0.16667   0.75000   0.00000  Uiso   1.00
O543   O     0.15451   0.12637   0.65458   0.00000  Uiso   1.00
O544   O     0.12940   0.20391   0.84968   0.00000  Uiso   1.00
O545   O     0.20824   0.17759   0.64606   0.00000  Uiso   1.00
O546   O     0.17451   0.15880   0.84968   0.00000  Uiso   1.00
O547   O     0.09468   0.26396   0.90466   0.00000  Uiso   1.00
O548   O     0.15504   0.30945   0.90400   0.00000  Uiso   1.00
O549   O     0.17930   0.08019   0.78213   0.00000  Uiso   1.00
O550   O     0.14632   0.26085   0.77013   0.00000  Uiso   1.00
O551   O     0.07412   0.13291   0.73413   0.00000  Uiso   1.00
O552   O     0.26693   0.19272   0.71360   0.00000  Uiso   1.00
O553   O     0.07071   0.18878   0.78213   0.00000  Uiso   1.00
O554   O     0.25491   0.15226   0.77013   0.00000  Uiso   1.00
O555   O     0.13760   0.06944   0.73413   0.00000  Uiso   1.00
O556   O     0.20345   0.25620   0.71360   0.00000  Uiso   1.00
Zn557  Zn    0.19338   0.13994   0.78734   0.00000  Uiso   1.00
Zn558  Zn    0.13379   0.12458   0.71875   0.00000  Uiso   1.00
Zn559  Zn    0.21056   0.19775   0.70657   0.00000  Uiso   1.00
Zn560  Zn    0.12893   0.20439   0.78733   0.00000  Uiso   1.00
C561   C     0.38604   0.15957   0.76002   0.00000  Uiso   1.00
C562   C     0.51706   0.16793   0.55621   0.00000  Uiso   1.00
C563   C     0.53021   0.09774   0.56270   0.00000  Uiso   1.00
C564   C     0.61407   0.17379   0.74005   0.00000  Uiso   1.00
C565   C     0.48043   0.19801   0.91902   0.00000  Uiso   1.00
C566   C     0.65991   0.17650   0.73608   0.00000  Uiso   1.00
C567   C     0.34077   0.15702   0.76386   0.00000  Uiso   1.00
C568   C     0.51367   0.32244   0.73661   0.00000  Uiso   1.00
C569   C     0.48504   0.01172   0.76384   0.00000  Uiso   1.00
C570   C     0.48937   0.05584   0.76022   0.00000  Uiso   1.00
C571   C     0.50987   0.27788   0.74022   0.00000  Uiso   1.00
C572   C     0.49298   0.25568   0.97324   0.00000  Uiso   1.00
C573   C     0.51854   0.14780   0.62939   0.00000  Uiso   1.00
C574   C     0.48209   0.18505   0.87108   0.00000  Uiso   1.00
C575   C     0.52473   0.08570   0.51995   0.00000  Uiso   1.00
C576   C     0.52500   0.13853   0.58133   0.00000  Uiso   1.00
C577   C     0.47822   0.24055   0.93541   0.00000  Uiso   1.00
C578   C     0.46321   0.27120   0.91308   0.00000  Uiso   1.00
C579   C     0.50717   0.22943   0.99695   0.00000  Uiso   1.00
C580   C     0.50318   0.18569   0.98585   0.00000  Uiso   1.00
C581   C     0.49017   0.17011   0.94595   0.00000  Uiso   1.00
C582   C     0.51262   0.15688   0.51221   0.00000  Uiso   1.00
C583   C     0.51397   0.11431   0.99554   0.00000  Uiso   1.00
C584   C     0.50142   0.09988   0.95637   0.00000  Uiso   1.00
C585   C     0.48748   0.12682   0.93341   0.00000  Uiso   1.00
F586   F     0.53749   0.06883   0.58720   0.00000  Uiso   1.00
F587   F     0.52715   0.24819   0.52866   0.00000  Uiso   1.00
H588   H     0.65249   0.13904   0.78983   0.00000  Uiso   1.00
H589   H     0.47449   0.32806   0.88936   0.00000  Uiso   1.00
H590   H     0.54005   0.00365   0.71157   0.00000  Uiso   1.00
H591   H     0.45831   0.33132   0.78903   0.00000  Uiso   1.00
H592   H     0.50020   0.06706   0.94466   0.00000  Uiso   1.00
H593   H     0.52651   0.05340   0.50694   0.00000  Uiso   1.00
H594   H     0.50951   0.19752   0.57375   0.00000  Uiso   1.00
H595   H     0.49460   0.28871   0.98402   0.00000  Uiso   1.00
H596   H     0.47427   0.11304   0.90573   0.00000  Uiso   1.00
H597   H     0.34889   0.19441   0.71043   0.00000  Uiso   1.00
O598   O     0.50000   0.16667   0.75000   0.00000  Uiso   1.00
O599   O     0.48784   0.12637   0.65458   0.00000  Uiso   1.00
O600   O     0.46274   0.20391   0.84968   0.00000  Uiso   1.00
O601   O     0.54157   0.17759   0.64606   0.00000  Uiso   1.00
O602   O     0.50785   0.15880   0.84968   0.00000  Uiso   1.00
O603   O     0.42801   0.26396   0.90466   0.00000  Uiso   1.00
O604   O     0.48838   0.30945   0.90400   0.00000  Uiso   1.00
O605   O     0.51264   0.08019   0.78213   0.00000  Uiso   1.00
O606   O     0.47965   0.26085   0.77013   0.00000  Uiso   1.00
O607   O     0.40745   0.13291   0.73413   0.00000  Uiso   1.00
O608   O     0.60026   0.19272   0.71360   0.00000  Uiso   1.00
O609   O     0.40405   0.18878   0.78213   0.00000  Uiso   1.00
O610   O     0.58824   0.15226   0.77013   0.00000  Uiso   1.00
O611   O     0.47093   0.06944   0.73413   0.00000  Uiso   1.00
O612   O     0.53678   0.25620   0.71360   0.00000  Uiso   1.00
Zn613  Zn    0.52672   0.13994   0.78734   0.00000  Uiso   1.00
Zn614  Zn    0.46713   0.12458   0.71875   0.00000  Uiso   1.00
Zn615  Zn    0.54389   0.19775   0.70657   0.00000  Uiso   1.00
Zn616  Zn    0.46226   0.20439   0.78733   0.00000  Uiso   1.00
C617   C     0.71937   0.15957   0.76002   0.00000  Uiso   1.00
C618   C     0.85039   0.16793   0.55621   0.00000  Uiso   1.00
C619   C     0.86354   0.09774   0.56270   0.00000  Uiso   1.00
C620   C     0.94741   0.17379   0.74005   0.00000  Uiso   1.00
C621   C     0.81376   0.19801   0.91902   0.00000  Uiso   1.00
C622   C     0.99324   0.17650   0.73608   0.00000  Uiso   1.00
C623   C     0.67411   0.15702   0.76386   0.00000  Uiso   1.00
C624   C     0.84700   0.32244   0.73661   0.00000  Uiso   1.00
C625   C     0.81837   0.01172   0.76384   0.00000  Uiso   1.00
C626   C     0.82270   0.05584   0.76022   0.00000  Uiso   1.00
C627   C     0.84320   0.27788   0.74022   0.00000  Uiso   1.00
C628   C     0.82631   0.25568   0.97324   0.00000  Uiso   1.00
C629   C     0.85187   0.14780   0.62939   0.00000  Uiso   1.00
C630   C     0.81542   0.18505   0.87108   0.00000  Uiso   1.00
C631   C     0.85806   0.08570   0.51995   0.00000  Uiso   1.00
C632   C     0.85833   0.13853   0.58133   0.00000  Uiso   1.00
C633   C     0.81155   0.24055   0.93541   0.00000  Uiso   1.00
C634   C     0.79655   0.27120   0.91308   0.00000  Uiso   1.00
C635   C     0.84050   0.22943   0.99695   0.00000  Uiso   1.00
C636   C     0.83652   0.18569   0.98585   0.00000  Uiso   1.00
C637   C     0.82351   0.17011   0.94595   0.00000  Uiso   1.00
C638   C     0.84595   0.15688   0.51221   0.00000  Uiso   1.00
C639   C     0.84730   0.11431   0.99554   0.00000  Uiso   1.00
C640   C     0.83475   0.09988   0.95637   0.00000  Uiso   1.00
C641   C     0.82081   0.12682   0.93341   0.00000  Uiso   1.00
F642   F     0.87082   0.06883   0.58720   0.00000  Uiso   1.00
F643   F     0.86049   0.24819   0.52866   0.00000  Uiso   1.00
H644   H     0.98582   0.13904   0.78983   0.00000  Uiso   1.00
H645   H     0.80783   0.32806   0.88936   0.00000  Uiso   1.00
H646   H     0.87338   0.00365   0.71157   0.00000  Uiso   1.00
H647   H     0.79164   0.33132   0.78903   0.00000  Uiso   1.00
H648   H     0.83353   0.06706   0.94466   0.00000  Uiso   1.00
H649   H     0.85985   0.05340   0.50694   0.00000  Uiso   1.00
H650   H     0.84285   0.19752   0.57375   0.00000  Uiso   1.00
H651   H     0.82793   0.28871   0.98402   0.00000  Uiso   1.00
H652   H     0.80760   0.11304   0.90573   0.00000  Uiso   1.00
H653   H     0.68223   0.19441   0.71043   0.00000  Uiso   1.00
O654   O     0.83333   0.16667   0.75000   0.00000  Uiso   1.00
O655   O     0.82118   0.12637   0.65458   0.00000  Uiso   1.00
O656   O     0.79607   0.20391   0.84968   0.00000  Uiso   1.00
O657   O     0.87491   0.17759   0.64606   0.00000  Uiso   1.00
O658   O     0.84118   0.15880   0.84968   0.00000  Uiso   1.00
O659   O     0.76134   0.26396   0.90466   0.00000  Uiso   1.00
O660   O     0.82171   0.30945   0.90400   0.00000  Uiso   1.00
O661   O     0.84597   0.08019   0.78213   0.00000  Uiso   1.00
O662   O     0.81298   0.26085   0.77013   0.00000  Uiso   1.00
O663   O     0.74078   0.13291   0.73413   0.00000  Uiso   1.00
O664   O     0.93360   0.19272   0.71360   0.00000  Uiso   1.00
O665   O     0.73738   0.18878   0.78213   0.00000  Uiso   1.00
O666   O     0.92158   0.15226   0.77013   0.00000  Uiso   1.00
O667   O     0.80426   0.06944   0.73413   0.00000  Uiso   1.00
O668   O     0.87012   0.25620   0.71360   0.00000  Uiso   1.00
Zn669  Zn    0.86005   0.13994   0.78734   0.00000  Uiso   1.00
Zn670  Zn    0.80046   0.12458   0.71875   0.00000  Uiso   1.00
Zn671  Zn    0.87723   0.19775   0.70657   0.00000  Uiso   1.00
Zn672  Zn    0.79560   0.20439   0.78733   0.00000  Uiso   1.00
C673   C     0.05270   0.49290   0.76002   0.00000  Uiso   1.00
C674   C     0.18373   0.50126   0.55621   0.00000  Uiso   1.00
C675   C     0.19688   0.43107   0.56270   0.00000  Uiso   1.00
C676   C     0.28074   0.50712   0.74005   0.00000  Uiso   1.00
C677   C     0.14709   0.53134   0.91902   0.00000  Uiso   1.00
C678   C     0.32658   0.50983   0.73608   0.00000  Uiso   1.00
C679   C     0.00744   0.49035   0.76386   0.00000  Uiso   1.00
C680   C     0.18034   0.65578   0.73661   0.00000  Uiso   1.00
C681   C     0.15171   0.34506   0.76384   0.00000  Uiso   1.00
C682   C     0.15604   0.38918   0.76022   0.00000  Uiso   1.00
C683   C     0.17654   0.61122   0.74022   0.00000  Uiso   1.00
C684   C     0.15965   0.58901   0.97324   0.00000  Uiso   1.00
C685   C     0.18520   0.48113   0.62939   0.00000  Uiso   1.00
C686   C     0.14876   0.51838   0.87108   0.00000  Uiso   1.00
C687   C     0.19140   0.41903   0.51995   0.00000  Uiso   1.00
C688   C     0.19166   0.47186   0.58133   0.00000  Uiso   1.00
C689   C     0.14489   0.57389   0.93541   0.00000  Uiso   1.00
C690   C     0.12988   0.60453   0.91308   0.00000  Uiso   1.00
C691   C     0.17383   0.56277   0.99695   0.00000  Uiso   1.00
C692   C     0.16985   0.51902   0.98585   0.00000  Uiso   1.00
C693   C     0.15684   0.50344   0.94595   0.00000  Uiso   1.00
C694   C     0.17929   0.49021   0.51221   0.00000  Uiso   1.00
C695   C     0.18063   0.44765   0.99554   0.00000  Uiso   1.00
C696   C     0.16808   0.43321   0.95637   0.00000  Uiso   1.00
C697   C     0.15414   0.46015   0.93341   0.00000  Uiso   1.00
F698   F     0.20415   0.40217   0.58720   0.00000  Uiso   1.00
F699   F     0.19382   0.58152   0.52866   0.00000  Uiso   1.00
H700   H     0.31916   0.47238   0.78983   0.00000  Uiso   1.00
H701   H     0.14116   0.66140   0.88936   0.00000  Uiso   1.00
H702   H     0.20672   0.33699   0.71157   0.00000  Uiso   1.00
H703   H     0.12497   0.66466   0.78903   0.00000  Uiso   1.00
H704   H     0.16687   0.40039   0.94466   0.00000  Uiso   1.00
H705   H     0.19318   0.38673   0.50694   0.00000  Uiso   1.00
H706   H     0.17618   0.53085   0.57375   0.00000  Uiso   1.00
H707   H     0.16127   0.62204   0.98402   0.00000  Uiso   1.00
H708   H     0.14093   0.44637   0.90573   0.00000  Uiso   1.00
H709   H     0.01556   0.52774   0.71043   0.00000  Uiso   1.00
O710   O     0.16667   0.50000   0.75000   0.00000  Uiso   1.00
O711   O     0.15451   0.45970   0.65458   0.00000  Uiso   1.00
O712   O     0.12940   0.53724   0.84968   0.00000  Uiso   1.00
O713   O     0.20824   0.51092   0.64606   0.00000  Uiso   1.00
O714   O     0.17451   0.49213   0.84968   0.00000  Uiso   1.00
O715   O     0.09468   0.59729   0.90466   0.00000  Uiso   1.00
O716   O     0.15504   0.64279   0.90400   0.00000  Uiso   1.00
O717   O     0.17930   0.41352   0.78213   0.00000  Uiso   1.00
O718   O     0.14632   0.59418   0.77013   0.00000  Uiso   1.00
O719   O     0.07412   0.46625   0.73413   0.00000  Uiso   1.00
O720   O     0.26693   0.52605   0.71360   0.00000  Uiso   1.00
O721   O     0.07071   0.52211   0.78213   0.00000  Uiso   1.00
O722   O     0.25491   0.48559   0.77013   0.00000  Uiso   1.00
O723   O     0.13760   0.40277   0.73413   0.00000  Uiso   1.00
O724   O     0.20345   0.58953   0.71360   0.00000  Uiso   1.00
Zn725  Zn    0.19338   0.47327   0.78734   0.00000  Uiso   1.00
Zn726  Zn    0.13379   0.45791   0.71875   0.00000  Uiso   1.00
Zn727  Zn    0.21056   0.53109   0.70657   0.00000  Uiso   1.00
Zn728  Zn    0.12893   0.53773   0.78733   0.00000  Uiso   1.00
C729   C     0.38604   0.49290   0.76002   0.00000  Uiso   1.00
C730   C     0.51706   0.50126   0.55621   0.00000  Uiso   1.00
C731   C     0.53021   0.43107   0.56270   0.00000  Uiso   1.00
C732   C     0.61407   0.50712   0.74005   0.00000  Uiso   1.00
C733   C     0.48043   0.53134   0.91902   0.00000  Uiso   1.00
C734   C     0.65991   0.50983   0.73608   0.00000  Uiso   1.00
C735   C     0.34077   0.49035   0.76386   0.00000  Uiso   1.00
C736   C     0.51367   0.65578   0.73661   0.00000  Uiso   1.00
C737   C     0.48504   0.34506   0.76384   0.00000  Uiso   1.00
C738   C     0.48937   0.38918   0.76022   0.00000  Uiso   1.00
C739   C     0.50987   0.61122   0.74022   0.00000  Uiso   1.00
C740   C     0.49298   0.58901   0.97324   0.00000  Uiso   1.00
C741   C     0.51854   0.48113   0.62939   0.00000  Uiso   1.00
C742   C     0.48209   0.51838   0.87108   0.00000  Uiso   1.00
C743   C     0.52473   0.41903   0.51995   0.00000  Uiso   1.00
C744   C     0.52500   0.47186   0.58133   0.00000  Uiso   1.00
C745   C     0.47822   0.57389   0.93541   0.00000  Uiso   1.00
C746   C     0.46321   0.60453   0.91308   0.00000  Uiso   1.00
C747   C     0.50717   0.56277   0.99695   0.00000  Uiso   1.00
C748   C     0.50318   0.51902   0.98585   0.00000  Uiso   1.00
C749   C     0.49017   0.50344   0.94595   0.00000  Uiso   1.00
C750   C     0.51262   0.49021   0.51221   0.00000  Uiso   1.00
C751   C     0.51397   0.44765   0.99554   0.00000  Uiso   1.00
C752   C     0.50142   0.43321   0.95637   0.00000  Uiso   1.00
C753   C     0.48748   0.46015   0.93341   0.00000  Uiso   1.00
F754   F     0.53749   0.40217   0.58720   0.00000  Uiso   1.00
F755   F     0.52715   0.58152   0.52866   0.00000  Uiso   1.00
H756   H     0.65249   0.47238   0.78983   0.00000  Uiso   1.00
H757   H     0.47449   0.66140   0.88936   0.00000  Uiso   1.00
H758   H     0.54005   0.33699   0.71157   0.00000  Uiso   1.00
H759   H     0.45831   0.66466   0.78903   0.00000  Uiso   1.00
H760   H     0.50020   0.40039   0.94466   0.00000  Uiso   1.00
H761   H     0.52651   0.38673   0.50694   0.00000  Uiso   1.00
H762   H     0.50951   0.53085   0.57375   0.00000  Uiso   1.00
H763   H     0.49460   0.62204   0.98402   0.00000  Uiso   1.00
H764   H     0.47427   0.44637   0.90573   0.00000  Uiso   1.00
H765   H     0.34889   0.52774   0.71043   0.00000  Uiso   1.00
O766   O     0.50000   0.50000   0.75000   0.00000  Uiso   1.00
O767   O     0.48784   0.45970   0.65458   0.00000  Uiso   1.00
O768   O     0.46274   0.53724   0.84968   0.00000  Uiso   1.00
O769   O     0.54157   0.51092   0.64606   0.00000  Uiso   1.00
O770   O     0.50785   0.49213   0.84968   0.00000  Uiso   1.00
O771   O     0.42801   0.59729   0.90466   0.00000  Uiso   1.00
O772   O     0.48838   0.64279   0.90400   0.00000  Uiso   1.00
O773   O     0.51264   0.41352   0.78213   0.00000  Uiso   1.00
O774   O     0.47965   0.59418   0.77013   0.00000  Uiso   1.00
O775   O     0.40745   0.46625   0.73413   0.00000  Uiso   1.00
O776   O     0.60026   0.52605   0.71360   0.00000  Uiso   1.00
O777   O     0.40405   0.52211   0.78213   0.00000  Uiso   1.00
O778   O     0.58824   0.48559   0.77013   0.00000  Uiso   1.00
O779   O     0.47093   0.40277   0.73413   0.00000  Uiso   1.00
O780   O     0.53678   0.58953   0.71360   0.00000  Uiso   1.00
Zn781  Zn    0.52672   0.47327   0.78734   0.00000  Uiso   1.00
Zn782  Zn    0.46713   0.45791   0.71875   0.00000  Uiso   1.00
Zn783  Zn    0.54389   0.53109   0.70657   0.00000  Uiso   1.00
Zn784  Zn    0.46226   0.53773   0.78733   0.00000  Uiso   1.00
C785   C     0.71937   0.49290   0.76002   0.00000  Uiso   1.00
C786   C     0.85039   0.50126   0.55621   0.00000  Uiso   1.00
C787   C     0.86354   0.43107   0.56270   0.00000  Uiso   1.00
C788   C     0.94741   0.50712   0.74005   0.00000  Uiso   1.00
C789   C     0.81376   0.53134   0.91902   0.00000  Uiso   1.00
C790   C     0.99324   0.50983   0.73608   0.00000  Uiso   1.00
C791   C     0.67411   0.49035   0.76386   0.00000  Uiso   1.00
C792   C     0.84700   0.65578   0.73661   0.00000  Uiso   1.00
C793   C     0.81837   0.34506   0.76384   0.00000  Uiso   1.00
C794   C     0.82270   0.38918   0.76022   0.00000  Uiso   1.00
C795   C     0.84320   0.61122   0.74022   0.00000  Uiso   1.00
C796   C     0.82631   0.58901   0.97324   0.00000  Uiso   1.00
C797   C     0.85187   0.48113   0.62939   0.00000  Uiso   1.00
C798   C     0.81542   0.51838   0.87108   0.00000  Uiso   1.00
C799   C     0.85806   0.41903   0.51995   0.00000  Uiso   1.00
C800   C     0.85833   0.47186   0.58133   0.00000  Uiso   1.00
C801   C     0.81155   0.57389   0.93541   0.00000  Uiso   1.00
C802   C     0.79655   0.60453   0.91308   0.00000  Uiso   1.00
C803   C     0.84050   0.56277   0.99695   0.00000  Uiso   1.00
C804   C     0.83652   0.51902   0.98585   0.00000  Uiso   1.00
C805   C     0.82351   0.50344   0.94595   0.00000  Uiso   1.00
C806   C     0.84595   0.49021   0.51221   0.00000  Uiso   1.00
C807   C     0.84730   0.44765   0.99554   0.00000  Uiso   1.00
C808   C     0.83475   0.43321   0.95637   0.00000  Uiso   1.00
C809   C     0.82081   0.46015   0.93341   0.00000  Uiso   1.00
F810   F     0.87082   0.40217   0.58720   0.00000  Uiso   1.00
F811   F     0.86049   0.58152   0.52866   0.00000  Uiso   1.00
H812   H     0.98582   0.47238   0.78983   0.00000  Uiso   1.00
H813   H     0.80783   0.66140   0.88936   0.00000  Uiso   1.00
H814   H     0.87338   0.33699   0.71157   0.00000  Uiso   1.00
H815   H     0.79164   0.66466   0.78903   0.00000  Uiso   1.00
H816   H     0.83353   0.40039   0.94466   0.00000  Uiso   1.00
H817   H     0.85985   0.38673   0.50694   0.00000  Uiso   1.00
H818   H     0.84285   0.53085   0.57375   0.00000  Uiso   1.00
H819   H     0.82793   0.62204   0.98402   0.00000  Uiso   1.00
H820   H     0.80760   0.44637   0.90573   0.00000  Uiso   1.00
H821   H     0.68223   0.52774   0.71043   0.00000  Uiso   1.00
O822   O     0.83333   0.50000   0.75000   0.00000  Uiso   1.00
O823   O     0.82118   0.45970   0.65458   0.00000  Uiso   1.00
O824   O     0.79607   0.53724   0.84968   0.00000  Uiso   1.00
O825   O     0.87491   0.51092   0.64606   0.00000  Uiso   1.00
O826   O     0.84118   0.49213   0.84968   0.00000  Uiso   1.00
O827   O     0.76134   0.59729   0.90466   0.00000  Uiso   1.00
O828   O     0.82171   0.64279   0.90400   0.00000  Uiso   1.00
O829   O     0.84597   0.41352   0.78213   0.00000  Uiso   1.00
O830   O     0.81298   0.59418   0.77013   0.00000  Uiso   1.00
O831   O     0.74078   0.46625   0.73413   0.00000  Uiso   1.00
O832   O     0.93360   0.52605   0.71360   0.00000  Uiso   1.00
O833   O     0.73738   0.52211   0.78213   0.00000  Uiso   1.00
O834   O     0.92158   0.48559   0.77013   0.00000  Uiso   1.00
O835   O     0.80426   0.40277   0.73413   0.00000  Uiso   1.00
O836   O     0.87012   0.58953   0.71360   0.00000  Uiso   1.00
Zn837  Zn    0.86005   0.47327   0.78734   0.00000  Uiso   1.00
Zn838  Zn    0.80046   0.45791   0.71875   0.00000  Uiso   1.00
Zn839  Zn    0.87723   0.53109   0.70657   0.00000  Uiso   1.00
Zn840  Zn    0.79560   0.53773   0.78733   0.00000  Uiso   1.00
C841   C     0.05270   0.82624   0.76002   0.00000  Uiso   1.00
C842   C     0.18373   0.83460   0.55621   0.00000  Uiso   1.00
C843   C     0.19688   0.76440   0.56270   0.00000  Uiso   1.00
C844   C     0.28074   0.84045   0.74005   0.00000  Uiso   1.00
C845   C     0.14709   0.86468   0.91902   0.00000  Uiso   1.00
C846   C     0.32658   0.84316   0.73608   0.00000  Uiso   1.00
C847   C     0.00744   0.82369   0.76386   0.00000  Uiso   1.00
C848   C     0.18034   0.98911   0.73661   0.00000  Uiso   1.00
C849   C     0.15171   0.67839   0.76384   0.00000  Uiso   1.00
C850   C     0.15604   0.72251   0.76022   0.00000  Uiso   1.00
C851   C     0.17654   0.94455   0.74022   0.00000  Uiso   1.00
C852   C     0.15965   0.92234   0.97324   0.00000  Uiso   1.00
C853   C     0.18520   0.81447   0.62939   0.00000  Uiso   1.00
C854   C     0.14876   0.85172   0.87108   0.00000  Uiso   1.00
C855   C     0.19140   0.75237   0.51995   0.00000  Uiso   1.00
C856   C     0.19166   0.80519   0.58133   0.00000  Uiso   1.00
C857   C     0.14489   0.90722   0.93541   0.00000  Uiso   1.00
C858   C     0.12988   0.93787   0.91308   0.00000  Uiso   1.00
C859   C     0.17383   0.89610   0.99695   0.00000  Uiso   1.00
C860   C     0.16985   0.85236   0.98585   0.00000  Uiso   1.00
C861   C     0.15684   0.83677   0.94595   0.00000  Uiso   1.00
C862   C     0.17929   0.82354   0.51221   0.00000  Uiso   1.00
C863   C     0.18063   0.78098   0.99554   0.00000  Uiso   1.00
C864   C     0.16808   0.76655   0.95637   0.00000  Uiso   1.00
C865   C     0.15414   0.79349   0.93341   0.00000  Uiso   1.00
F866   F     0.20415   0.73550   0.58720   0.00000  Uiso   1.00
F867   F     0.19382   0.91486   0.52866   0.00000  Uiso   1.00
H868   H     0.31916   0.80571   0.78983   0.00000  Uiso   1.00
H869   H     0.14116   0.99473   0.88936   0.00000  Uiso   1.00
H870   H     0.20672   0.67032   0.71157   0.00000  Uiso   1.00
H871   H     0.12497   0.99799   0.78903   0.00000  Uiso   1.00
H872   H     0.16687   0.73373   0.94466   0.00000  Uiso   1.00
H873   H     0.19318   0.72006   0.50694   0.00000  Uiso   1.00
H874   H     0.17618   0.86419   0.57375   0.00000  Uiso   1.00
H875   H     0.16127   0.95538   0.98402   0.00000  Uiso   1.00
H876   H     0.14093   0.77971   0.90573   0.00000  Uiso   1.00
H877   H     0.01556   0.86107   0.71043   0.00000  Uiso   1.00
O878   O     0.16667   0.83333   0.75000   0.00000  Uiso   1.00
O879   O     0.15451   0.79304   0.65458   0.00000  Uiso   1.00
O880   O     0.12940   0.87058   0.84968   0.00000  Uiso   1.00
O881   O     0.20824   0.84425   0.64606   0.00000  Uiso   1.00
O882   O     0.17451   0.82546   0.84968   0.00000  Uiso   1.00
O883   O     0.09468   0.93062   0.90466   0.00000  Uiso   1.00
O884   O     0.15504   0.97612   0.90400   0.00000  Uiso   1.00
O885   O     0.17930   0.74686   0.78213   0.00000  Uiso   1.00
O886   O     0.14632   0.92751   0.77013   0.00000  Uiso   1.00
O887   O     0.07412   0.79958   0.73413   0.00000  Uiso   1.00
O888   O     0.26693   0.85939   0.71360   0.00000  Uiso   1.00
O889   O     0.07071   0.85544   0.78213   0.00000  Uiso   1.00
O890   O     0.25491   0.81892   0.77013   0.00000  Uiso   1.00
O891   O     0.13760   0.73610   0.73413   0.00000  Uiso   1.00
O892   O     0.20345   0.92286   0.71360   0.00000  Uiso   1.00
Zn893  Zn    0.19338   0.80661   0.78734   0.00000  Uiso   1.00
Zn894  Zn    0.13379   0.79124   0.71875   0.00000  Uiso   1.00
Zn895  Zn    0.21056   0.86442   0.70657   0.00000  Uiso   1.00
Zn896  Zn    0.12893   0.87106   0.78733   0.00000  Uiso   1.00
C897   C     0.38604   0.82624   0.76002   0.00000  Uiso   1.00
C898   C     0.51706   0.83460   0.55621   0.00000  Uiso   1.00
C899   C     0.53021   0.76440   0.56270   0.00000  Uiso   1.00
C900   C     0.61407   0.84045   0.74005   0.00000  Uiso   1.00
C901   C     0.48043   0.86468   0.91902   0.00000  Uiso   1.00
C902   C     0.65991   0.84316   0.73608   0.00000  Uiso   1.00
C903   C     0.34077   0.82369   0.76386   0.00000  Uiso   1.00
C904   C     0.51367   0.98911   0.73661   0.00000  Uiso   1.00
C905   C     0.48504   0.67839   0.76384   0.00000  Uiso   1.00
C906   C     0.48937   0.72251   0.76022   0.00000  Uiso   1.00
C907   C     0.50987   0.94455   0.74022   0.00000  Uiso   1.00
C908   C     0.49298   0.92234   0.97324   0.00000  Uiso   1.00
C909   C     0.51854   0.81447   0.62939   0.00000  Uiso   1.00
C910   C     0.48209   0.85172   0.87108   0.00000  Uiso   1.00
C911   C     0.52473   0.75237   0.51995   0.00000  Uiso   1.00
C912   C     0.52500   0.80519   0.58133   0.00000  Uiso   1.00
C913   C     0.47822   0.90722   0.93541   0.00000  Uiso   1.00
C914   C     0.46321   0.93787   0.91308   0.00000  Uiso   1.00
C915   C     0.50717   0.89610   0.99695   0.00000  Uiso   1.00
C916   C     0.50318   0.85236   0.98585   0.00000  Uiso   1.00
C917   C     0.49017   0.83677   0.94595   0.00000  Uiso   1.00
C918   C     0.51262   0.82354   0.51221   0.00000  Uiso   1.00
C919   C     0.51397   0.78098   0.99554   0.00000  Uiso   1.00
C920   C     0.50142   0.76655   0.95637   0.00000  Uiso   1.00
C921   C     0.48748   0.79349   0.93341   0.00000  Uiso   1.00
F922   F     0.53749   0.73550   0.58720   0.00000  Uiso   1.00
F923   F     0.52715   0.91486   0.52866   0.00000  Uiso   1.00
H924   H     0.65249   0.80571   0.78983   0.00000  Uiso   1.00
H925   H     0.47449   0.99473   0.88936   0.00000  Uiso   1.00
H926   H     0.54005   0.67032   0.71157   0.00000  Uiso   1.00
H927   H     0.45831   0.99799   0.78903   0.00000  Uiso   1.00
H928   H     0.50020   0.73373   0.94466   0.00000  Uiso   1.00
H929   H     0.52651   0.72006   0.50694   0.00000  Uiso   1.00
H930   H     0.50951   0.86419   0.57375   0.00000  Uiso   1.00
H931   H     0.49460   0.95538   0.98402   0.00000  Uiso   1.00
H932   H     0.47427   0.77971   0.90573   0.00000  Uiso   1.00
H933   H     0.34889   0.86107   0.71043   0.00000  Uiso   1.00
O934   O     0.50000   0.83333   0.75000   0.00000  Uiso   1.00
O935   O     0.48784   0.79304   0.65458   0.00000  Uiso   1.00
O936   O     0.46274   0.87058   0.84968   0.00000  Uiso   1.00
O937   O     0.54157   0.84425   0.64606   0.00000  Uiso   1.00
O938   O     0.50785   0.82546   0.84968   0.00000  Uiso   1.00
O939   O     0.42801   0.93062   0.90466   0.00000  Uiso   1.00
O940   O     0.48838   0.97612   0.90400   0.00000  Uiso   1.00
O941   O     0.51264   0.74686   0.78213   0.00000  Uiso   1.00
O942   O     0.47965   0.92751   0.77013   0.00000  Uiso   1.00
O943   O     0.40745   0.79958   0.73413   0.00000  Uiso   1.00
O944   O     0.60026   0.85939   0.71360   0.00000  Uiso   1.00
O945   O     0.40405   0.85544   0.78213   0.00000  Uiso   1.00
O946   O     0.58824   0.81892   0.77013   0.00000  Uiso   1.00
O947   O     0.47093   0.73610   0.73413   0.00000  Uiso   1.00
O948   O     0.53678   0.92286   0.71360   0.00000  Uiso   1.00
Zn949  Zn    0.52672   0.80661   0.78734   0.00000  Uiso   1.00
Zn950  Zn    0.46713   0.79124   0.71875   0.00000  Uiso   1.00
Zn951  Zn    0.54389   0.86442   0.70657   0.00000  Uiso   1.00
Zn952  Zn    0.46226   0.87106   0.78733   0.00000  Uiso   1.00
C953   C     0.71937   0.82624   0.76002   0.00000  Uiso   1.00
C954   C     0.85039   0.83460   0.55621   0.00000  Uiso   1.00
C955   C     0.86354   0.76440   0.56270   0.00000  Uiso   1.00
C956   C     0.94741   0.84045   0.74005   0.00000  Uiso   1.00
C957   C     0.81376   0.86468   0.91902   0.00000  Uiso   1.00
C958   C     0.99324   0.84316   0.73608   0.00000  Uiso   1.00
C959   C     0.67411   0.82369   0.76386   0.00000  Uiso   1.00
C960   C     0.84700   0.98911   0.73661   0.00000  Uiso   1.00
C961   C     0.81837   0.67839   0.76384   0.00000  Uiso   1.00
C962   C     0.82270   0.72251   0.76022   0.00000  Uiso   1.00
C963   C     0.84320   0.94455   0.74022   0.00000  Uiso   1.00
C964   C     0.82631   0.92234   0.97324   0.00000  Uiso   1.00
C965   C     0.85187   0.81447   0.62939   0.00000  Uiso   1.00
C966   C     0.81542   0.85172   0.87108   0.00000  Uiso   1.00
C967   C     0.85806   0.75237   0.51995   0.00000  Uiso   1.00
C968   C     0.85833   0.80519   0.58133   0.00000  Uiso   1.00
C969   C     0.81155   0.90722   0.93541   0.00000  Uiso   1.00
C970   C     0.79655   0.93787   0.91308   0.00000  Uiso   1.00
C971   C     0.84050   0.89610   0.99695   0.00000  Uiso   1.00
C972   C     0.83652   0.85236   0.98585   0.00000  Uiso   1.00
C973   C     0.82351   0.83677   0.94595   0.00000  Uiso   1.00
C974   C     0.84595   0.82354   0.51221   0.00000  Uiso   1.00
C975   C     0.84730   0.78098   0.99554   0.00000  Uiso   1.00
C976   C     0.83475   0.76655   0.95637   0.00000  Uiso   1.00
C977   C     0.82081   0.79349   0.93341   0.00000  Uiso   1.00
F978   F     0.87082   0.73550   0.58720   0.00000  Uiso   1.00
F979   F     0.86049   0.91486   0.52866   0.00000  Uiso   1.00
H980   H     0.98582   0.80571   0.78983   0.00000  Uiso   1.00
H981   H     0.80783   0.99473   0.88936   0.00000  Uiso   1.00
H982   H     0.87338   0.67032   0.71157   0.00000  Uiso   1.00
H983   H     0.79164   0.99799   0.78903   0.00000  Uiso   1.00
H984   H     0.83353   0.73373   0.94466   0.00000  Uiso   1.00
H985   H     0.85985   0.72006   0.50694   0.00000  Uiso   1.00
H986   H     0.84285   0.86419   0.57375   0.00000  Uiso   1.00
H987   H     0.82793   0.95538   0.98402   0.00000  Uiso   1.00
H988   H     0.80760   0.77971   0.90573   0.00000  Uiso   1.00
H989   H     0.68223   0.86107   0.71043   0.00000  Uiso   1.00
O990   O     0.83333   0.83333   0.75000   0.00000  Uiso   1.00
O991   O     0.82118   0.79304   0.65458   0.00000  Uiso   1.00
O992   O     0.79607   0.87058   0.84968   0.00000  Uiso   1.00
O993   O     0.87491   0.84425   0.64606   0.00000  Uiso   1.00
O994   O     0.84118   0.82546   0.84968   0.00000  Uiso   1.00
O995   O     0.76134   0.93062   0.90466   0.00000  Uiso   1.00
O996   O     0.82171   0.97612   0.90400   0.00000  Uiso   1.00
O997   O     0.84597   0.74686   0.78213   0.00000  Uiso   1.00
O998   O     0.81298   0.92751   0.77013   0.00000  Uiso   1.00
O999   O     0.74078   0.79958   0.73413   0.00000  Uiso   1.00
O1000  O     0.93360   0.85939   0.71360   0.00000  Uiso   1.00
O1001  O     0.73738   0.85544   0.78213   0.00000  Uiso   1.00
O1002  O     0.92158   0.81892   0.77013   0.00000  Uiso   1.00
O1003  O     0.80426   0.73610   0.73413   0.00000  Uiso   1.00
O1004  O     0.87012   0.92286   0.71360   0.00000  Uiso   1.00
Zn1005 Zn    0.86005   0.80661   0.78734   0.00000  Uiso   1.00
Zn1006 Zn    0.80046   0.79124   0.71875   0.00000  Uiso   1.00
Zn1007 Zn    0.87723   0.86442   0.70657   0.00000  Uiso   1.00
Zn1008 Zn    0.79560   0.87106   0.78733   0.00000  Uiso   1.00
loop_
_geom_bond_atom_site_label_1
_geom_bond_atom_site_label_2
_geom_bond_distance
_geom_bond_site_symmetry_2
_ccdc_geom_bond_type
C1     O49     1.268   .     A
C1     O47     1.268   .     A
C1     C7      1.436   .     S
C2     C22     1.410   .     A
C2     C16     1.393   .     A
C2     H34     1.077   .     S
C3     C16     1.399   .     A
C3     C15     1.388   .     A
C3     F26     1.358   .     S
C4     C6      1.454   .     S
C4     O48     1.283   .     A
C4     O50     1.280   .     A
C5     C14     1.488   .     S
C5     C17     1.422   .     A
C5     C21     1.422   .     A
C6     C63     1.334   .     S
C6     H93     1.088   .     S
C7     C118    1.334   1_455 S
C7     H140    1.086   1_455 S
C8     C11     1.450   .     S
C8     C177    1.331   .     S
C8     H198    1.088   .     S
C9     C10     1.435   .     S
C9     C344    1.331   1_545 S
C9     H367    1.086   1_545 S
C10    O45     1.275   .     A
C10    O51     1.275   .     A
C11    O52     1.272   .     A
C11    O46     1.273   .     A
C12    C17     1.392   .     A
C12    H35     1.084   .     S
C12    C19     1.387   .     A
C13    O41     1.279   .     A
C13    O39     1.269   .     A
C13    C16     1.453   .     S
C14    O42     1.289   .     A
C14    O40     1.281   .     A
C15    H33     1.084   .     S
C15    C527    1.400   1_554 S
C17    C18     1.481   .     S
C18    O44     1.398   .     S
C18    O43     1.223   .     D
C19    C20     1.418   .     A
C19    F531    1.355   .     S
C20    C21     1.426   .     A
C20    C526    1.427   .     S
C21    C25     1.411   .     A
C22    C524    1.427   1_554 S
C22    C527    1.422   1_554 S
C23    C24     1.390   .     A
C23    C526    1.422   .     S
C23    C519    1.400   .     S
C24    H32     1.084   .     S
C24    C25     1.383   .     A
C25    H36     1.081   .     S
F27    C523    1.355   1_554 S
H28    C63     1.086   .     S
H29    O44     1.014   .     S
H30    C344    1.088   1_545 S
H31    C177    1.086   .     S
H37    C118    1.088   1_455 S
O38    Zn54    1.936   .     S
O38    Zn56    1.931   .     S
O38    Zn53    1.959   .     S
O38    Zn55    1.941   .     S
O39    Zn54    1.935   .     S
O40    Zn56    1.942   .     S
O41    Zn55    1.933   .     S
O42    Zn53    1.928   .     S
O45    Zn53    1.926   .     S
O46    Zn56    1.933   .     S
O47    Zn54    1.927   .     S
O48    Zn55    1.934   .     S
O49    Zn56    1.930   .     S
O50    Zn53    1.925   .     S
O51    Zn54    1.937   .     S
O52    Zn55    1.928   .     S
C57    O105    1.268   .     A
C57    O103    1.268   .     A
C57    C63     1.436   .     S
C58    C78     1.410   .     A
C58    C72     1.393   .     A
C58    H90     1.077   .     S
C59    C72     1.399   .     A
C59    C71     1.388   .     A
C59    F82     1.358   .     S
C60    C62     1.454   .     S
C60    O104    1.283   .     A
C60    O106    1.280   .     A
C61    C70     1.488   .     S
C61    C73     1.422   .     A
C61    C77     1.422   .     A
C62    C119    1.334   .     S
C62    H149    1.088   .     S
C64    C67     1.450   .     S
C64    C233    1.331   .     S
C64    H254    1.088   .     S
C65    C66     1.435   .     S
C65    C400    1.331   1_545 S
C65    H423    1.086   1_545 S
C66    O101    1.275   .     A
C66    O107    1.275   .     A
C67    O108    1.272   .     A
C67    O102    1.273   .     A
C68    C73     1.392   .     A
C68    H91     1.084   .     S
C68    C75     1.387   .     A
C69    O97     1.279   .     A
C69    O95     1.269   .     A
C69    C72     1.453   .     S
C70    O98     1.289   .     A
C70    O96     1.281   .     A
C71    H89     1.084   .     S
C71    C583    1.400   1_554 S
C73    C74     1.481   .     S
C74    O100    1.398   .     S
C74    O99     1.223   .     D
C75    C76     1.418   .     A
C75    F587    1.355   .     S
C76    C77     1.426   .     A
C76    C582    1.427   .     S
C77    C81     1.411   .     A
C78    C580    1.427   1_554 S
C78    C583    1.422   1_554 S
C79    C80     1.390   .     A
C79    C582    1.422   .     S
C79    C575    1.400   .     S
C80    H88     1.084   .     S
C80    C81     1.383   .     A
C81    H92     1.081   .     S
F83    C579    1.355   1_554 S
H84    C119    1.086   .     S
H85    O100    1.014   .     S
H86    C400    1.088   1_545 S
H87    C233    1.086   .     S
O94    Zn110   1.936   .     S
O94    Zn112   1.931   .     S
O94    Zn109   1.959   .     S
O94    Zn111   1.941   .     S
O95    Zn110   1.935   .     S
O96    Zn112   1.942   .     S
O97    Zn111   1.933   .     S
O98    Zn109   1.928   .     S
O101   Zn109   1.926   .     S
O102   Zn112   1.933   .     S
O103   Zn110   1.927   .     S
O104   Zn111   1.934   .     S
O105   Zn112   1.930   .     S
O106   Zn109   1.925   .     S
O107   Zn110   1.937   .     S
O108   Zn111   1.928   .     S
C113   O161    1.268   .     A
C113   O159    1.268   .     A
C113   C119    1.436   .     S
C114   C134    1.410   .     A
C114   C128    1.393   .     A
C114   H146    1.077   .     S
C115   C128    1.399   .     A
C115   C127    1.388   .     A
C115   F138    1.358   .     S
C116   C118    1.454   .     S
C116   O160    1.283   .     A
C116   O162    1.280   .     A
C117   C126    1.488   .     S
C117   C129    1.422   .     A
C117   C133    1.422   .     A
C118   C7      1.334   1_655 S
C118   H37     1.088   1_655 S
C120   C123    1.450   .     S
C120   C289    1.331   .     S
C120   H310    1.088   .     S
C121   C122    1.435   .     S
C121   C456    1.331   1_545 S
C121   H479    1.086   1_545 S
C122   O157    1.275   .     A
C122   O163    1.275   .     A
C123   O164    1.272   .     A
C123   O158    1.273   .     A
C124   C129    1.392   .     A
C124   H147    1.084   .     S
C124   C131    1.387   .     A
C125   O153    1.279   .     A
C125   O151    1.269   .     A
C125   C128    1.453   .     S
C126   O154    1.289   .     A
C126   O152    1.281   .     A
C127   H145    1.084   .     S
C127   C639    1.400   1_554 S
C129   C130    1.481   .     S
C130   O156    1.398   .     S
C130   O155    1.223   .     D
C131   C132    1.418   .     A
C131   F643    1.355   .     S
C132   C133    1.426   .     A
C132   C638    1.427   .     S
C133   C137    1.411   .     A
C134   C636    1.427   1_554 S
C134   C639    1.422   1_554 S
C135   C136    1.390   .     A
C135   C638    1.422   .     S
C135   C631    1.400   .     S
C136   H144    1.084   .     S
C136   C137    1.383   .     A
C137   H148    1.081   .     S
F139   C635    1.355   1_554 S
H140   C7      1.086   1_655 S
H141   O156    1.014   .     S
H142   C456    1.088   1_545 S
H143   C289    1.086   .     S
O150   Zn166   1.936   .     S
O150   Zn168   1.931   .     S
O150   Zn165   1.959   .     S
O150   Zn167   1.941   .     S
O151   Zn166   1.935   .     S
O152   Zn168   1.942   .     S
O153   Zn167   1.933   .     S
O154   Zn165   1.928   .     S
O157   Zn165   1.926   .     S
O158   Zn168   1.933   .     S
O159   Zn166   1.927   .     S
O160   Zn167   1.934   .     S
O161   Zn168   1.930   .     S
O162   Zn165   1.925   .     S
O163   Zn166   1.937   .     S
O164   Zn167   1.928   .     S
C169   O217    1.268   .     A
C169   O215    1.268   .     A
C169   C175    1.436   .     S
C170   C190    1.410   .     A
C170   C184    1.393   .     A
C170   H202    1.077   .     S
C171   C184    1.399   .     A
C171   C183    1.388   .     A
C171   F194    1.358   .     S
C172   C174    1.454   .     S
C172   O216    1.283   .     A
C172   O218    1.280   .     A
C173   C182    1.488   .     S
C173   C185    1.422   .     A
C173   C189    1.422   .     A
C174   C231    1.334   .     S
C174   H261    1.088   .     S
C175   C286    1.334   1_455 S
C175   H308    1.086   1_455 S
C176   C179    1.450   .     S
C176   C345    1.331   .     S
C176   H366    1.088   .     S
C177   C178    1.435   .     S
C178   O213    1.275   .     A
C178   O219    1.275   .     A
C179   O220    1.272   .     A
C179   O214    1.273   .     A
C180   C185    1.392   .     A
C180   H203    1.084   .     S
C180   C187    1.387   .     A
C181   O209    1.279   .     A
C181   O207    1.269   .     A
C181   C184    1.453   .     S
C182   O210    1.289   .     A
C182   O208    1.281   .     A
C183   H201    1.084   .     S
C183   C695    1.400   1_554 S
C185   C186    1.481   .     S
C186   O212    1.398   .     S
C186   O211    1.223   .     D
C187   C188    1.418   .     A
C187   F699    1.355   .     S
C188   C189    1.426   .     A
C188   C694    1.427   .     S
C189   C193    1.411   .     A
C190   C692    1.427   1_554 S
C190   C695    1.422   1_554 S
C191   C192    1.390   .     A
C191   C694    1.422   .     S
C191   C687    1.400   .     S
C192   H200    1.084   .     S
C192   C193    1.383   .     A
C193   H204    1.081   .     S
F195   C691    1.355   1_554 S
H196   C231    1.086   .     S
H197   O212    1.014   .     S
H199   C345    1.086   .     S
H205   C286    1.088   1_455 S
O206   Zn222   1.936   .     S
O206   Zn224   1.931   .     S
O206   Zn221   1.959   .     S
O206   Zn223   1.941   .     S
O207   Zn222   1.935   .     S
O208   Zn224   1.942   .     S
O209   Zn223   1.933   .     S
O210   Zn221   1.928   .     S
O213   Zn221   1.926   .     S
O214   Zn224   1.933   .     S
O215   Zn222   1.927   .     S
O216   Zn223   1.934   .     S
O217   Zn224   1.930   .     S
O218   Zn221   1.925   .     S
O219   Zn222   1.937   .     S
O220   Zn223   1.928   .     S
C225   O273    1.268   .     A
C225   O271    1.268   .     A
C225   C231    1.436   .     S
C226   C246    1.410   .     A
C226   C240    1.393   .     A
C226   H258    1.077   .     S
C227   C240    1.399   .     A
C227   C239    1.388   .     A
C227   F250    1.358   .     S
C228   C230    1.454   .     S
C228   O272    1.283   .     A
C228   O274    1.280   .     A
C229   C238    1.488   .     S
C229   C241    1.422   .     A
C229   C245    1.422   .     A
C230   C287    1.334   .     S
C230   H317    1.088   .     S
C232   C235    1.450   .     S
C232   C401    1.331   .     S
C232   H422    1.088   .     S
C233   C234    1.435   .     S
C234   O269    1.275   .     A
C234   O275    1.275   .     A
C235   O276    1.272   .     A
C235   O270    1.273   .     A
C236   C241    1.392   .     A
C236   H259    1.084   .     S
C236   C243    1.387   .     A
C237   O265    1.279   .     A
C237   O263    1.269   .     A
C237   C240    1.453   .     S
C238   O266    1.289   .     A
C238   O264    1.281   .     A
C239   H257    1.084   .     S
C239   C751    1.400   1_554 S
C241   C242    1.481   .     S
C242   O268    1.398   .     S
C242   O267    1.223   .     D
C243   C244    1.418   .     A
C243   F755    1.355   .     S
C244   C245    1.426   .     A
C244   C750    1.427   .     S
C245   C249    1.411   .     A
C246   C748    1.427   1_554 S
C246   C751    1.422   1_554 S
C247   C248    1.390   .     A
C247   C750    1.422   .     S
C247   C743    1.400   .     S
C248   H256    1.084   .     S
C248   C249    1.383   .     A
C249   H260    1.081   .     S
F251   C747    1.355   1_554 S
H252   C287    1.086   .     S
H253   O268    1.014   .     S
H255   C401    1.086   .     S
O262   Zn278   1.936   .     S
O262   Zn280   1.931   .     S
O262   Zn277   1.959   .     S
O262   Zn279   1.941   .     S
O263   Zn278   1.935   .     S
O264   Zn280   1.942   .     S
O265   Zn279   1.933   .     S
O266   Zn277   1.928   .     S
O269   Zn277   1.926   .     S
O270   Zn280   1.933   .     S
O271   Zn278   1.927   .     S
O272   Zn279   1.934   .     S
O273   Zn280   1.930   .     S
O274   Zn277   1.925   .     S
O275   Zn278   1.937   .     S
O276   Zn279   1.928   .     S
C281   O329    1.268   .     A
C281   O327    1.268   .     A
C281   C287    1.436   .     S
C282   C302    1.410   .     A
C282   C296    1.393   .     A
C282   H314    1.077   .     S
C283   C296    1.399   .     A
C283   C295    1.388   .     A
C283   F306    1.358   .     S
C284   C286    1.454   .     S
C284   O328    1.283   .     A
C284   O330    1.280   .     A
C285   C294    1.488   .     S
C285   C297    1.422   .     A
C285   C301    1.422   .     A
C286   C175    1.334   1_655 S
C286   H205    1.088   1_655 S
C288   C291    1.450   .     S
C288   C457    1.331   .     S
C288   H478    1.088   .     S
C289   C290    1.435   .     S
C290   O325    1.275   .     A
C290   O331    1.275   .     A
C291   O332    1.272   .     A
C291   O326    1.273   .     A
C292   C297    1.392   .     A
C292   H315    1.084   .     S
C292   C299    1.387   .     A
C293   O321    1.279   .     A
C293   O319    1.269   .     A
C293   C296    1.453   .     S
C294   O322    1.289   .     A
C294   O320    1.281   .     A
C295   H313    1.084   .     S
C295   C807    1.400   1_554 S
C297   C298    1.481   .     S
C298   O324    1.398   .     S
C298   O323    1.223   .     D
C299   C300    1.418   .     A
C299   F811    1.355   .     S
C300   C301    1.426   .     A
C300   C806    1.427   .     S
C301   C305    1.411   .     A
C302   C804    1.427   1_554 S
C302   C807    1.422   1_554 S
C303   C304    1.390   .     A
C303   C806    1.422   .     S
C303   C799    1.400   .     S
C304   H312    1.084   .     S
C304   C305    1.383   .     A
C305   H316    1.081   .     S
F307   C803    1.355   1_554 S
H308   C175    1.086   1_655 S
H309   O324    1.014   .     S
H311   C457    1.086   .     S
O318   Zn334   1.936   .     S
O318   Zn336   1.931   .     S
O318   Zn333   1.959   .     S
O318   Zn335   1.941   .     S
O319   Zn334   1.935   .     S
O320   Zn336   1.942   .     S
O321   Zn335   1.933   .     S
O322   Zn333   1.928   .     S
O325   Zn333   1.926   .     S
O326   Zn336   1.933   .     S
O327   Zn334   1.927   .     S
O328   Zn335   1.934   .     S
O329   Zn336   1.930   .     S
O330   Zn333   1.925   .     S
O331   Zn334   1.937   .     S
O332   Zn335   1.928   .     S
C337   O385    1.268   .     A
C337   O383    1.268   .     A
C337   C343    1.436   .     S
C338   C358    1.410   .     A
C338   C352    1.393   .     A
C338   H370    1.077   .     S
C339   C352    1.399   .     A
C339   C351    1.388   .     A
C339   F362    1.358   .     S
C340   C342    1.454   .     S
C340   O384    1.283   .     A
C340   O386    1.280   .     A
C341   C350    1.488   .     S
C341   C353    1.422   .     A
C341   C357    1.422   .     A
C342   C399    1.334   .     S
C342   H429    1.088   .     S
C343   C454    1.334   1_455 S
C343   H476    1.086   1_455 S
C344   C347    1.450   .     S
C344   C9      1.331   1_565 S
C344   H30     1.088   1_565 S
C345   C346    1.435   .     S
C346   O381    1.275   .     A
C346   O387    1.275   .     A
C347   O388    1.272   .     A
C347   O382    1.273   .     A
C348   C353    1.392   .     A
C348   H371    1.084   .     S
C348   C355    1.387   .     A
C349   O377    1.279   .     A
C349   O375    1.269   .     A
C349   C352    1.453   .     S
C350   O378    1.289   .     A
C350   O376    1.281   .     A
C351   H369    1.084   .     S
C351   C863    1.400   1_554 S
C353   C354    1.481   .     S
C354   O380    1.398   .     S
C354   O379    1.223   .     D
C355   C356    1.418   .     A
C355   F867    1.355   .     S
C356   C357    1.426   .     A
C356   C862    1.427   .     S
C357   C361    1.411   .     A
C358   C860    1.427   1_554 S
C358   C863    1.422   1_554 S
C359   C360    1.390   .     A
C359   C862    1.422   .     S
C359   C855    1.400   .     S
C360   H368    1.084   .     S
C360   C361    1.383   .     A
C361   H372    1.081   .     S
F363   C859    1.355   1_554 S
H364   C399    1.086   .     S
H365   O380    1.014   .     S
H367   C9      1.086   1_565 S
H373   C454    1.088   1_455 S
O374   Zn390   1.936   .     S
O374   Zn392   1.931   .     S
O374   Zn389   1.959   .     S
O374   Zn391   1.941   .     S
O375   Zn390   1.935   .     S
O376   Zn392   1.942   .     S
O377   Zn391   1.933   .     S
O378   Zn389   1.928   .     S
O381   Zn389   1.926   .     S
O382   Zn392   1.933   .     S
O383   Zn390   1.927   .     S
O384   Zn391   1.934   .     S
O385   Zn392   1.930   .     S
O386   Zn389   1.925   .     S
O387   Zn390   1.937   .     S
O388   Zn391   1.928   .     S
C393   O441    1.268   .     A
C393   O439    1.268   .     A
C393   C399    1.436   .     S
C394   C414    1.410   .     A
C394   C408    1.393   .     A
C394   H426    1.077   .     S
C395   C408    1.399   .     A
C395   C407    1.388   .     A
C395   F418    1.358   .     S
C396   C398    1.454   .     S
C396   O440    1.283   .     A
C396   O442    1.280   .     A
C397   C406    1.488   .     S
C397   C409    1.422   .     A
C397   C413    1.422   .     A
C398   C455    1.334   .     S
C398   H485    1.088   .     S
C400   C403    1.450   .     S
C400   C65     1.331   1_565 S
C400   H86     1.088   1_565 S
C401   C402    1.435   .     S
C402   O437    1.275   .     A
C402   O443    1.275   .     A
C403   O444    1.272   .     A
C403   O438    1.273   .     A
C404   C409    1.392   .     A
C404   H427    1.084   .     S
C404   C411    1.387   .     A
C405   O433    1.279   .     A
C405   O431    1.269   .     A
C405   C408    1.453   .     S
C406   O434    1.289   .     A
C406   O432    1.281   .     A
C407   H425    1.084   .     S
C407   C919    1.400   1_554 S
C409   C410    1.481   .     S
C410   O436    1.398   .     S
C410   O435    1.223   .     D
C411   C412    1.418   .     A
C411   F923    1.355   .     S
C412   C413    1.426   .     A
C412   C918    1.427   .     S
C413   C417    1.411   .     A
C414   C916    1.427   1_554 S
C414   C919    1.422   1_554 S
C415   C416    1.390   .     A
C415   C918    1.422   .     S
C415   C911    1.400   .     S
C416   H424    1.084   .     S
C416   C417    1.383   .     A
C417   H428    1.081   .     S
F419   C915    1.355   1_554 S
H420   C455    1.086   .     S
H421   O436    1.014   .     S
H423   C65     1.086   1_565 S
O430   Zn446   1.936   .     S
O430   Zn448   1.931   .     S
O430   Zn445   1.959   .     S
O430   Zn447   1.941   .     S
O431   Zn446   1.935   .     S
O432   Zn448   1.942   .     S
O433   Zn447   1.933   .     S
O434   Zn445   1.928   .     S
O437   Zn445   1.926   .     S
O438   Zn448   1.933   .     S
O439   Zn446   1.927   .     S
O440   Zn447   1.934   .     S
O441   Zn448   1.930   .     S
O442   Zn445   1.925   .     S
O443   Zn446   1.937   .     S
O444   Zn447   1.928   .     S
C449   O497    1.268   .     A
C449   O495    1.268   .     A
C449   C455    1.436   .     S
C450   C470    1.410   .     A
C450   C464    1.393   .     A
C450   H482    1.077   .     S
C451   C464    1.399   .     A
C451   C463    1.388   .     A
C451   F474    1.358   .     S
C452   C454    1.454   .     S
C452   O496    1.283   .     A
C452   O498    1.280   .     A
C453   C462    1.488   .     S
C453   C465    1.422   .     A
C453   C469    1.422   .     A
C454   C343    1.334   1_655 S
C454   H373    1.088   1_655 S
C456   C459    1.450   .     S
C456   C121    1.331   1_565 S
C456   H142    1.088   1_565 S
C457   C458    1.435   .     S
C458   O493    1.275   .     A
C458   O499    1.275   .     A
C459   O500    1.272   .     A
C459   O494    1.273   .     A
C460   C465    1.392   .     A
C460   H483    1.084   .     S
C460   C467    1.387   .     A
C461   O489    1.279   .     A
C461   O487    1.269   .     A
C461   C464    1.453   .     S
C462   O490    1.289   .     A
C462   O488    1.281   .     A
C463   H481    1.084   .     S
C463   C975    1.400   1_554 S
C465   C466    1.481   .     S
C466   O492    1.398   .     S
C466   O491    1.223   .     D
C467   C468    1.418   .     A
C467   F979    1.355   .     S
C468   C469    1.426   .     A
C468   C974    1.427   .     S
C469   C473    1.411   .     A
C470   C972    1.427   1_554 S
C470   C975    1.422   1_554 S
C471   C472    1.390   .     A
C471   C974    1.422   .     S
C471   C967    1.400   .     S
C472   H480    1.084   .     S
C472   C473    1.383   .     A
C473   H484    1.081   .     S
F475   C971    1.355   1_554 S
H476   C343    1.086   1_655 S
H477   O492    1.014   .     S
H479   C121    1.086   1_565 S
O486   Zn502   1.936   .     S
O486   Zn504   1.931   .     S
O486   Zn501   1.959   .     S
O486   Zn503   1.941   .     S
O487   Zn502   1.935   .     S
O488   Zn504   1.942   .     S
O489   Zn503   1.933   .     S
O490   Zn501   1.928   .     S
O493   Zn501   1.926   .     S
O494   Zn504   1.933   .     S
O495   Zn502   1.927   .     S
O496   Zn503   1.934   .     S
O497   Zn504   1.930   .     S
O498   Zn501   1.925   .     S
O499   Zn502   1.937   .     S
O500   Zn503   1.928   .     S
C505   O553    1.268   .     A
C505   O551    1.268   .     A
C505   C511    1.436   .     S
C506   C526    1.410   .     A
C506   C520    1.393   .     A
C506   H538    1.077   .     S
C507   C520    1.399   .     A
C507   C519    1.388   .     A
C507   F530    1.358   .     S
C508   C510    1.454   .     S
C508   O552    1.283   .     A
C508   O554    1.280   .     A
C509   C518    1.488   .     S
C509   C521    1.422   .     A
C509   C525    1.422   .     A
C510   C567    1.334   .     S
C510   H597    1.088   .     S
C511   C622    1.334   1_455 S
C511   H644    1.086   1_455 S
C512   C515    1.450   .     S
C512   C681    1.331   .     S
C512   H702    1.088   .     S
C513   C514    1.435   .     S
C513   C848    1.331   1_545 S
C513   H871    1.086   1_545 S
C514   O549    1.275   .     A
C514   O555    1.275   .     A
C515   O556    1.272   .     A
C515   O550    1.273   .     A
C516   C521    1.392   .     A
C516   H539    1.084   .     S
C516   C523    1.387   .     A
C517   O545    1.279   .     A
C517   O543    1.269   .     A
C517   C520    1.453   .     S
C518   O546    1.289   .     A
C518   O544    1.281   .     A
C519   H537    1.084   .     S
C521   C522    1.481   .     S
C522   O548    1.398   .     S
C522   O547    1.223   .     D
C523   C524    1.418   .     A
C523   F27     1.355   1_556 S
C524   C525    1.426   .     A
C524   C22     1.427   1_556 S
C525   C529    1.411   .     A
C527   C528    1.390   .     A
C527   C22     1.422   1_556 S
C527   C15     1.400   1_556 S
C528   H536    1.084   .     S
C528   C529    1.383   .     A
C529   H540    1.081   .     S
H532   C567    1.086   .     S
H533   O548    1.014   .     S
H534   C848    1.088   1_545 S
H535   C681    1.086   .     S
H541   C622    1.088   1_455 S
O542   Zn558   1.936   .     S
O542   Zn560   1.931   .     S
O542   Zn557   1.959   .     S
O542   Zn559   1.941   .     S
O543   Zn558   1.935   .     S
O544   Zn560   1.942   .     S
O545   Zn559   1.933   .     S
O546   Zn557   1.928   .     S
O549   Zn557   1.926   .     S
O550   Zn560   1.933   .     S
O551   Zn558   1.927   .     S
O552   Zn559   1.934   .     S
O553   Zn560   1.930   .     S
O554   Zn557   1.925   .     S
O555   Zn558   1.937   .     S
O556   Zn559   1.928   .     S
C561   O609    1.268   .     A
C561   O607    1.268   .     A
C561   C567    1.436   .     S
C562   C582    1.410   .     A
C562   C576    1.393   .     A
C562   H594    1.077   .     S
C563   C576    1.399   .     A
C563   C575    1.388   .     A
C563   F586    1.358   .     S
C564   C566    1.454   .     S
C564   O608    1.283   .     A
C564   O610    1.280   .     A
C565   C574    1.488   .     S
C565   C577    1.422   .     A
C565   C581    1.422   .     A
C566   C623    1.334   .     S
C566   H653    1.088   .     S
C568   C571    1.450   .     S
C568   C737    1.331   .     S
C568   H758    1.088   .     S
C569   C570    1.435   .     S
C569   C904    1.331   1_545 S
C569   H927    1.086   1_545 S
C570   O605    1.275   .     A
C570   O611    1.275   .     A
C571   O612    1.272   .     A
C571   O606    1.273   .     A
C572   C577    1.392   .     A
C572   H595    1.084   .     S
C572   C579    1.387   .     A
C573   O601    1.279   .     A
C573   O599    1.269   .     A
C573   C576    1.453   .     S
C574   O602    1.289   .     A
C574   O600    1.281   .     A
C575   H593    1.084   .     S
C577   C578    1.481   .     S
C578   O604    1.398   .     S
C578   O603    1.223   .     D
C579   C580    1.418   .     A
C579   F83     1.355   1_556 S
C580   C581    1.426   .     A
C580   C78     1.427   1_556 S
C581   C585    1.411   .     A
C583   C584    1.390   .     A
C583   C78     1.422   1_556 S
C583   C71     1.400   1_556 S
C584   H592    1.084   .     S
C584   C585    1.383   .     A
C585   H596    1.081   .     S
H588   C623    1.086   .     S
H589   O604    1.014   .     S
H590   C904    1.088   1_545 S
H591   C737    1.086   .     S
O598   Zn614   1.936   .     S
O598   Zn616   1.931   .     S
O598   Zn613   1.959   .     S
O598   Zn615   1.941   .     S
O599   Zn614   1.935   .     S
O600   Zn616   1.942   .     S
O601   Zn615   1.933   .     S
O602   Zn613   1.928   .     S
O605   Zn613   1.926   .     S
O606   Zn616   1.933   .     S
O607   Zn614   1.927   .     S
O608   Zn615   1.934   .     S
O609   Zn616   1.930   .     S
O610   Zn613   1.925   .     S
O611   Zn614   1.937   .     S
O612   Zn615   1.928   .     S
C617   O665    1.268   .     A
C617   O663    1.268   .     A
C617   C623    1.436   .     S
C618   C638    1.410   .     A
C618   C632    1.393   .     A
C618   H650    1.077   .     S
C619   C632    1.399   .     A
C619   C631    1.388   .     A
C619   F642    1.358   .     S
C620   C622    1.454   .     S
C620   O664    1.283   .     A
C620   O666    1.280   .     A
C621   C630    1.488   .     S
C621   C633    1.422   .     A
C621   C637    1.422   .     A
C622   C511    1.334   1_655 S
C622   H541    1.088   1_655 S
C624   C627    1.450   .     S
C624   C793    1.331   .     S
C624   H814    1.088   .     S
C625   C626    1.435   .     S
C625   C960    1.331   1_545 S
C625   H983    1.086   1_545 S
C626   O661    1.275   .     A
C626   O667    1.275   .     A
C627   O668    1.272   .     A
C627   O662    1.273   .     A
C628   C633    1.392   .     A
C628   H651    1.084   .     S
C628   C635    1.387   .     A
C629   O657    1.279   .     A
C629   O655    1.269   .     A
C629   C632    1.453   .     S
C630   O658    1.289   .     A
C630   O656    1.281   .     A
C631   H649    1.084   .     S
C633   C634    1.481   .     S
C634   O660    1.398   .     S
C634   O659    1.223   .     D
C635   C636    1.418   .     A
C635   F139    1.355   1_556 S
C636   C637    1.426   .     A
C636   C134    1.427   1_556 S
C637   C641    1.411   .     A
C639   C640    1.390   .     A
C639   C134    1.422   1_556 S
C639   C127    1.400   1_556 S
C640   H648    1.084   .     S
C640   C641    1.383   .     A
C641   H652    1.081   .     S
H644   C511    1.086   1_655 S
H645   O660    1.014   .     S
H646   C960    1.088   1_545 S
H647   C793    1.086   .     S
O654   Zn670   1.936   .     S
O654   Zn672   1.931   .     S
O654   Zn669   1.959   .     S
O654   Zn671   1.941   .     S
O655   Zn670   1.935   .     S
O656   Zn672   1.942   .     S
O657   Zn671   1.933   .     S
O658   Zn669   1.928   .     S
O661   Zn669   1.926   .     S
O662   Zn672   1.933   .     S
O663   Zn670   1.927   .     S
O664   Zn671   1.934   .     S
O665   Zn672   1.930   .     S
O666   Zn669   1.925   .     S
O667   Zn670   1.937   .     S
O668   Zn671   1.928   .     S
C673   O721    1.268   .     A
C673   O719    1.268   .     A
C673   C679    1.436   .     S
C674   C694    1.410   .     A
C674   C688    1.393   .     A
C674   H706    1.077   .     S
C675   C688    1.399   .     A
C675   C687    1.388   .     A
C675   F698    1.358   .     S
C676   C678    1.454   .     S
C676   O720    1.283   .     A
C676   O722    1.280   .     A
C677   C686    1.488   .     S
C677   C689    1.422   .     A
C677   C693    1.422   .     A
C678   C735    1.334   .     S
C678   H765    1.088   .     S
C679   C790    1.334   1_455 S
C679   H812    1.086   1_455 S
C680   C683    1.450   .     S
C680   C849    1.331   .     S
C680   H870    1.088   .     S
C681   C682    1.435   .     S
C682   O717    1.275   .     A
C682   O723    1.275   .     A
C683   O724    1.272   .     A
C683   O718    1.273   .     A
C684   C689    1.392   .     A
C684   H707    1.084   .     S
C684   C691    1.387   .     A
C685   O713    1.279   .     A
C685   O711    1.269   .     A
C685   C688    1.453   .     S
C686   O714    1.289   .     A
C686   O712    1.281   .     A
C687   H705    1.084   .     S
C689   C690    1.481   .     S
C690   O716    1.398   .     S
C690   O715    1.223   .     D
C691   C692    1.418   .     A
C691   F195    1.355   1_556 S
C692   C693    1.426   .     A
C692   C190    1.427   1_556 S
C693   C697    1.411   .     A
C695   C696    1.390   .     A
C695   C190    1.422   1_556 S
C695   C183    1.400   1_556 S
C696   H704    1.084   .     S
C696   C697    1.383   .     A
C697   H708    1.081   .     S
H700   C735    1.086   .     S
H701   O716    1.014   .     S
H703   C849    1.086   .     S
H709   C790    1.088   1_455 S
O710   Zn726   1.936   .     S
O710   Zn728   1.931   .     S
O710   Zn725   1.959   .     S
O710   Zn727   1.941   .     S
O711   Zn726   1.935   .     S
O712   Zn728   1.942   .     S
O713   Zn727   1.933   .     S
O714   Zn725   1.928   .     S
O717   Zn725   1.926   .     S
O718   Zn728   1.933   .     S
O719   Zn726   1.927   .     S
O720   Zn727   1.934   .     S
O721   Zn728   1.930   .     S
O722   Zn725   1.925   .     S
O723   Zn726   1.937   .     S
O724   Zn727   1.928   .     S
C729   O777    1.268   .     A
C729   O775    1.268   .     A
C729   C735    1.436   .     S
C730   C750    1.410   .     A
C730   C744    1.393   .     A
C730   H762    1.077   .     S
C731   C744    1.399   .     A
C731   C743    1.388   .     A
C731   F754    1.358   .     S
C732   C734    1.454   .     S
C732   O776    1.283   .     A
C732   O778    1.280   .     A
C733   C742    1.488   .     S
C733   C745    1.422   .     A
C733   C749    1.422   .     A
C734   C791    1.334   .     S
C734   H821    1.088   .     S
C736   C739    1.450   .     S
C736   C905    1.331   .     S
C736   H926    1.088   .     S
C737   C738    1.435   .     S
C738   O773    1.275   .     A
C738   O779    1.275   .     A
C739   O780    1.272   .     A
C739   O774    1.273   .     A
C740   C745    1.392   .     A
C740   H763    1.084   .     S
C740   C747    1.387   .     A
C741   O769    1.279   .     A
C741   O767    1.269   .     A
C741   C744    1.453   .     S
C742   O770    1.289   .     A
C742   O768    1.281   .     A
C743   H761    1.084   .     S
C745   C746    1.481   .     S
C746   O772    1.398   .     S
C746   O771    1.223   .     D
C747   C748    1.418   .     A
C747   F251    1.355   1_556 S
C748   C749    1.426   .     A
C748   C246    1.427   1_556 S
C749   C753    1.411   .     A
C751   C752    1.390   .     A
C751   C246    1.422   1_556 S
C751   C239    1.400   1_556 S
C752   H760    1.084   .     S
C752   C753    1.383   .     A
C753   H764    1.081   .     S
H756   C791    1.086   .     S
H757   O772    1.014   .     S
H759   C905    1.086   .     S
O766   Zn782   1.936   .     S
O766   Zn784   1.931   .     S
O766   Zn781   1.959   .     S
O766   Zn783   1.941   .     S
O767   Zn782   1.935   .     S
O768   Zn784   1.942   .     S
O769   Zn783   1.933   .     S
O770   Zn781   1.928   .     S
O773   Zn781   1.926   .     S
O774   Zn784   1.933   .     S
O775   Zn782   1.927   .     S
O776   Zn783   1.934   .     S
O777   Zn784   1.930   .     S
O778   Zn781   1.925   .     S
O779   Zn782   1.937   .     S
O780   Zn783   1.928   .     S
C785   O833    1.268   .     A
C785   O831    1.268   .     A
C785   C791    1.436   .     S
C786   C806    1.410   .     A
C786   C800    1.393   .     A
C786   H818    1.077   .     S
C787   C800    1.399   .     A
C787   C799    1.388   .     A
C787   F810    1.358   .     S
C788   C790    1.454   .     S
C788   O832    1.283   .     A
C788   O834    1.280   .     A
C789   C798    1.488   .     S
C789   C801    1.422   .     A
C789   C805    1.422   .     A
C790   C679    1.334   1_655 S
C790   H709    1.088   1_655 S
C792   C795    1.450   .     S
C792   C961    1.331   .     S
C792   H982    1.088   .     S
C793   C794    1.435   .     S
C794   O829    1.275   .     A
C794   O835    1.275   .     A
C795   O836    1.272   .     A
C795   O830    1.273   .     A
C796   C801    1.392   .     A
C796   H819    1.084   .     S
C796   C803    1.387   .     A
C797   O825    1.279   .     A
C797   O823    1.269   .     A
C797   C800    1.453   .     S
C798   O826    1.289   .     A
C798   O824    1.281   .     A
C799   H817    1.084   .     S
C801   C802    1.481   .     S
C802   O828    1.398   .     S
C802   O827    1.223   .     D
C803   C804    1.418   .     A
C803   F307    1.355   1_556 S
C804   C805    1.426   .     A
C804   C302    1.427   1_556 S
C805   C809    1.411   .     A
C807   C808    1.390   .     A
C807   C302    1.422   1_556 S
C807   C295    1.400   1_556 S
C808   H816    1.084   .     S
C808   C809    1.383   .     A
C809   H820    1.081   .     S
H812   C679    1.086   1_655 S
H813   O828    1.014   .     S
H815   C961    1.086   .     S
O822   Zn838   1.936   .     S
O822   Zn840   1.931   .     S
O822   Zn837   1.959   .     S
O822   Zn839   1.941   .     S
O823   Zn838   1.935   .     S
O824   Zn840   1.942   .     S
O825   Zn839   1.933   .     S
O826   Zn837   1.928   .     S
O829   Zn837   1.926   .     S
O830   Zn840   1.933   .     S
O831   Zn838   1.927   .     S
O832   Zn839   1.934   .     S
O833   Zn840   1.930   .     S
O834   Zn837   1.925   .     S
O835   Zn838   1.937   .     S
O836   Zn839   1.928   .     S
C841   O889    1.268   .     A
C841   O887    1.268   .     A
C841   C847    1.436   .     S
C842   C862    1.410   .     A
C842   C856    1.393   .     A
C842   H874    1.077   .     S
C843   C856    1.399   .     A
C843   C855    1.388   .     A
C843   F866    1.358   .     S
C844   C846    1.454   .     S
C844   O888    1.283   .     A
C844   O890    1.280   .     A
C845   C854    1.488   .     S
C845   C857    1.422   .     A
C845   C861    1.422   .     A
C846   C903    1.334   .     S
C846   H933    1.088   .     S
C847   C958    1.334   1_455 S
C847   H980    1.086   1_455 S
C848   C851    1.450   .     S
C848   C513    1.331   1_565 S
C848   H534    1.088   1_565 S
C849   C850    1.435   .     S
C850   O885    1.275   .     A
C850   O891    1.275   .     A
C851   O892    1.272   .     A
C851   O886    1.273   .     A
C852   C857    1.392   .     A
C852   H875    1.084   .     S
C852   C859    1.387   .     A
C853   O881    1.279   .     A
C853   O879    1.269   .     A
C853   C856    1.453   .     S
C854   O882    1.289   .     A
C854   O880    1.281   .     A
C855   H873    1.084   .     S
C857   C858    1.481   .     S
C858   O884    1.398   .     S
C858   O883    1.223   .     D
C859   C860    1.418   .     A
C859   F363    1.355   1_556 S
C860   C861    1.426   .     A
C860   C358    1.427   1_556 S
C861   C865    1.411   .     A
C863   C864    1.390   .     A
C863   C358    1.422   1_556 S
C863   C351    1.400   1_556 S
C864   H872    1.084   .     S
C864   C865    1.383   .     A
C865   H876    1.081   .     S
H868   C903    1.086   .     S
H869   O884    1.014   .     S
H871   C513    1.086   1_565 S
H877   C958    1.088   1_455 S
O878   Zn894   1.936   .     S
O878   Zn896   1.931   .     S
O878   Zn893   1.959   .     S
O878   Zn895   1.941   .     S
O879   Zn894   1.935   .     S
O880   Zn896   1.942   .     S
O881   Zn895   1.933   .     S
O882   Zn893   1.928   .     S
O885   Zn893   1.926   .     S
O886   Zn896   1.933   .     S
O887   Zn894   1.927   .     S
O888   Zn895   1.934   .     S
O889   Zn896   1.930   .     S
O890   Zn893   1.925   .     S
O891   Zn894   1.937   .     S
O892   Zn895   1.928   .     S
C897   O945    1.268   .     A
C897   O943    1.268   .     A
C897   C903    1.436   .     S
C898   C918    1.410   .     A
C898   C912    1.393   .     A
C898   H930    1.077   .     S
C899   C912    1.399   .     A
C899   C911    1.388   .     A
C899   F922    1.358   .     S
C900   C902    1.454   .     S
C900   O944    1.283   .     A
C900   O946    1.280   .     A
C901   C910    1.488   .     S
C901   C913    1.422   .     A
C901   C917    1.422   .     A
C902   C959    1.334   .     S
C902   H989    1.088   .     S
C904   C907    1.450   .     S
C904   C569    1.331   1_565 S
C904   H590    1.088   1_565 S
C905   C906    1.435   .     S
C906   O941    1.275   .     A
C906   O947    1.275   .     A
C907   O948    1.272   .     A
C907   O942    1.273   .     A
C908   C913    1.392   .     A
C908   H931    1.084   .     S
C908   C915    1.387   .     A
C909   O937    1.279   .     A
C909   O935    1.269   .     A
C909   C912    1.453   .     S
C910   O938    1.289   .     A
C910   O936    1.281   .     A
C911   H929    1.084   .     S
C913   C914    1.481   .     S
C914   O940    1.398   .     S
C914   O939    1.223   .     D
C915   C916    1.418   .     A
C915   F419    1.355   1_556 S
C916   C917    1.426   .     A
C916   C414    1.427   1_556 S
C917   C921    1.411   .     A
C919   C920    1.390   .     A
C919   C414    1.422   1_556 S
C919   C407    1.400   1_556 S
C920   H928    1.084   .     S
C920   C921    1.383   .     A
C921   H932    1.081   .     S
H924   C959    1.086   .     S
H925   O940    1.014   .     S
H927   C569    1.086   1_565 S
O934   Zn950   1.936   .     S
O934   Zn952   1.931   .     S
O934   Zn949   1.959   .     S
O934   Zn951   1.941   .     S
O935   Zn950   1.935   .     S
O936   Zn952   1.942   .     S
O937   Zn951   1.933   .     S
O938   Zn949   1.928   .     S
O941   Zn949   1.926   .     S
O942   Zn952   1.933   .     S
O943   Zn950   1.927   .     S
O944   Zn951   1.934   .     S
O945   Zn952   1.930   .     S
O946   Zn949   1.925   .     S
O947   Zn950   1.937   .     S
O948   Zn951   1.928   .     S
C953   O1001   1.268   .     A
C953   O999    1.268   .     A
C953   C959    1.436   .     S
C954   C974    1.410   .     A
C954   C968    1.393   .     A
C954   H986    1.077   .     S
C955   C968    1.399   .     A
C955   C967    1.388   .     A
C955   F978    1.358   .     S
C956   C958    1.454   .     S
C956   O1000   1.283   .     A
C956   O1002   1.280   .     A
C957   C966    1.488   .     S
C957   C969    1.422   .     A
C957   C973    1.422   .     A
C958   C847    1.334   1_655 S
C958   H877    1.088   1_655 S
C960   C963    1.450   .     S
C960   C625    1.331   1_565 S
C960   H646    1.088   1_565 S
C961   C962    1.435   .     S
C962   O997    1.275   .     A
C962   O1003   1.275   .     A
C963   O1004   1.272   .     A
C963   O998    1.273   .     A
C964   C969    1.392   .     A
C964   H987    1.084   .     S
C964   C971    1.387   .     A
C965   O993    1.279   .     A
C965   O991    1.269   .     A
C965   C968    1.453   .     S
C966   O994    1.289   .     A
C966   O992    1.281   .     A
C967   H985    1.084   .     S
C969   C970    1.481   .     S
C970   O996    1.398   .     S
C970   O995    1.223   .     D
C971   C972    1.418   .     A
C971   F475    1.355   1_556 S
C972   C973    1.426   .     A
C972   C470    1.427   1_556 S
C973   C977    1.411   .     A
C975   C976    1.390   .     A
C975   C470    1.422   1_556 S
C975   C463    1.400   1_556 S
C976   H984    1.084   .     S
C976   C977    1.383   .     A
C977   H988    1.081   .     S
H980   C847    1.086   1_655 S
H981   O996    1.014   .     S
H983   C625    1.086   1_565 S
O990   Zn1006  1.936   .     S
O990   Zn1008  1.931   .     S
O990   Zn1005  1.959   .     S
O990   Zn1007  1.941   .     S
O991   Zn1006  1.935   .     S
O992   Zn1008  1.942   .     S
O993   Zn1007  1.933   .     S
O994   Zn1005  1.928   .     S
O997   Zn1005  1.926   .     S
O998   Zn1008  1.933   .     S
O999   Zn1006  1.927   .     S
O1000  Zn1007  1.934   .     S
O1001  Zn1008  1.930   .     S
O1002  Zn1005  1.925   .     S
O1003  Zn1006  1.937   .     S
O1004  Zn1007  1.928   .     S
