data_str_m1_o10_o18_pcu_sym.254
_audit_creation_date              2020-01-03
_audit_creation_method            'Materials Studio'
_symmetry_space_group_name_H-M    'P1'
_symmetry_Int_Tables_number       1
_symmetry_cell_setting            triclinic
loop_
_symmetry_equiv_pos_as_xyz
  x,y,z
_cell_length_a                    32.5951
_cell_length_b                    32.5384
_cell_length_c                    35.5205
_cell_angle_alpha                 98.1426
_cell_angle_beta                  73.2531
_cell_angle_gamma                 98.5246
loop_
_atom_site_label
_atom_site_type_symbol
_atom_site_fract_x
_atom_site_fract_y
_atom_site_fract_z
_atom_site_U_iso_or_equiv
_atom_site_adp_type
_atom_site_occupancy
C1     C     0.05248   0.15985   0.25876   0.00000  Uiso   1.00
C2     C     0.18971   0.11656   0.45926   0.00000  Uiso   1.00
C3     C     0.21487   0.10295   0.47971   0.00000  Uiso   1.00
C4     C     0.28105   0.17352   0.24123   0.00000  Uiso   1.00
C5     C     0.20803   0.11384   0.02021   0.00000  Uiso   1.00
C6     C     0.17315   0.13657   0.04174   0.00000  Uiso   1.00
C7     C     0.23582   0.10206   0.03941   0.00000  Uiso   1.00
C8     C     0.22973   0.11298   0.07977   0.00000  Uiso   1.00
C9     C     0.16971   0.15006   0.08210   0.00000  Uiso   1.00
C10    C     0.32695   0.17615   0.23768   0.00000  Uiso   1.00
C11    C     0.00714   0.15732   0.26219   0.00000  Uiso   1.00
C12    C     0.09229   0.20670   0.42151   0.00000  Uiso   1.00
C13    C     0.17822   0.32120   0.23508   0.00000  Uiso   1.00
C14    C     0.15243   0.01220   0.26241   0.00000  Uiso   1.00
C15    C     0.15583   0.05614   0.25915   0.00000  Uiso   1.00
C16    C     0.17644   0.27749   0.24088   0.00000  Uiso   1.00
C17    C     0.18794   0.14548   0.14392   0.00000  Uiso   1.00
C18    C     0.14514   0.18740   0.35639   0.00000  Uiso   1.00
C19    C     0.13073   0.19025   0.39999   0.00000  Uiso   1.00
C20    C     0.19642   0.13649   0.10116   0.00000  Uiso   1.00
C21    C     0.07612   0.20317   0.46193   0.00000  Uiso   1.00
C22    C     0.19221   0.32662   0.16942   0.00000  Uiso   1.00
C23    C     0.15338   0.17178   0.41984   0.00000  Uiso   1.00
C24    C     0.22598   0.00931   0.13342   0.00000  Uiso   1.00
C25    C     0.20892   0.00223   0.09697   0.00000  Uiso   1.00
C26    C     0.07007   0.10523   0.08070   0.00000  Uiso   1.00
C27    C     0.02537   0.09248   0.07411   0.00000  Uiso   1.00
C28    C     0.01092   0.04616   0.07822   0.00000  Uiso   1.00
C29    C     0.16287   0.07020   0.41467   0.00000  Uiso   1.00
C30    C     0.17488   0.02699   0.41695   0.00000  Uiso   1.00
C31    C     0.14140   0.32552   0.40727   0.00000  Uiso   1.00
C32    C     0.13617   0.16495   0.45990   0.00000  Uiso   1.00
C33    C     0.09747   0.18204   0.48139   0.00000  Uiso   1.00
C34    C     0.15743   0.14323   0.47957   0.00000  Uiso   1.00
C35    C     0.14466   0.14681   0.02155   0.00000  Uiso   1.00
C36    C     0.10260   0.15789   0.04136   0.00000  Uiso   1.00
C37    C     0.08028   0.17672   0.02161   0.00000  Uiso   1.00
F38    F     0.04122   0.18905   0.04211   0.00000  Uiso   1.00
F39    F     0.14410   0.17978   0.10233   0.00000  Uiso   1.00
F40    F     0.25669   0.10122   0.09795   0.00000  Uiso   1.00
F41    F     0.03899   0.21976   0.48165   0.00000  Uiso   1.00
F42    F     0.06964   0.22538   0.40343   0.00000  Uiso   1.00
H43    H     0.26227   0.08433   0.02316   0.00000  Uiso   1.00
H44    H     0.25519   0.32627   0.12727   0.00000  Uiso   1.00
H45    H     0.19926   0.30176   0.09010   0.00000  Uiso   1.00
H46    H     0.23448   0.01345   0.07117   0.00000  Uiso   1.00
H47    H     0.18072   0.01977   0.10200   0.00000  Uiso   1.00
H48    H     0.06902   0.09792   0.11061   0.00000  Uiso   1.00
H49    H     0.09403   0.08607   0.05931   0.00000  Uiso   1.00
H50    H     0.00191   0.11130   0.09621   0.00000  Uiso   1.00
H51    H     0.02593   0.09891   0.04405   0.00000  Uiso   1.00
H52    H     0.03434   0.02681   0.05668   0.00000  Uiso   1.00
H53    H     0.31232   0.03776   0.07220   0.00000  Uiso   1.00
H54    H     0.01653   0.19350   0.21499   0.00000  Uiso   1.00
H55    H     0.00807   0.03925   0.10868   0.00000  Uiso   1.00
H56    H     0.15894   0.07116   0.38477   0.00000  Uiso   1.00
H57    H     0.13091   0.07520   0.43601   0.00000  Uiso   1.00
H58    H     0.20681   0.02252   0.39569   0.00000  Uiso   1.00
H59    H     0.17717   0.02484   0.44720   0.00000  Uiso   1.00
H60    H     0.10930   0.32900   0.42856   0.00000  Uiso   1.00
H61    H     0.15099   0.29473   0.40931   0.00000  Uiso   1.00
H62    H     0.13913   0.32632   0.37677   0.00000  Uiso   1.00
H63    H     0.31823   0.13988   0.28512   0.00000  Uiso   1.00
H64    H     0.13044   0.00037   0.28892   0.00000  Uiso   1.00
H65    H     0.24017   0.08380   0.46354   0.00000  Uiso   1.00
H66    H     0.18493   0.16354   0.40346   0.00000  Uiso   1.00
H67    H     0.16206   0.00785   0.17381   0.00000  Uiso   1.00
H68    H     0.18546   0.29207   0.16348   0.00000  Uiso   1.00
H69    H     0.23521   0.04321   0.14000   0.00000  Uiso   1.00
O70    O     0.16667   0.16667   0.25000   0.00000  Uiso   1.00
O71    O     0.15693   0.12393   0.16625   0.00000  Uiso   1.00
O72    O     0.12687   0.20646   0.33749   0.00000  Uiso   1.00
O73    O     0.21088   0.17493   0.15877   0.00000  Uiso   1.00
O74    O     0.17198   0.16135   0.33749   0.00000  Uiso   1.00
O75    O     0.20820   0.00427   0.20289   0.00000  Uiso   1.00
O76    O     0.08137   0.14890   0.07960   0.00000  Uiso   1.00
O77    O     0.19645   0.10170   0.41970   0.00000  Uiso   1.00
O78    O     0.17849   0.08101   0.27821   0.00000  Uiso   1.00
O79    O     0.14581   0.26136   0.26767   0.00000  Uiso   1.00
O80    O     0.07452   0.13251   0.23607   0.00000  Uiso   1.00
O81    O     0.26785   0.19179   0.21805   0.00000  Uiso   1.00
O82    O     0.06990   0.18960   0.27820   0.00000  Uiso   1.00
O83    O     0.25440   0.15277   0.26767   0.00000  Uiso   1.00
O84    O     0.13800   0.06903   0.23607   0.00000  Uiso   1.00
O85    O     0.20437   0.25527   0.21805   0.00000  Uiso   1.00
Zn86   Zn    0.19244   0.14090   0.28277   0.00000  Uiso   1.00
Zn87   Zn    0.13459   0.12378   0.22257   0.00000  Uiso   1.00
Zn88   Zn    0.21166   0.19664   0.21188   0.00000  Uiso   1.00
Zn89   Zn    0.12798   0.20535   0.28277   0.00000  Uiso   1.00
C90    C     0.38581   0.15985   0.25876   0.00000  Uiso   1.00
C91    C     0.52305   0.11656   0.45926   0.00000  Uiso   1.00
C92    C     0.54820   0.10295   0.47971   0.00000  Uiso   1.00
C93    C     0.61439   0.17352   0.24123   0.00000  Uiso   1.00
C94    C     0.54136   0.11384   0.02021   0.00000  Uiso   1.00
C95    C     0.50648   0.13657   0.04174   0.00000  Uiso   1.00
C96    C     0.56916   0.10206   0.03941   0.00000  Uiso   1.00
C97    C     0.56306   0.11298   0.07977   0.00000  Uiso   1.00
C98    C     0.50304   0.15006   0.08210   0.00000  Uiso   1.00
C99    C     0.66028   0.17615   0.23768   0.00000  Uiso   1.00
C100   C     0.34047   0.15732   0.26219   0.00000  Uiso   1.00
C101   C     0.42563   0.20670   0.42151   0.00000  Uiso   1.00
C102   C     0.51156   0.32120   0.23508   0.00000  Uiso   1.00
C103   C     0.48577   0.01220   0.26241   0.00000  Uiso   1.00
C104   C     0.48916   0.05614   0.25915   0.00000  Uiso   1.00
C105   C     0.50977   0.27749   0.24088   0.00000  Uiso   1.00
C106   C     0.52128   0.14548   0.14392   0.00000  Uiso   1.00
C107   C     0.47847   0.18740   0.35639   0.00000  Uiso   1.00
C108   C     0.46406   0.19025   0.39999   0.00000  Uiso   1.00
C109   C     0.52976   0.13649   0.10116   0.00000  Uiso   1.00
C110   C     0.40945   0.20317   0.46193   0.00000  Uiso   1.00
C111   C     0.52554   0.32662   0.16942   0.00000  Uiso   1.00
C112   C     0.48671   0.17178   0.41984   0.00000  Uiso   1.00
C113   C     0.55932   0.00931   0.13342   0.00000  Uiso   1.00
C114   C     0.54225   0.00223   0.09697   0.00000  Uiso   1.00
C115   C     0.40341   0.10523   0.08070   0.00000  Uiso   1.00
C116   C     0.35870   0.09248   0.07411   0.00000  Uiso   1.00
C117   C     0.34425   0.04616   0.07822   0.00000  Uiso   1.00
C118   C     0.49620   0.07020   0.41467   0.00000  Uiso   1.00
C119   C     0.50821   0.02699   0.41695   0.00000  Uiso   1.00
C120   C     0.47473   0.32552   0.40727   0.00000  Uiso   1.00
C121   C     0.46950   0.16495   0.45990   0.00000  Uiso   1.00
C122   C     0.43080   0.18204   0.48139   0.00000  Uiso   1.00
C123   C     0.49076   0.14323   0.47957   0.00000  Uiso   1.00
C124   C     0.47799   0.14681   0.02155   0.00000  Uiso   1.00
C125   C     0.43594   0.15789   0.04136   0.00000  Uiso   1.00
C126   C     0.41362   0.17672   0.02161   0.00000  Uiso   1.00
F127   F     0.37456   0.18905   0.04211   0.00000  Uiso   1.00
F128   F     0.47744   0.17978   0.10233   0.00000  Uiso   1.00
F129   F     0.59002   0.10122   0.09795   0.00000  Uiso   1.00
F130   F     0.37233   0.21976   0.48165   0.00000  Uiso   1.00
F131   F     0.40297   0.22538   0.40343   0.00000  Uiso   1.00
H132   H     0.59560   0.08433   0.02316   0.00000  Uiso   1.00
H133   H     0.58852   0.32627   0.12727   0.00000  Uiso   1.00
H134   H     0.53260   0.30176   0.09010   0.00000  Uiso   1.00
H135   H     0.56781   0.01345   0.07117   0.00000  Uiso   1.00
H136   H     0.51405   0.01977   0.10200   0.00000  Uiso   1.00
H137   H     0.40235   0.09792   0.11061   0.00000  Uiso   1.00
H138   H     0.42736   0.08607   0.05931   0.00000  Uiso   1.00
H139   H     0.33525   0.11130   0.09621   0.00000  Uiso   1.00
H140   H     0.35927   0.09891   0.04405   0.00000  Uiso   1.00
H141   H     0.36767   0.02681   0.05668   0.00000  Uiso   1.00
H142   H     0.64565   0.03776   0.07220   0.00000  Uiso   1.00
H143   H     0.34986   0.19350   0.21499   0.00000  Uiso   1.00
H144   H     0.34140   0.03925   0.10868   0.00000  Uiso   1.00
H145   H     0.49227   0.07116   0.38477   0.00000  Uiso   1.00
H146   H     0.46425   0.07520   0.43601   0.00000  Uiso   1.00
H147   H     0.54014   0.02252   0.39569   0.00000  Uiso   1.00
H148   H     0.51050   0.02484   0.44720   0.00000  Uiso   1.00
H149   H     0.44263   0.32900   0.42856   0.00000  Uiso   1.00
H150   H     0.48433   0.29473   0.40931   0.00000  Uiso   1.00
H151   H     0.47246   0.32632   0.37677   0.00000  Uiso   1.00
H152   H     0.65156   0.13988   0.28512   0.00000  Uiso   1.00
H153   H     0.46378   0.00037   0.28892   0.00000  Uiso   1.00
H154   H     0.57350   0.08380   0.46354   0.00000  Uiso   1.00
H155   H     0.51826   0.16354   0.40346   0.00000  Uiso   1.00
H156   H     0.49540   0.00785   0.17381   0.00000  Uiso   1.00
H157   H     0.51879   0.29207   0.16348   0.00000  Uiso   1.00
H158   H     0.56854   0.04321   0.14000   0.00000  Uiso   1.00
O159   O     0.50000   0.16667   0.25000   0.00000  Uiso   1.00
O160   O     0.49027   0.12393   0.16625   0.00000  Uiso   1.00
O161   O     0.46020   0.20646   0.33749   0.00000  Uiso   1.00
O162   O     0.54421   0.17493   0.15877   0.00000  Uiso   1.00
O163   O     0.50532   0.16135   0.33749   0.00000  Uiso   1.00
O164   O     0.54154   0.00427   0.20289   0.00000  Uiso   1.00
O165   O     0.41470   0.14890   0.07960   0.00000  Uiso   1.00
O166   O     0.52979   0.10170   0.41970   0.00000  Uiso   1.00
O167   O     0.51182   0.08101   0.27821   0.00000  Uiso   1.00
O168   O     0.47914   0.26136   0.26767   0.00000  Uiso   1.00
O169   O     0.40785   0.13251   0.23607   0.00000  Uiso   1.00
O170   O     0.60119   0.19179   0.21805   0.00000  Uiso   1.00
O171   O     0.40323   0.18960   0.27820   0.00000  Uiso   1.00
O172   O     0.58773   0.15277   0.26767   0.00000  Uiso   1.00
O173   O     0.47133   0.06903   0.23607   0.00000  Uiso   1.00
O174   O     0.53771   0.25527   0.21805   0.00000  Uiso   1.00
Zn175  Zn    0.52577   0.14090   0.28277   0.00000  Uiso   1.00
Zn176  Zn    0.46792   0.12378   0.22257   0.00000  Uiso   1.00
Zn177  Zn    0.54500   0.19664   0.21188   0.00000  Uiso   1.00
Zn178  Zn    0.46131   0.20535   0.28277   0.00000  Uiso   1.00
C179   C     0.71915   0.15985   0.25876   0.00000  Uiso   1.00
C180   C     0.85638   0.11656   0.45926   0.00000  Uiso   1.00
C181   C     0.88154   0.10295   0.47971   0.00000  Uiso   1.00
C182   C     0.94772   0.17352   0.24123   0.00000  Uiso   1.00
C183   C     0.87470   0.11384   0.02021   0.00000  Uiso   1.00
C184   C     0.83981   0.13657   0.04174   0.00000  Uiso   1.00
C185   C     0.90249   0.10206   0.03941   0.00000  Uiso   1.00
C186   C     0.89639   0.11298   0.07977   0.00000  Uiso   1.00
C187   C     0.83637   0.15006   0.08210   0.00000  Uiso   1.00
C188   C     0.99361   0.17615   0.23768   0.00000  Uiso   1.00
C189   C     0.67381   0.15732   0.26219   0.00000  Uiso   1.00
C190   C     0.75896   0.20670   0.42151   0.00000  Uiso   1.00
C191   C     0.84489   0.32120   0.23508   0.00000  Uiso   1.00
C192   C     0.81910   0.01220   0.26241   0.00000  Uiso   1.00
C193   C     0.82249   0.05614   0.25915   0.00000  Uiso   1.00
C194   C     0.84310   0.27749   0.24088   0.00000  Uiso   1.00
C195   C     0.85461   0.14548   0.14392   0.00000  Uiso   1.00
C196   C     0.81180   0.18740   0.35639   0.00000  Uiso   1.00
C197   C     0.79739   0.19025   0.39999   0.00000  Uiso   1.00
C198   C     0.86309   0.13649   0.10116   0.00000  Uiso   1.00
C199   C     0.74279   0.20317   0.46193   0.00000  Uiso   1.00
C200   C     0.85887   0.32662   0.16942   0.00000  Uiso   1.00
C201   C     0.82004   0.17178   0.41984   0.00000  Uiso   1.00
C202   C     0.89265   0.00931   0.13342   0.00000  Uiso   1.00
C203   C     0.87559   0.00223   0.09697   0.00000  Uiso   1.00
C204   C     0.73674   0.10523   0.08070   0.00000  Uiso   1.00
C205   C     0.69203   0.09248   0.07411   0.00000  Uiso   1.00
C206   C     0.67758   0.04616   0.07822   0.00000  Uiso   1.00
C207   C     0.82953   0.07020   0.41467   0.00000  Uiso   1.00
C208   C     0.84155   0.02699   0.41695   0.00000  Uiso   1.00
C209   C     0.80807   0.32552   0.40727   0.00000  Uiso   1.00
C210   C     0.80283   0.16495   0.45990   0.00000  Uiso   1.00
C211   C     0.76413   0.18204   0.48139   0.00000  Uiso   1.00
C212   C     0.82409   0.14323   0.47957   0.00000  Uiso   1.00
C213   C     0.81132   0.14681   0.02155   0.00000  Uiso   1.00
C214   C     0.76927   0.15789   0.04136   0.00000  Uiso   1.00
C215   C     0.74695   0.17672   0.02161   0.00000  Uiso   1.00
F216   F     0.70789   0.18905   0.04211   0.00000  Uiso   1.00
F217   F     0.81077   0.17978   0.10233   0.00000  Uiso   1.00
F218   F     0.92336   0.10122   0.09795   0.00000  Uiso   1.00
F219   F     0.70566   0.21976   0.48165   0.00000  Uiso   1.00
F220   F     0.73631   0.22538   0.40343   0.00000  Uiso   1.00
H221   H     0.92893   0.08433   0.02316   0.00000  Uiso   1.00
H222   H     0.92186   0.32627   0.12727   0.00000  Uiso   1.00
H223   H     0.86593   0.30176   0.09010   0.00000  Uiso   1.00
H224   H     0.90115   0.01345   0.07117   0.00000  Uiso   1.00
H225   H     0.84738   0.01977   0.10200   0.00000  Uiso   1.00
H226   H     0.73568   0.09792   0.11061   0.00000  Uiso   1.00
H227   H     0.76069   0.08607   0.05931   0.00000  Uiso   1.00
H228   H     0.66858   0.11130   0.09621   0.00000  Uiso   1.00
H229   H     0.69260   0.09891   0.04405   0.00000  Uiso   1.00
H230   H     0.70100   0.02681   0.05668   0.00000  Uiso   1.00
H231   H     0.97899   0.03776   0.07220   0.00000  Uiso   1.00
H232   H     0.68319   0.19350   0.21499   0.00000  Uiso   1.00
H233   H     0.67473   0.03925   0.10868   0.00000  Uiso   1.00
H234   H     0.82561   0.07116   0.38477   0.00000  Uiso   1.00
H235   H     0.79758   0.07520   0.43601   0.00000  Uiso   1.00
H236   H     0.87348   0.02252   0.39569   0.00000  Uiso   1.00
H237   H     0.84383   0.02484   0.44720   0.00000  Uiso   1.00
H238   H     0.77597   0.32900   0.42856   0.00000  Uiso   1.00
H239   H     0.81766   0.29473   0.40931   0.00000  Uiso   1.00
H240   H     0.80580   0.32632   0.37677   0.00000  Uiso   1.00
H241   H     0.98489   0.13988   0.28512   0.00000  Uiso   1.00
H242   H     0.79711   0.00037   0.28892   0.00000  Uiso   1.00
H243   H     0.90684   0.08380   0.46354   0.00000  Uiso   1.00
H244   H     0.85160   0.16354   0.40346   0.00000  Uiso   1.00
H245   H     0.82873   0.00785   0.17381   0.00000  Uiso   1.00
H246   H     0.85212   0.29207   0.16348   0.00000  Uiso   1.00
H247   H     0.90187   0.04321   0.14000   0.00000  Uiso   1.00
O248   O     0.83333   0.16667   0.25000   0.00000  Uiso   1.00
O249   O     0.82360   0.12393   0.16625   0.00000  Uiso   1.00
O250   O     0.79354   0.20646   0.33749   0.00000  Uiso   1.00
O251   O     0.87755   0.17493   0.15877   0.00000  Uiso   1.00
O252   O     0.83865   0.16135   0.33749   0.00000  Uiso   1.00
O253   O     0.87487   0.00427   0.20289   0.00000  Uiso   1.00
O254   O     0.74803   0.14890   0.07960   0.00000  Uiso   1.00
O255   O     0.86312   0.10170   0.41970   0.00000  Uiso   1.00
O256   O     0.84515   0.08101   0.27821   0.00000  Uiso   1.00
O257   O     0.81247   0.26136   0.26767   0.00000  Uiso   1.00
O258   O     0.74119   0.13251   0.23607   0.00000  Uiso   1.00
O259   O     0.93452   0.19179   0.21805   0.00000  Uiso   1.00
O260   O     0.73656   0.18960   0.27820   0.00000  Uiso   1.00
O261   O     0.92106   0.15277   0.26767   0.00000  Uiso   1.00
O262   O     0.80467   0.06903   0.23607   0.00000  Uiso   1.00
O263   O     0.87104   0.25527   0.21805   0.00000  Uiso   1.00
Zn264  Zn    0.85910   0.14090   0.28277   0.00000  Uiso   1.00
Zn265  Zn    0.80125   0.12378   0.22257   0.00000  Uiso   1.00
Zn266  Zn    0.87833   0.19664   0.21188   0.00000  Uiso   1.00
Zn267  Zn    0.79465   0.20535   0.28277   0.00000  Uiso   1.00
C268   C     0.05248   0.49318   0.25876   0.00000  Uiso   1.00
C269   C     0.18971   0.44990   0.45926   0.00000  Uiso   1.00
C270   C     0.21487   0.43628   0.47971   0.00000  Uiso   1.00
C271   C     0.28105   0.50685   0.24123   0.00000  Uiso   1.00
C272   C     0.20803   0.44717   0.02021   0.00000  Uiso   1.00
C273   C     0.17315   0.46990   0.04174   0.00000  Uiso   1.00
C274   C     0.23582   0.43539   0.03941   0.00000  Uiso   1.00
C275   C     0.22973   0.44631   0.07977   0.00000  Uiso   1.00
C276   C     0.16971   0.48339   0.08210   0.00000  Uiso   1.00
C277   C     0.32695   0.50948   0.23768   0.00000  Uiso   1.00
C278   C     0.00714   0.49066   0.26219   0.00000  Uiso   1.00
C279   C     0.09229   0.54004   0.42151   0.00000  Uiso   1.00
C280   C     0.17822   0.65453   0.23508   0.00000  Uiso   1.00
C281   C     0.15243   0.34553   0.26241   0.00000  Uiso   1.00
C282   C     0.15583   0.38948   0.25915   0.00000  Uiso   1.00
C283   C     0.17644   0.61082   0.24088   0.00000  Uiso   1.00
C284   C     0.18794   0.47881   0.14392   0.00000  Uiso   1.00
C285   C     0.14514   0.52074   0.35639   0.00000  Uiso   1.00
C286   C     0.13073   0.52358   0.39999   0.00000  Uiso   1.00
C287   C     0.19642   0.46983   0.10116   0.00000  Uiso   1.00
C288   C     0.07612   0.53650   0.46193   0.00000  Uiso   1.00
C289   C     0.19221   0.65996   0.16942   0.00000  Uiso   1.00
C290   C     0.15338   0.50512   0.41984   0.00000  Uiso   1.00
C291   C     0.22598   0.34265   0.13342   0.00000  Uiso   1.00
C292   C     0.20892   0.33556   0.09697   0.00000  Uiso   1.00
C293   C     0.07007   0.43857   0.08070   0.00000  Uiso   1.00
C294   C     0.02537   0.42582   0.07411   0.00000  Uiso   1.00
C295   C     0.01092   0.37949   0.07822   0.00000  Uiso   1.00
C296   C     0.16287   0.40353   0.41467   0.00000  Uiso   1.00
C297   C     0.17488   0.36033   0.41695   0.00000  Uiso   1.00
C298   C     0.14140   0.65886   0.40727   0.00000  Uiso   1.00
C299   C     0.13617   0.49829   0.45990   0.00000  Uiso   1.00
C300   C     0.09747   0.51537   0.48139   0.00000  Uiso   1.00
C301   C     0.15743   0.47656   0.47957   0.00000  Uiso   1.00
C302   C     0.14466   0.48014   0.02155   0.00000  Uiso   1.00
C303   C     0.10260   0.49122   0.04136   0.00000  Uiso   1.00
C304   C     0.08028   0.51005   0.02161   0.00000  Uiso   1.00
F305   F     0.04122   0.52239   0.04211   0.00000  Uiso   1.00
F306   F     0.14410   0.51311   0.10233   0.00000  Uiso   1.00
F307   F     0.25669   0.43456   0.09795   0.00000  Uiso   1.00
F308   F     0.03899   0.55309   0.48165   0.00000  Uiso   1.00
F309   F     0.06964   0.55872   0.40343   0.00000  Uiso   1.00
H310   H     0.26227   0.41766   0.02316   0.00000  Uiso   1.00
H311   H     0.25519   0.65960   0.12727   0.00000  Uiso   1.00
H312   H     0.19926   0.63509   0.09010   0.00000  Uiso   1.00
H313   H     0.23448   0.34679   0.07117   0.00000  Uiso   1.00
H314   H     0.18072   0.35310   0.10200   0.00000  Uiso   1.00
H315   H     0.06902   0.43126   0.11061   0.00000  Uiso   1.00
H316   H     0.09403   0.41940   0.05931   0.00000  Uiso   1.00
H317   H     0.00191   0.44464   0.09621   0.00000  Uiso   1.00
H318   H     0.02593   0.43224   0.04405   0.00000  Uiso   1.00
H319   H     0.03434   0.36014   0.05668   0.00000  Uiso   1.00
H320   H     0.31232   0.37110   0.07220   0.00000  Uiso   1.00
H321   H     0.01653   0.52684   0.21499   0.00000  Uiso   1.00
H322   H     0.00807   0.37258   0.10868   0.00000  Uiso   1.00
H323   H     0.15894   0.40449   0.38477   0.00000  Uiso   1.00
H324   H     0.13091   0.40853   0.43601   0.00000  Uiso   1.00
H325   H     0.20681   0.35585   0.39569   0.00000  Uiso   1.00
H326   H     0.17717   0.35818   0.44720   0.00000  Uiso   1.00
H327   H     0.10930   0.66233   0.42856   0.00000  Uiso   1.00
H328   H     0.15099   0.62807   0.40931   0.00000  Uiso   1.00
H329   H     0.13913   0.65966   0.37677   0.00000  Uiso   1.00
H330   H     0.31823   0.47321   0.28512   0.00000  Uiso   1.00
H331   H     0.13044   0.33370   0.28892   0.00000  Uiso   1.00
H332   H     0.24017   0.41713   0.46354   0.00000  Uiso   1.00
H333   H     0.18493   0.49687   0.40346   0.00000  Uiso   1.00
H334   H     0.16206   0.34118   0.17381   0.00000  Uiso   1.00
H335   H     0.18546   0.62541   0.16348   0.00000  Uiso   1.00
H336   H     0.23521   0.37654   0.14000   0.00000  Uiso   1.00
O337   O     0.16667   0.50000   0.25000   0.00000  Uiso   1.00
O338   O     0.15693   0.45726   0.16625   0.00000  Uiso   1.00
O339   O     0.12687   0.53979   0.33749   0.00000  Uiso   1.00
O340   O     0.21088   0.50826   0.15877   0.00000  Uiso   1.00
O341   O     0.17198   0.49468   0.33749   0.00000  Uiso   1.00
O342   O     0.20820   0.33760   0.20289   0.00000  Uiso   1.00
O343   O     0.08137   0.48223   0.07960   0.00000  Uiso   1.00
O344   O     0.19645   0.43503   0.41970   0.00000  Uiso   1.00
O345   O     0.17849   0.41434   0.27821   0.00000  Uiso   1.00
O346   O     0.14581   0.59469   0.26767   0.00000  Uiso   1.00
O347   O     0.07452   0.46584   0.23607   0.00000  Uiso   1.00
O348   O     0.26785   0.52512   0.21805   0.00000  Uiso   1.00
O349   O     0.06990   0.52293   0.27820   0.00000  Uiso   1.00
O350   O     0.25440   0.48610   0.26767   0.00000  Uiso   1.00
O351   O     0.13800   0.40236   0.23607   0.00000  Uiso   1.00
O352   O     0.20437   0.58860   0.21805   0.00000  Uiso   1.00
Zn353  Zn    0.19244   0.47423   0.28277   0.00000  Uiso   1.00
Zn354  Zn    0.13459   0.45711   0.22257   0.00000  Uiso   1.00
Zn355  Zn    0.21166   0.52997   0.21188   0.00000  Uiso   1.00
Zn356  Zn    0.12798   0.53868   0.28277   0.00000  Uiso   1.00
C357   C     0.38581   0.49318   0.25876   0.00000  Uiso   1.00
C358   C     0.52305   0.44990   0.45926   0.00000  Uiso   1.00
C359   C     0.54820   0.43628   0.47971   0.00000  Uiso   1.00
C360   C     0.61439   0.50685   0.24123   0.00000  Uiso   1.00
C361   C     0.54136   0.44717   0.02021   0.00000  Uiso   1.00
C362   C     0.50648   0.46990   0.04174   0.00000  Uiso   1.00
C363   C     0.56916   0.43539   0.03941   0.00000  Uiso   1.00
C364   C     0.56306   0.44631   0.07977   0.00000  Uiso   1.00
C365   C     0.50304   0.48339   0.08210   0.00000  Uiso   1.00
C366   C     0.66028   0.50948   0.23768   0.00000  Uiso   1.00
C367   C     0.34047   0.49066   0.26219   0.00000  Uiso   1.00
C368   C     0.42563   0.54004   0.42151   0.00000  Uiso   1.00
C369   C     0.51156   0.65453   0.23508   0.00000  Uiso   1.00
C370   C     0.48577   0.34553   0.26241   0.00000  Uiso   1.00
C371   C     0.48916   0.38948   0.25915   0.00000  Uiso   1.00
C372   C     0.50977   0.61082   0.24088   0.00000  Uiso   1.00
C373   C     0.52128   0.47881   0.14392   0.00000  Uiso   1.00
C374   C     0.47847   0.52074   0.35639   0.00000  Uiso   1.00
C375   C     0.46406   0.52358   0.39999   0.00000  Uiso   1.00
C376   C     0.52976   0.46983   0.10116   0.00000  Uiso   1.00
C377   C     0.40945   0.53650   0.46193   0.00000  Uiso   1.00
C378   C     0.52554   0.65996   0.16942   0.00000  Uiso   1.00
C379   C     0.48671   0.50512   0.41984   0.00000  Uiso   1.00
C380   C     0.55932   0.34265   0.13342   0.00000  Uiso   1.00
C381   C     0.54225   0.33556   0.09697   0.00000  Uiso   1.00
C382   C     0.40341   0.43857   0.08070   0.00000  Uiso   1.00
C383   C     0.35870   0.42582   0.07411   0.00000  Uiso   1.00
C384   C     0.34425   0.37949   0.07822   0.00000  Uiso   1.00
C385   C     0.49620   0.40353   0.41467   0.00000  Uiso   1.00
C386   C     0.50821   0.36033   0.41695   0.00000  Uiso   1.00
C387   C     0.47473   0.65886   0.40727   0.00000  Uiso   1.00
C388   C     0.46950   0.49829   0.45990   0.00000  Uiso   1.00
C389   C     0.43080   0.51537   0.48139   0.00000  Uiso   1.00
C390   C     0.49076   0.47656   0.47957   0.00000  Uiso   1.00
C391   C     0.47799   0.48014   0.02155   0.00000  Uiso   1.00
C392   C     0.43594   0.49122   0.04136   0.00000  Uiso   1.00
C393   C     0.41362   0.51005   0.02161   0.00000  Uiso   1.00
F394   F     0.37456   0.52239   0.04211   0.00000  Uiso   1.00
F395   F     0.47744   0.51311   0.10233   0.00000  Uiso   1.00
F396   F     0.59002   0.43456   0.09795   0.00000  Uiso   1.00
F397   F     0.37233   0.55309   0.48165   0.00000  Uiso   1.00
F398   F     0.40297   0.55872   0.40343   0.00000  Uiso   1.00
H399   H     0.59560   0.41766   0.02316   0.00000  Uiso   1.00
H400   H     0.58852   0.65960   0.12727   0.00000  Uiso   1.00
H401   H     0.53260   0.63509   0.09010   0.00000  Uiso   1.00
H402   H     0.56781   0.34679   0.07117   0.00000  Uiso   1.00
H403   H     0.51405   0.35310   0.10200   0.00000  Uiso   1.00
H404   H     0.40235   0.43126   0.11061   0.00000  Uiso   1.00
H405   H     0.42736   0.41940   0.05931   0.00000  Uiso   1.00
H406   H     0.33525   0.44464   0.09621   0.00000  Uiso   1.00
H407   H     0.35927   0.43224   0.04405   0.00000  Uiso   1.00
H408   H     0.36767   0.36014   0.05668   0.00000  Uiso   1.00
H409   H     0.64565   0.37110   0.07220   0.00000  Uiso   1.00
H410   H     0.34986   0.52684   0.21499   0.00000  Uiso   1.00
H411   H     0.34140   0.37258   0.10868   0.00000  Uiso   1.00
H412   H     0.49227   0.40449   0.38477   0.00000  Uiso   1.00
H413   H     0.46425   0.40853   0.43601   0.00000  Uiso   1.00
H414   H     0.54014   0.35585   0.39569   0.00000  Uiso   1.00
H415   H     0.51050   0.35818   0.44720   0.00000  Uiso   1.00
H416   H     0.44263   0.66233   0.42856   0.00000  Uiso   1.00
H417   H     0.48433   0.62807   0.40931   0.00000  Uiso   1.00
H418   H     0.47246   0.65966   0.37677   0.00000  Uiso   1.00
H419   H     0.65156   0.47321   0.28512   0.00000  Uiso   1.00
H420   H     0.46378   0.33370   0.28892   0.00000  Uiso   1.00
H421   H     0.57350   0.41713   0.46354   0.00000  Uiso   1.00
H422   H     0.51826   0.49687   0.40346   0.00000  Uiso   1.00
H423   H     0.49540   0.34118   0.17381   0.00000  Uiso   1.00
H424   H     0.51879   0.62541   0.16348   0.00000  Uiso   1.00
H425   H     0.56854   0.37654   0.14000   0.00000  Uiso   1.00
O426   O     0.50000   0.50000   0.25000   0.00000  Uiso   1.00
O427   O     0.49027   0.45726   0.16625   0.00000  Uiso   1.00
O428   O     0.46020   0.53979   0.33749   0.00000  Uiso   1.00
O429   O     0.54421   0.50826   0.15877   0.00000  Uiso   1.00
O430   O     0.50532   0.49468   0.33749   0.00000  Uiso   1.00
O431   O     0.54154   0.33760   0.20289   0.00000  Uiso   1.00
O432   O     0.41470   0.48223   0.07960   0.00000  Uiso   1.00
O433   O     0.52979   0.43503   0.41970   0.00000  Uiso   1.00
O434   O     0.51182   0.41434   0.27821   0.00000  Uiso   1.00
O435   O     0.47914   0.59469   0.26767   0.00000  Uiso   1.00
O436   O     0.40785   0.46584   0.23607   0.00000  Uiso   1.00
O437   O     0.60119   0.52512   0.21805   0.00000  Uiso   1.00
O438   O     0.40323   0.52293   0.27820   0.00000  Uiso   1.00
O439   O     0.58773   0.48610   0.26767   0.00000  Uiso   1.00
O440   O     0.47133   0.40236   0.23607   0.00000  Uiso   1.00
O441   O     0.53771   0.58860   0.21805   0.00000  Uiso   1.00
Zn442  Zn    0.52577   0.47423   0.28277   0.00000  Uiso   1.00
Zn443  Zn    0.46792   0.45711   0.22257   0.00000  Uiso   1.00
Zn444  Zn    0.54500   0.52997   0.21188   0.00000  Uiso   1.00
Zn445  Zn    0.46131   0.53868   0.28277   0.00000  Uiso   1.00
C446   C     0.71915   0.49318   0.25876   0.00000  Uiso   1.00
C447   C     0.85638   0.44990   0.45926   0.00000  Uiso   1.00
C448   C     0.88154   0.43628   0.47971   0.00000  Uiso   1.00
C449   C     0.94772   0.50685   0.24123   0.00000  Uiso   1.00
C450   C     0.87470   0.44717   0.02021   0.00000  Uiso   1.00
C451   C     0.83981   0.46990   0.04174   0.00000  Uiso   1.00
C452   C     0.90249   0.43539   0.03941   0.00000  Uiso   1.00
C453   C     0.89639   0.44631   0.07977   0.00000  Uiso   1.00
C454   C     0.83637   0.48339   0.08210   0.00000  Uiso   1.00
C455   C     0.99361   0.50948   0.23768   0.00000  Uiso   1.00
C456   C     0.67381   0.49066   0.26219   0.00000  Uiso   1.00
C457   C     0.75896   0.54004   0.42151   0.00000  Uiso   1.00
C458   C     0.84489   0.65453   0.23508   0.00000  Uiso   1.00
C459   C     0.81910   0.34553   0.26241   0.00000  Uiso   1.00
C460   C     0.82249   0.38948   0.25915   0.00000  Uiso   1.00
C461   C     0.84310   0.61082   0.24088   0.00000  Uiso   1.00
C462   C     0.85461   0.47881   0.14392   0.00000  Uiso   1.00
C463   C     0.81180   0.52074   0.35639   0.00000  Uiso   1.00
C464   C     0.79739   0.52358   0.39999   0.00000  Uiso   1.00
C465   C     0.86309   0.46983   0.10116   0.00000  Uiso   1.00
C466   C     0.74279   0.53650   0.46193   0.00000  Uiso   1.00
C467   C     0.85887   0.65996   0.16942   0.00000  Uiso   1.00
C468   C     0.82004   0.50512   0.41984   0.00000  Uiso   1.00
C469   C     0.89265   0.34265   0.13342   0.00000  Uiso   1.00
C470   C     0.87559   0.33556   0.09697   0.00000  Uiso   1.00
C471   C     0.73674   0.43857   0.08070   0.00000  Uiso   1.00
C472   C     0.69203   0.42582   0.07411   0.00000  Uiso   1.00
C473   C     0.67758   0.37949   0.07822   0.00000  Uiso   1.00
C474   C     0.82953   0.40353   0.41467   0.00000  Uiso   1.00
C475   C     0.84155   0.36033   0.41695   0.00000  Uiso   1.00
C476   C     0.80807   0.65886   0.40727   0.00000  Uiso   1.00
C477   C     0.80283   0.49829   0.45990   0.00000  Uiso   1.00
C478   C     0.76413   0.51537   0.48139   0.00000  Uiso   1.00
C479   C     0.82409   0.47656   0.47957   0.00000  Uiso   1.00
C480   C     0.81132   0.48014   0.02155   0.00000  Uiso   1.00
C481   C     0.76927   0.49122   0.04136   0.00000  Uiso   1.00
C482   C     0.74695   0.51005   0.02161   0.00000  Uiso   1.00
F483   F     0.70789   0.52239   0.04211   0.00000  Uiso   1.00
F484   F     0.81077   0.51311   0.10233   0.00000  Uiso   1.00
F485   F     0.92336   0.43456   0.09795   0.00000  Uiso   1.00
F486   F     0.70566   0.55309   0.48165   0.00000  Uiso   1.00
F487   F     0.73631   0.55872   0.40343   0.00000  Uiso   1.00
H488   H     0.92893   0.41766   0.02316   0.00000  Uiso   1.00
H489   H     0.92186   0.65960   0.12727   0.00000  Uiso   1.00
H490   H     0.86593   0.63509   0.09010   0.00000  Uiso   1.00
H491   H     0.90115   0.34679   0.07117   0.00000  Uiso   1.00
H492   H     0.84738   0.35310   0.10200   0.00000  Uiso   1.00
H493   H     0.73568   0.43126   0.11061   0.00000  Uiso   1.00
H494   H     0.76069   0.41940   0.05931   0.00000  Uiso   1.00
H495   H     0.66858   0.44464   0.09621   0.00000  Uiso   1.00
H496   H     0.69260   0.43224   0.04405   0.00000  Uiso   1.00
H497   H     0.70100   0.36014   0.05668   0.00000  Uiso   1.00
H498   H     0.97899   0.37110   0.07220   0.00000  Uiso   1.00
H499   H     0.68319   0.52684   0.21499   0.00000  Uiso   1.00
H500   H     0.67473   0.37258   0.10868   0.00000  Uiso   1.00
H501   H     0.82561   0.40449   0.38477   0.00000  Uiso   1.00
H502   H     0.79758   0.40853   0.43601   0.00000  Uiso   1.00
H503   H     0.87348   0.35585   0.39569   0.00000  Uiso   1.00
H504   H     0.84383   0.35818   0.44720   0.00000  Uiso   1.00
H505   H     0.77597   0.66233   0.42856   0.00000  Uiso   1.00
H506   H     0.81766   0.62807   0.40931   0.00000  Uiso   1.00
H507   H     0.80580   0.65966   0.37677   0.00000  Uiso   1.00
H508   H     0.98489   0.47321   0.28512   0.00000  Uiso   1.00
H509   H     0.79711   0.33370   0.28892   0.00000  Uiso   1.00
H510   H     0.90684   0.41713   0.46354   0.00000  Uiso   1.00
H511   H     0.85160   0.49687   0.40346   0.00000  Uiso   1.00
H512   H     0.82873   0.34118   0.17381   0.00000  Uiso   1.00
H513   H     0.85212   0.62541   0.16348   0.00000  Uiso   1.00
H514   H     0.90187   0.37654   0.14000   0.00000  Uiso   1.00
O515   O     0.83333   0.50000   0.25000   0.00000  Uiso   1.00
O516   O     0.82360   0.45726   0.16625   0.00000  Uiso   1.00
O517   O     0.79354   0.53979   0.33749   0.00000  Uiso   1.00
O518   O     0.87755   0.50826   0.15877   0.00000  Uiso   1.00
O519   O     0.83865   0.49468   0.33749   0.00000  Uiso   1.00
O520   O     0.87487   0.33760   0.20289   0.00000  Uiso   1.00
O521   O     0.74803   0.48223   0.07960   0.00000  Uiso   1.00
O522   O     0.86312   0.43503   0.41970   0.00000  Uiso   1.00
O523   O     0.84515   0.41434   0.27821   0.00000  Uiso   1.00
O524   O     0.81247   0.59469   0.26767   0.00000  Uiso   1.00
O525   O     0.74119   0.46584   0.23607   0.00000  Uiso   1.00
O526   O     0.93452   0.52512   0.21805   0.00000  Uiso   1.00
O527   O     0.73656   0.52293   0.27820   0.00000  Uiso   1.00
O528   O     0.92106   0.48610   0.26767   0.00000  Uiso   1.00
O529   O     0.80467   0.40236   0.23607   0.00000  Uiso   1.00
O530   O     0.87104   0.58860   0.21805   0.00000  Uiso   1.00
Zn531  Zn    0.85910   0.47423   0.28277   0.00000  Uiso   1.00
Zn532  Zn    0.80125   0.45711   0.22257   0.00000  Uiso   1.00
Zn533  Zn    0.87833   0.52997   0.21188   0.00000  Uiso   1.00
Zn534  Zn    0.79465   0.53868   0.28277   0.00000  Uiso   1.00
C535   C     0.05248   0.82651   0.25876   0.00000  Uiso   1.00
C536   C     0.18971   0.78323   0.45926   0.00000  Uiso   1.00
C537   C     0.21487   0.76961   0.47971   0.00000  Uiso   1.00
C538   C     0.28105   0.84019   0.24123   0.00000  Uiso   1.00
C539   C     0.20803   0.78050   0.02021   0.00000  Uiso   1.00
C540   C     0.17315   0.80323   0.04174   0.00000  Uiso   1.00
C541   C     0.23582   0.76872   0.03941   0.00000  Uiso   1.00
C542   C     0.22973   0.77964   0.07977   0.00000  Uiso   1.00
C543   C     0.16971   0.81672   0.08210   0.00000  Uiso   1.00
C544   C     0.32695   0.84282   0.23768   0.00000  Uiso   1.00
C545   C     0.00714   0.82399   0.26219   0.00000  Uiso   1.00
C546   C     0.09229   0.87337   0.42151   0.00000  Uiso   1.00
C547   C     0.17822   0.98786   0.23508   0.00000  Uiso   1.00
C548   C     0.15243   0.67887   0.26241   0.00000  Uiso   1.00
C549   C     0.15583   0.72281   0.25915   0.00000  Uiso   1.00
C550   C     0.17644   0.94415   0.24088   0.00000  Uiso   1.00
C551   C     0.18794   0.81215   0.14392   0.00000  Uiso   1.00
C552   C     0.14514   0.85407   0.35639   0.00000  Uiso   1.00
C553   C     0.13073   0.85692   0.39999   0.00000  Uiso   1.00
C554   C     0.19642   0.80316   0.10116   0.00000  Uiso   1.00
C555   C     0.07612   0.86983   0.46193   0.00000  Uiso   1.00
C556   C     0.19221   0.99329   0.16942   0.00000  Uiso   1.00
C557   C     0.15338   0.83845   0.41984   0.00000  Uiso   1.00
C558   C     0.22598   0.67598   0.13342   0.00000  Uiso   1.00
C559   C     0.20892   0.66889   0.09697   0.00000  Uiso   1.00
C560   C     0.07007   0.77190   0.08070   0.00000  Uiso   1.00
C561   C     0.02537   0.75915   0.07411   0.00000  Uiso   1.00
C562   C     0.01092   0.71283   0.07822   0.00000  Uiso   1.00
C563   C     0.16287   0.73686   0.41467   0.00000  Uiso   1.00
C564   C     0.17488   0.69366   0.41695   0.00000  Uiso   1.00
C565   C     0.14140   0.99219   0.40727   0.00000  Uiso   1.00
C566   C     0.13617   0.83162   0.45990   0.00000  Uiso   1.00
C567   C     0.09747   0.84871   0.48139   0.00000  Uiso   1.00
C568   C     0.15743   0.80989   0.47957   0.00000  Uiso   1.00
C569   C     0.14466   0.81347   0.02155   0.00000  Uiso   1.00
C570   C     0.10260   0.82455   0.04136   0.00000  Uiso   1.00
C571   C     0.08028   0.84338   0.02161   0.00000  Uiso   1.00
F572   F     0.04122   0.85572   0.04211   0.00000  Uiso   1.00
F573   F     0.14410   0.84644   0.10233   0.00000  Uiso   1.00
F574   F     0.25669   0.76789   0.09795   0.00000  Uiso   1.00
F575   F     0.03899   0.88643   0.48165   0.00000  Uiso   1.00
F576   F     0.06964   0.89205   0.40343   0.00000  Uiso   1.00
H577   H     0.26227   0.75099   0.02316   0.00000  Uiso   1.00
H578   H     0.25519   0.99293   0.12727   0.00000  Uiso   1.00
H579   H     0.19926   0.96842   0.09010   0.00000  Uiso   1.00
H580   H     0.23448   0.68012   0.07117   0.00000  Uiso   1.00
H581   H     0.18072   0.68643   0.10200   0.00000  Uiso   1.00
H582   H     0.06902   0.76459   0.11061   0.00000  Uiso   1.00
H583   H     0.09403   0.75274   0.05931   0.00000  Uiso   1.00
H584   H     0.00191   0.77797   0.09621   0.00000  Uiso   1.00
H585   H     0.02593   0.76557   0.04405   0.00000  Uiso   1.00
H586   H     0.03434   0.69348   0.05668   0.00000  Uiso   1.00
H587   H     0.31232   0.70443   0.07220   0.00000  Uiso   1.00
H588   H     0.01653   0.86017   0.21499   0.00000  Uiso   1.00
H589   H     0.00807   0.70592   0.10868   0.00000  Uiso   1.00
H590   H     0.15894   0.73783   0.38477   0.00000  Uiso   1.00
H591   H     0.13091   0.74186   0.43601   0.00000  Uiso   1.00
H592   H     0.20681   0.68918   0.39569   0.00000  Uiso   1.00
H593   H     0.17717   0.69151   0.44720   0.00000  Uiso   1.00
H594   H     0.10930   0.99566   0.42856   0.00000  Uiso   1.00
H595   H     0.15099   0.96140   0.40931   0.00000  Uiso   1.00
H596   H     0.13913   0.99299   0.37677   0.00000  Uiso   1.00
H597   H     0.31823   0.80655   0.28512   0.00000  Uiso   1.00
H598   H     0.13044   0.66704   0.28892   0.00000  Uiso   1.00
H599   H     0.24017   0.75047   0.46354   0.00000  Uiso   1.00
H600   H     0.18493   0.83021   0.40346   0.00000  Uiso   1.00
H601   H     0.16206   0.67451   0.17381   0.00000  Uiso   1.00
H602   H     0.18546   0.95874   0.16348   0.00000  Uiso   1.00
H603   H     0.23521   0.70988   0.14000   0.00000  Uiso   1.00
O604   O     0.16667   0.83333   0.25000   0.00000  Uiso   1.00
O605   O     0.15693   0.79060   0.16625   0.00000  Uiso   1.00
O606   O     0.12687   0.87313   0.33749   0.00000  Uiso   1.00
O607   O     0.21088   0.84159   0.15877   0.00000  Uiso   1.00
O608   O     0.17198   0.82802   0.33749   0.00000  Uiso   1.00
O609   O     0.20820   0.67094   0.20289   0.00000  Uiso   1.00
O610   O     0.08137   0.81557   0.07960   0.00000  Uiso   1.00
O611   O     0.19645   0.76836   0.41970   0.00000  Uiso   1.00
O612   O     0.17849   0.74768   0.27821   0.00000  Uiso   1.00
O613   O     0.14581   0.92803   0.26767   0.00000  Uiso   1.00
O614   O     0.07452   0.79917   0.23607   0.00000  Uiso   1.00
O615   O     0.26785   0.85845   0.21805   0.00000  Uiso   1.00
O616   O     0.06990   0.85627   0.27820   0.00000  Uiso   1.00
O617   O     0.25440   0.81944   0.26767   0.00000  Uiso   1.00
O618   O     0.13800   0.73570   0.23607   0.00000  Uiso   1.00
O619   O     0.20437   0.92193   0.21805   0.00000  Uiso   1.00
Zn620  Zn    0.19244   0.80756   0.28277   0.00000  Uiso   1.00
Zn621  Zn    0.13459   0.79044   0.22257   0.00000  Uiso   1.00
Zn622  Zn    0.21166   0.86331   0.21188   0.00000  Uiso   1.00
Zn623  Zn    0.12798   0.87202   0.28277   0.00000  Uiso   1.00
C624   C     0.38581   0.82651   0.25876   0.00000  Uiso   1.00
C625   C     0.52305   0.78323   0.45926   0.00000  Uiso   1.00
C626   C     0.54820   0.76961   0.47971   0.00000  Uiso   1.00
C627   C     0.61439   0.84019   0.24123   0.00000  Uiso   1.00
C628   C     0.54136   0.78050   0.02021   0.00000  Uiso   1.00
C629   C     0.50648   0.80323   0.04174   0.00000  Uiso   1.00
C630   C     0.56916   0.76872   0.03941   0.00000  Uiso   1.00
C631   C     0.56306   0.77964   0.07977   0.00000  Uiso   1.00
C632   C     0.50304   0.81672   0.08210   0.00000  Uiso   1.00
C633   C     0.66028   0.84282   0.23768   0.00000  Uiso   1.00
C634   C     0.34047   0.82399   0.26219   0.00000  Uiso   1.00
C635   C     0.42563   0.87337   0.42151   0.00000  Uiso   1.00
C636   C     0.51156   0.98786   0.23508   0.00000  Uiso   1.00
C637   C     0.48577   0.67887   0.26241   0.00000  Uiso   1.00
C638   C     0.48916   0.72281   0.25915   0.00000  Uiso   1.00
C639   C     0.50977   0.94415   0.24088   0.00000  Uiso   1.00
C640   C     0.52128   0.81215   0.14392   0.00000  Uiso   1.00
C641   C     0.47847   0.85407   0.35639   0.00000  Uiso   1.00
C642   C     0.46406   0.85692   0.39999   0.00000  Uiso   1.00
C643   C     0.52976   0.80316   0.10116   0.00000  Uiso   1.00
C644   C     0.40945   0.86983   0.46193   0.00000  Uiso   1.00
C645   C     0.52554   0.99329   0.16942   0.00000  Uiso   1.00
C646   C     0.48671   0.83845   0.41984   0.00000  Uiso   1.00
C647   C     0.55932   0.67598   0.13342   0.00000  Uiso   1.00
C648   C     0.54225   0.66889   0.09697   0.00000  Uiso   1.00
C649   C     0.40341   0.77190   0.08070   0.00000  Uiso   1.00
C650   C     0.35870   0.75915   0.07411   0.00000  Uiso   1.00
C651   C     0.34425   0.71283   0.07822   0.00000  Uiso   1.00
C652   C     0.49620   0.73686   0.41467   0.00000  Uiso   1.00
C653   C     0.50821   0.69366   0.41695   0.00000  Uiso   1.00
C654   C     0.47473   0.99219   0.40727   0.00000  Uiso   1.00
C655   C     0.46950   0.83162   0.45990   0.00000  Uiso   1.00
C656   C     0.43080   0.84871   0.48139   0.00000  Uiso   1.00
C657   C     0.49076   0.80989   0.47957   0.00000  Uiso   1.00
C658   C     0.47799   0.81347   0.02155   0.00000  Uiso   1.00
C659   C     0.43594   0.82455   0.04136   0.00000  Uiso   1.00
C660   C     0.41362   0.84338   0.02161   0.00000  Uiso   1.00
F661   F     0.37456   0.85572   0.04211   0.00000  Uiso   1.00
F662   F     0.47744   0.84644   0.10233   0.00000  Uiso   1.00
F663   F     0.59002   0.76789   0.09795   0.00000  Uiso   1.00
F664   F     0.37233   0.88643   0.48165   0.00000  Uiso   1.00
F665   F     0.40297   0.89205   0.40343   0.00000  Uiso   1.00
H666   H     0.59560   0.75099   0.02316   0.00000  Uiso   1.00
H667   H     0.58852   0.99293   0.12727   0.00000  Uiso   1.00
H668   H     0.53260   0.96842   0.09010   0.00000  Uiso   1.00
H669   H     0.56781   0.68012   0.07117   0.00000  Uiso   1.00
H670   H     0.51405   0.68643   0.10200   0.00000  Uiso   1.00
H671   H     0.40235   0.76459   0.11061   0.00000  Uiso   1.00
H672   H     0.42736   0.75274   0.05931   0.00000  Uiso   1.00
H673   H     0.33525   0.77797   0.09621   0.00000  Uiso   1.00
H674   H     0.35927   0.76557   0.04405   0.00000  Uiso   1.00
H675   H     0.36767   0.69348   0.05668   0.00000  Uiso   1.00
H676   H     0.64565   0.70443   0.07220   0.00000  Uiso   1.00
H677   H     0.34986   0.86017   0.21499   0.00000  Uiso   1.00
H678   H     0.34140   0.70592   0.10868   0.00000  Uiso   1.00
H679   H     0.49227   0.73783   0.38477   0.00000  Uiso   1.00
H680   H     0.46425   0.74186   0.43601   0.00000  Uiso   1.00
H681   H     0.54014   0.68918   0.39569   0.00000  Uiso   1.00
H682   H     0.51050   0.69151   0.44720   0.00000  Uiso   1.00
H683   H     0.44263   0.99566   0.42856   0.00000  Uiso   1.00
H684   H     0.48433   0.96140   0.40931   0.00000  Uiso   1.00
H685   H     0.47246   0.99299   0.37677   0.00000  Uiso   1.00
H686   H     0.65156   0.80655   0.28512   0.00000  Uiso   1.00
H687   H     0.46378   0.66704   0.28892   0.00000  Uiso   1.00
H688   H     0.57350   0.75047   0.46354   0.00000  Uiso   1.00
H689   H     0.51826   0.83021   0.40346   0.00000  Uiso   1.00
H690   H     0.49540   0.67451   0.17381   0.00000  Uiso   1.00
H691   H     0.51879   0.95874   0.16348   0.00000  Uiso   1.00
H692   H     0.56854   0.70988   0.14000   0.00000  Uiso   1.00
O693   O     0.50000   0.83333   0.25000   0.00000  Uiso   1.00
O694   O     0.49027   0.79060   0.16625   0.00000  Uiso   1.00
O695   O     0.46020   0.87313   0.33749   0.00000  Uiso   1.00
O696   O     0.54421   0.84159   0.15877   0.00000  Uiso   1.00
O697   O     0.50532   0.82802   0.33749   0.00000  Uiso   1.00
O698   O     0.54154   0.67094   0.20289   0.00000  Uiso   1.00
O699   O     0.41470   0.81557   0.07960   0.00000  Uiso   1.00
O700   O     0.52979   0.76836   0.41970   0.00000  Uiso   1.00
O701   O     0.51182   0.74768   0.27821   0.00000  Uiso   1.00
O702   O     0.47914   0.92803   0.26767   0.00000  Uiso   1.00
O703   O     0.40785   0.79917   0.23607   0.00000  Uiso   1.00
O704   O     0.60119   0.85845   0.21805   0.00000  Uiso   1.00
O705   O     0.40323   0.85627   0.27820   0.00000  Uiso   1.00
O706   O     0.58773   0.81944   0.26767   0.00000  Uiso   1.00
O707   O     0.47133   0.73570   0.23607   0.00000  Uiso   1.00
O708   O     0.53771   0.92193   0.21805   0.00000  Uiso   1.00
Zn709  Zn    0.52577   0.80756   0.28277   0.00000  Uiso   1.00
Zn710  Zn    0.46792   0.79044   0.22257   0.00000  Uiso   1.00
Zn711  Zn    0.54500   0.86331   0.21188   0.00000  Uiso   1.00
Zn712  Zn    0.46131   0.87202   0.28277   0.00000  Uiso   1.00
C713   C     0.71915   0.82651   0.25876   0.00000  Uiso   1.00
C714   C     0.85638   0.78323   0.45926   0.00000  Uiso   1.00
C715   C     0.88154   0.76961   0.47971   0.00000  Uiso   1.00
C716   C     0.94772   0.84019   0.24123   0.00000  Uiso   1.00
C717   C     0.87470   0.78050   0.02021   0.00000  Uiso   1.00
C718   C     0.83981   0.80323   0.04174   0.00000  Uiso   1.00
C719   C     0.90249   0.76872   0.03941   0.00000  Uiso   1.00
C720   C     0.89639   0.77964   0.07977   0.00000  Uiso   1.00
C721   C     0.83637   0.81672   0.08210   0.00000  Uiso   1.00
C722   C     0.99361   0.84282   0.23768   0.00000  Uiso   1.00
C723   C     0.67381   0.82399   0.26219   0.00000  Uiso   1.00
C724   C     0.75896   0.87337   0.42151   0.00000  Uiso   1.00
C725   C     0.84489   0.98786   0.23508   0.00000  Uiso   1.00
C726   C     0.81910   0.67887   0.26241   0.00000  Uiso   1.00
C727   C     0.82249   0.72281   0.25915   0.00000  Uiso   1.00
C728   C     0.84310   0.94415   0.24088   0.00000  Uiso   1.00
C729   C     0.85461   0.81215   0.14392   0.00000  Uiso   1.00
C730   C     0.81180   0.85407   0.35639   0.00000  Uiso   1.00
C731   C     0.79739   0.85692   0.39999   0.00000  Uiso   1.00
C732   C     0.86309   0.80316   0.10116   0.00000  Uiso   1.00
C733   C     0.74279   0.86983   0.46193   0.00000  Uiso   1.00
C734   C     0.85887   0.99329   0.16942   0.00000  Uiso   1.00
C735   C     0.82004   0.83845   0.41984   0.00000  Uiso   1.00
C736   C     0.89265   0.67598   0.13342   0.00000  Uiso   1.00
C737   C     0.87559   0.66889   0.09697   0.00000  Uiso   1.00
C738   C     0.73674   0.77190   0.08070   0.00000  Uiso   1.00
C739   C     0.69203   0.75915   0.07411   0.00000  Uiso   1.00
C740   C     0.67758   0.71283   0.07822   0.00000  Uiso   1.00
C741   C     0.82953   0.73686   0.41467   0.00000  Uiso   1.00
C742   C     0.84155   0.69366   0.41695   0.00000  Uiso   1.00
C743   C     0.80807   0.99219   0.40727   0.00000  Uiso   1.00
C744   C     0.80283   0.83162   0.45990   0.00000  Uiso   1.00
C745   C     0.76413   0.84871   0.48139   0.00000  Uiso   1.00
C746   C     0.82409   0.80989   0.47957   0.00000  Uiso   1.00
C747   C     0.81132   0.81347   0.02155   0.00000  Uiso   1.00
C748   C     0.76927   0.82455   0.04136   0.00000  Uiso   1.00
C749   C     0.74695   0.84338   0.02161   0.00000  Uiso   1.00
F750   F     0.70789   0.85572   0.04211   0.00000  Uiso   1.00
F751   F     0.81077   0.84644   0.10233   0.00000  Uiso   1.00
F752   F     0.92336   0.76789   0.09795   0.00000  Uiso   1.00
F753   F     0.70566   0.88643   0.48165   0.00000  Uiso   1.00
F754   F     0.73631   0.89205   0.40343   0.00000  Uiso   1.00
H755   H     0.92893   0.75099   0.02316   0.00000  Uiso   1.00
H756   H     0.92186   0.99293   0.12727   0.00000  Uiso   1.00
H757   H     0.86593   0.96842   0.09010   0.00000  Uiso   1.00
H758   H     0.90115   0.68012   0.07117   0.00000  Uiso   1.00
H759   H     0.84738   0.68643   0.10200   0.00000  Uiso   1.00
H760   H     0.73568   0.76459   0.11061   0.00000  Uiso   1.00
H761   H     0.76069   0.75274   0.05931   0.00000  Uiso   1.00
H762   H     0.66858   0.77797   0.09621   0.00000  Uiso   1.00
H763   H     0.69260   0.76557   0.04405   0.00000  Uiso   1.00
H764   H     0.70100   0.69348   0.05668   0.00000  Uiso   1.00
H765   H     0.97899   0.70443   0.07220   0.00000  Uiso   1.00
H766   H     0.68319   0.86017   0.21499   0.00000  Uiso   1.00
H767   H     0.67473   0.70592   0.10868   0.00000  Uiso   1.00
H768   H     0.82561   0.73783   0.38477   0.00000  Uiso   1.00
H769   H     0.79758   0.74186   0.43601   0.00000  Uiso   1.00
H770   H     0.87348   0.68918   0.39569   0.00000  Uiso   1.00
H771   H     0.84383   0.69151   0.44720   0.00000  Uiso   1.00
H772   H     0.77597   0.99566   0.42856   0.00000  Uiso   1.00
H773   H     0.81766   0.96140   0.40931   0.00000  Uiso   1.00
H774   H     0.80580   0.99299   0.37677   0.00000  Uiso   1.00
H775   H     0.98489   0.80655   0.28512   0.00000  Uiso   1.00
H776   H     0.79711   0.66704   0.28892   0.00000  Uiso   1.00
H777   H     0.90684   0.75047   0.46354   0.00000  Uiso   1.00
H778   H     0.85160   0.83021   0.40346   0.00000  Uiso   1.00
H779   H     0.82873   0.67451   0.17381   0.00000  Uiso   1.00
H780   H     0.85212   0.95874   0.16348   0.00000  Uiso   1.00
H781   H     0.90187   0.70988   0.14000   0.00000  Uiso   1.00
O782   O     0.83333   0.83333   0.25000   0.00000  Uiso   1.00
O783   O     0.82360   0.79060   0.16625   0.00000  Uiso   1.00
O784   O     0.79354   0.87313   0.33749   0.00000  Uiso   1.00
O785   O     0.87755   0.84159   0.15877   0.00000  Uiso   1.00
O786   O     0.83865   0.82802   0.33749   0.00000  Uiso   1.00
O787   O     0.87487   0.67094   0.20289   0.00000  Uiso   1.00
O788   O     0.74803   0.81557   0.07960   0.00000  Uiso   1.00
O789   O     0.86312   0.76836   0.41970   0.00000  Uiso   1.00
O790   O     0.84515   0.74768   0.27821   0.00000  Uiso   1.00
O791   O     0.81247   0.92803   0.26767   0.00000  Uiso   1.00
O792   O     0.74119   0.79917   0.23607   0.00000  Uiso   1.00
O793   O     0.93452   0.85845   0.21805   0.00000  Uiso   1.00
O794   O     0.73656   0.85627   0.27820   0.00000  Uiso   1.00
O795   O     0.92106   0.81944   0.26767   0.00000  Uiso   1.00
O796   O     0.80467   0.73570   0.23607   0.00000  Uiso   1.00
O797   O     0.87104   0.92193   0.21805   0.00000  Uiso   1.00
Zn798  Zn    0.85910   0.80756   0.28277   0.00000  Uiso   1.00
Zn799  Zn    0.80125   0.79044   0.22257   0.00000  Uiso   1.00
Zn800  Zn    0.87833   0.86331   0.21188   0.00000  Uiso   1.00
Zn801  Zn    0.79465   0.87202   0.28277   0.00000  Uiso   1.00
C802   C     0.05248   0.15985   0.75876   0.00000  Uiso   1.00
C803   C     0.18971   0.11656   0.95926   0.00000  Uiso   1.00
C804   C     0.21487   0.10295   0.97971   0.00000  Uiso   1.00
C805   C     0.28105   0.17352   0.74123   0.00000  Uiso   1.00
C806   C     0.20803   0.11384   0.52021   0.00000  Uiso   1.00
C807   C     0.17315   0.13657   0.54174   0.00000  Uiso   1.00
C808   C     0.23582   0.10206   0.53941   0.00000  Uiso   1.00
C809   C     0.22973   0.11298   0.57977   0.00000  Uiso   1.00
C810   C     0.16971   0.15006   0.58210   0.00000  Uiso   1.00
C811   C     0.32695   0.17615   0.73768   0.00000  Uiso   1.00
C812   C     0.00714   0.15732   0.76219   0.00000  Uiso   1.00
C813   C     0.09229   0.20670   0.92151   0.00000  Uiso   1.00
C814   C     0.17822   0.32120   0.73508   0.00000  Uiso   1.00
C815   C     0.15243   0.01220   0.76241   0.00000  Uiso   1.00
C816   C     0.15583   0.05614   0.75915   0.00000  Uiso   1.00
C817   C     0.17644   0.27749   0.74088   0.00000  Uiso   1.00
C818   C     0.18794   0.14548   0.64392   0.00000  Uiso   1.00
C819   C     0.14514   0.18740   0.85639   0.00000  Uiso   1.00
C820   C     0.13073   0.19025   0.89999   0.00000  Uiso   1.00
C821   C     0.19642   0.13649   0.60116   0.00000  Uiso   1.00
C822   C     0.07612   0.20317   0.96193   0.00000  Uiso   1.00
C823   C     0.19221   0.32662   0.66942   0.00000  Uiso   1.00
C824   C     0.15338   0.17178   0.91984   0.00000  Uiso   1.00
C825   C     0.22598   0.00931   0.63342   0.00000  Uiso   1.00
C826   C     0.20892   0.00223   0.59697   0.00000  Uiso   1.00
C827   C     0.07007   0.10523   0.58070   0.00000  Uiso   1.00
C828   C     0.02537   0.09248   0.57411   0.00000  Uiso   1.00
C829   C     0.01092   0.04616   0.57822   0.00000  Uiso   1.00
C830   C     0.16287   0.07020   0.91467   0.00000  Uiso   1.00
C831   C     0.17488   0.02699   0.91695   0.00000  Uiso   1.00
C832   C     0.14140   0.32552   0.90727   0.00000  Uiso   1.00
C833   C     0.13617   0.16495   0.95990   0.00000  Uiso   1.00
C834   C     0.09747   0.18204   0.98139   0.00000  Uiso   1.00
C835   C     0.15743   0.14323   0.97957   0.00000  Uiso   1.00
C836   C     0.14466   0.14681   0.52155   0.00000  Uiso   1.00
C837   C     0.10260   0.15789   0.54136   0.00000  Uiso   1.00
C838   C     0.08028   0.17672   0.52161   0.00000  Uiso   1.00
F839   F     0.04122   0.18905   0.54211   0.00000  Uiso   1.00
F840   F     0.14410   0.17978   0.60233   0.00000  Uiso   1.00
F841   F     0.25669   0.10122   0.59795   0.00000  Uiso   1.00
F842   F     0.03899   0.21976   0.98165   0.00000  Uiso   1.00
F843   F     0.06964   0.22538   0.90343   0.00000  Uiso   1.00
H844   H     0.26227   0.08433   0.52316   0.00000  Uiso   1.00
H845   H     0.25519   0.32627   0.62727   0.00000  Uiso   1.00
H846   H     0.19926   0.30176   0.59010   0.00000  Uiso   1.00
H847   H     0.23448   0.01345   0.57117   0.00000  Uiso   1.00
H848   H     0.18072   0.01977   0.60200   0.00000  Uiso   1.00
H849   H     0.06902   0.09792   0.61061   0.00000  Uiso   1.00
H850   H     0.09403   0.08607   0.55931   0.00000  Uiso   1.00
H851   H     0.00191   0.11130   0.59621   0.00000  Uiso   1.00
H852   H     0.02593   0.09891   0.54405   0.00000  Uiso   1.00
H853   H     0.03434   0.02681   0.55668   0.00000  Uiso   1.00
H854   H     0.31232   0.03776   0.57220   0.00000  Uiso   1.00
H855   H     0.01653   0.19350   0.71499   0.00000  Uiso   1.00
H856   H     0.00807   0.03925   0.60868   0.00000  Uiso   1.00
H857   H     0.15894   0.07116   0.88477   0.00000  Uiso   1.00
H858   H     0.13091   0.07520   0.93601   0.00000  Uiso   1.00
H859   H     0.20681   0.02252   0.89569   0.00000  Uiso   1.00
H860   H     0.17717   0.02484   0.94720   0.00000  Uiso   1.00
H861   H     0.10930   0.32900   0.92856   0.00000  Uiso   1.00
H862   H     0.15099   0.29473   0.90931   0.00000  Uiso   1.00
H863   H     0.13913   0.32632   0.87677   0.00000  Uiso   1.00
H864   H     0.31823   0.13988   0.78512   0.00000  Uiso   1.00
H865   H     0.13044   0.00037   0.78892   0.00000  Uiso   1.00
H866   H     0.24017   0.08380   0.96354   0.00000  Uiso   1.00
H867   H     0.18493   0.16354   0.90346   0.00000  Uiso   1.00
H868   H     0.16206   0.00785   0.67381   0.00000  Uiso   1.00
H869   H     0.18546   0.29207   0.66348   0.00000  Uiso   1.00
H870   H     0.23521   0.04321   0.64000   0.00000  Uiso   1.00
O871   O     0.16667   0.16667   0.75000   0.00000  Uiso   1.00
O872   O     0.15693   0.12393   0.66625   0.00000  Uiso   1.00
O873   O     0.12687   0.20646   0.83749   0.00000  Uiso   1.00
O874   O     0.21088   0.17493   0.65877   0.00000  Uiso   1.00
O875   O     0.17198   0.16135   0.83749   0.00000  Uiso   1.00
O876   O     0.20820   0.00427   0.70289   0.00000  Uiso   1.00
O877   O     0.08137   0.14890   0.57960   0.00000  Uiso   1.00
O878   O     0.19645   0.10170   0.91970   0.00000  Uiso   1.00
O879   O     0.17849   0.08101   0.77821   0.00000  Uiso   1.00
O880   O     0.14581   0.26136   0.76767   0.00000  Uiso   1.00
O881   O     0.07452   0.13251   0.73607   0.00000  Uiso   1.00
O882   O     0.26785   0.19179   0.71805   0.00000  Uiso   1.00
O883   O     0.06990   0.18960   0.77820   0.00000  Uiso   1.00
O884   O     0.25440   0.15277   0.76767   0.00000  Uiso   1.00
O885   O     0.13800   0.06903   0.73607   0.00000  Uiso   1.00
O886   O     0.20437   0.25527   0.71805   0.00000  Uiso   1.00
Zn887  Zn    0.19244   0.14090   0.78277   0.00000  Uiso   1.00
Zn888  Zn    0.13459   0.12378   0.72257   0.00000  Uiso   1.00
Zn889  Zn    0.21166   0.19664   0.71188   0.00000  Uiso   1.00
Zn890  Zn    0.12798   0.20535   0.78277   0.00000  Uiso   1.00
C891   C     0.38581   0.15985   0.75876   0.00000  Uiso   1.00
C892   C     0.52305   0.11656   0.95926   0.00000  Uiso   1.00
C893   C     0.54820   0.10295   0.97971   0.00000  Uiso   1.00
C894   C     0.61439   0.17352   0.74123   0.00000  Uiso   1.00
C895   C     0.54136   0.11384   0.52021   0.00000  Uiso   1.00
C896   C     0.50648   0.13657   0.54174   0.00000  Uiso   1.00
C897   C     0.56916   0.10206   0.53941   0.00000  Uiso   1.00
C898   C     0.56306   0.11298   0.57977   0.00000  Uiso   1.00
C899   C     0.50304   0.15006   0.58210   0.00000  Uiso   1.00
C900   C     0.66028   0.17615   0.73768   0.00000  Uiso   1.00
C901   C     0.34047   0.15732   0.76219   0.00000  Uiso   1.00
C902   C     0.42563   0.20670   0.92151   0.00000  Uiso   1.00
C903   C     0.51156   0.32120   0.73508   0.00000  Uiso   1.00
C904   C     0.48577   0.01220   0.76241   0.00000  Uiso   1.00
C905   C     0.48916   0.05614   0.75915   0.00000  Uiso   1.00
C906   C     0.50977   0.27749   0.74088   0.00000  Uiso   1.00
C907   C     0.52128   0.14548   0.64392   0.00000  Uiso   1.00
C908   C     0.47847   0.18740   0.85639   0.00000  Uiso   1.00
C909   C     0.46406   0.19025   0.89999   0.00000  Uiso   1.00
C910   C     0.52976   0.13649   0.60116   0.00000  Uiso   1.00
C911   C     0.40945   0.20317   0.96193   0.00000  Uiso   1.00
C912   C     0.52554   0.32662   0.66942   0.00000  Uiso   1.00
C913   C     0.48671   0.17178   0.91984   0.00000  Uiso   1.00
C914   C     0.55932   0.00931   0.63342   0.00000  Uiso   1.00
C915   C     0.54225   0.00223   0.59697   0.00000  Uiso   1.00
C916   C     0.40341   0.10523   0.58070   0.00000  Uiso   1.00
C917   C     0.35870   0.09248   0.57411   0.00000  Uiso   1.00
C918   C     0.34425   0.04616   0.57822   0.00000  Uiso   1.00
C919   C     0.49620   0.07020   0.91467   0.00000  Uiso   1.00
C920   C     0.50821   0.02699   0.91695   0.00000  Uiso   1.00
C921   C     0.47473   0.32552   0.90727   0.00000  Uiso   1.00
C922   C     0.46950   0.16495   0.95990   0.00000  Uiso   1.00
C923   C     0.43080   0.18204   0.98139   0.00000  Uiso   1.00
C924   C     0.49076   0.14323   0.97957   0.00000  Uiso   1.00
C925   C     0.47799   0.14681   0.52155   0.00000  Uiso   1.00
C926   C     0.43594   0.15789   0.54136   0.00000  Uiso   1.00
C927   C     0.41362   0.17672   0.52161   0.00000  Uiso   1.00
F928   F     0.37456   0.18905   0.54211   0.00000  Uiso   1.00
F929   F     0.47744   0.17978   0.60233   0.00000  Uiso   1.00
F930   F     0.59002   0.10122   0.59795   0.00000  Uiso   1.00
F931   F     0.37233   0.21976   0.98165   0.00000  Uiso   1.00
F932   F     0.40297   0.22538   0.90343   0.00000  Uiso   1.00
H933   H     0.59560   0.08433   0.52316   0.00000  Uiso   1.00
H934   H     0.58852   0.32627   0.62727   0.00000  Uiso   1.00
H935   H     0.53260   0.30176   0.59010   0.00000  Uiso   1.00
H936   H     0.56781   0.01345   0.57117   0.00000  Uiso   1.00
H937   H     0.51405   0.01977   0.60200   0.00000  Uiso   1.00
H938   H     0.40235   0.09792   0.61061   0.00000  Uiso   1.00
H939   H     0.42736   0.08607   0.55931   0.00000  Uiso   1.00
H940   H     0.33525   0.11130   0.59621   0.00000  Uiso   1.00
H941   H     0.35927   0.09891   0.54405   0.00000  Uiso   1.00
H942   H     0.36767   0.02681   0.55668   0.00000  Uiso   1.00
H943   H     0.64565   0.03776   0.57220   0.00000  Uiso   1.00
H944   H     0.34986   0.19350   0.71499   0.00000  Uiso   1.00
H945   H     0.34140   0.03925   0.60868   0.00000  Uiso   1.00
H946   H     0.49227   0.07116   0.88477   0.00000  Uiso   1.00
H947   H     0.46425   0.07520   0.93601   0.00000  Uiso   1.00
H948   H     0.54014   0.02252   0.89569   0.00000  Uiso   1.00
H949   H     0.51050   0.02484   0.94720   0.00000  Uiso   1.00
H950   H     0.44263   0.32900   0.92856   0.00000  Uiso   1.00
H951   H     0.48433   0.29473   0.90931   0.00000  Uiso   1.00
H952   H     0.47246   0.32632   0.87677   0.00000  Uiso   1.00
H953   H     0.65156   0.13988   0.78512   0.00000  Uiso   1.00
H954   H     0.46378   0.00037   0.78892   0.00000  Uiso   1.00
H955   H     0.57350   0.08380   0.96354   0.00000  Uiso   1.00
H956   H     0.51826   0.16354   0.90346   0.00000  Uiso   1.00
H957   H     0.49540   0.00785   0.67381   0.00000  Uiso   1.00
H958   H     0.51879   0.29207   0.66348   0.00000  Uiso   1.00
H959   H     0.56854   0.04321   0.64000   0.00000  Uiso   1.00
O960   O     0.50000   0.16667   0.75000   0.00000  Uiso   1.00
O961   O     0.49027   0.12393   0.66625   0.00000  Uiso   1.00
O962   O     0.46020   0.20646   0.83749   0.00000  Uiso   1.00
O963   O     0.54421   0.17493   0.65877   0.00000  Uiso   1.00
O964   O     0.50532   0.16135   0.83749   0.00000  Uiso   1.00
O965   O     0.54154   0.00427   0.70289   0.00000  Uiso   1.00
O966   O     0.41470   0.14890   0.57960   0.00000  Uiso   1.00
O967   O     0.52979   0.10170   0.91970   0.00000  Uiso   1.00
O968   O     0.51182   0.08101   0.77821   0.00000  Uiso   1.00
O969   O     0.47914   0.26136   0.76767   0.00000  Uiso   1.00
O970   O     0.40785   0.13251   0.73607   0.00000  Uiso   1.00
O971   O     0.60119   0.19179   0.71805   0.00000  Uiso   1.00
O972   O     0.40323   0.18960   0.77820   0.00000  Uiso   1.00
O973   O     0.58773   0.15277   0.76767   0.00000  Uiso   1.00
O974   O     0.47133   0.06903   0.73607   0.00000  Uiso   1.00
O975   O     0.53771   0.25527   0.71805   0.00000  Uiso   1.00
Zn976  Zn    0.52577   0.14090   0.78277   0.00000  Uiso   1.00
Zn977  Zn    0.46792   0.12378   0.72257   0.00000  Uiso   1.00
Zn978  Zn    0.54500   0.19664   0.71188   0.00000  Uiso   1.00
Zn979  Zn    0.46131   0.20535   0.78277   0.00000  Uiso   1.00
C980   C     0.71915   0.15985   0.75876   0.00000  Uiso   1.00
C981   C     0.85638   0.11656   0.95926   0.00000  Uiso   1.00
C982   C     0.88154   0.10295   0.97971   0.00000  Uiso   1.00
C983   C     0.94772   0.17352   0.74123   0.00000  Uiso   1.00
C984   C     0.87470   0.11384   0.52021   0.00000  Uiso   1.00
C985   C     0.83981   0.13657   0.54174   0.00000  Uiso   1.00
C986   C     0.90249   0.10206   0.53941   0.00000  Uiso   1.00
C987   C     0.89639   0.11298   0.57977   0.00000  Uiso   1.00
C988   C     0.83637   0.15006   0.58210   0.00000  Uiso   1.00
C989   C     0.99361   0.17615   0.73768   0.00000  Uiso   1.00
C990   C     0.67381   0.15732   0.76219   0.00000  Uiso   1.00
C991   C     0.75896   0.20670   0.92151   0.00000  Uiso   1.00
C992   C     0.84489   0.32120   0.73508   0.00000  Uiso   1.00
C993   C     0.81910   0.01220   0.76241   0.00000  Uiso   1.00
C994   C     0.82249   0.05614   0.75915   0.00000  Uiso   1.00
C995   C     0.84310   0.27749   0.74088   0.00000  Uiso   1.00
C996   C     0.85461   0.14548   0.64392   0.00000  Uiso   1.00
C997   C     0.81180   0.18740   0.85639   0.00000  Uiso   1.00
C998   C     0.79739   0.19025   0.89999   0.00000  Uiso   1.00
C999   C     0.86309   0.13649   0.60116   0.00000  Uiso   1.00
C1000  C     0.74279   0.20317   0.96193   0.00000  Uiso   1.00
C1001  C     0.85887   0.32662   0.66942   0.00000  Uiso   1.00
C1002  C     0.82004   0.17178   0.91984   0.00000  Uiso   1.00
C1003  C     0.89265   0.00931   0.63342   0.00000  Uiso   1.00
C1004  C     0.87559   0.00223   0.59697   0.00000  Uiso   1.00
C1005  C     0.73674   0.10523   0.58070   0.00000  Uiso   1.00
C1006  C     0.69203   0.09248   0.57411   0.00000  Uiso   1.00
C1007  C     0.67758   0.04616   0.57822   0.00000  Uiso   1.00
C1008  C     0.82953   0.07020   0.91467   0.00000  Uiso   1.00
C1009  C     0.84155   0.02699   0.91695   0.00000  Uiso   1.00
C1010  C     0.80807   0.32552   0.90727   0.00000  Uiso   1.00
C1011  C     0.80283   0.16495   0.95990   0.00000  Uiso   1.00
C1012  C     0.76413   0.18204   0.98139   0.00000  Uiso   1.00
C1013  C     0.82409   0.14323   0.97957   0.00000  Uiso   1.00
C1014  C     0.81132   0.14681   0.52155   0.00000  Uiso   1.00
C1015  C     0.76927   0.15789   0.54136   0.00000  Uiso   1.00
C1016  C     0.74695   0.17672   0.52161   0.00000  Uiso   1.00
F1017  F     0.70789   0.18905   0.54211   0.00000  Uiso   1.00
F1018  F     0.81077   0.17978   0.60233   0.00000  Uiso   1.00
F1019  F     0.92336   0.10122   0.59795   0.00000  Uiso   1.00
F1020  F     0.70566   0.21976   0.98165   0.00000  Uiso   1.00
F1021  F     0.73631   0.22538   0.90343   0.00000  Uiso   1.00
H1022  H     0.92893   0.08433   0.52316   0.00000  Uiso   1.00
H1023  H     0.92186   0.32627   0.62727   0.00000  Uiso   1.00
H1024  H     0.86593   0.30176   0.59010   0.00000  Uiso   1.00
H1025  H     0.90115   0.01345   0.57117   0.00000  Uiso   1.00
H1026  H     0.84738   0.01977   0.60200   0.00000  Uiso   1.00
H1027  H     0.73568   0.09792   0.61061   0.00000  Uiso   1.00
H1028  H     0.76069   0.08607   0.55931   0.00000  Uiso   1.00
H1029  H     0.66858   0.11130   0.59621   0.00000  Uiso   1.00
H1030  H     0.69260   0.09891   0.54405   0.00000  Uiso   1.00
H1031  H     0.70100   0.02681   0.55668   0.00000  Uiso   1.00
H1032  H     0.97899   0.03776   0.57220   0.00000  Uiso   1.00
H1033  H     0.68319   0.19350   0.71499   0.00000  Uiso   1.00
H1034  H     0.67473   0.03925   0.60868   0.00000  Uiso   1.00
H1035  H     0.82561   0.07116   0.88477   0.00000  Uiso   1.00
H1036  H     0.79758   0.07520   0.93601   0.00000  Uiso   1.00
H1037  H     0.87348   0.02252   0.89569   0.00000  Uiso   1.00
H1038  H     0.84383   0.02484   0.94720   0.00000  Uiso   1.00
H1039  H     0.77597   0.32900   0.92856   0.00000  Uiso   1.00
H1040  H     0.81766   0.29473   0.90931   0.00000  Uiso   1.00
H1041  H     0.80580   0.32632   0.87677   0.00000  Uiso   1.00
H1042  H     0.98489   0.13988   0.78512   0.00000  Uiso   1.00
H1043  H     0.79711   0.00037   0.78892   0.00000  Uiso   1.00
H1044  H     0.90684   0.08380   0.96354   0.00000  Uiso   1.00
H1045  H     0.85160   0.16354   0.90346   0.00000  Uiso   1.00
H1046  H     0.82873   0.00785   0.67381   0.00000  Uiso   1.00
H1047  H     0.85212   0.29207   0.66348   0.00000  Uiso   1.00
H1048  H     0.90187   0.04321   0.64000   0.00000  Uiso   1.00
O1049  O     0.83333   0.16667   0.75000   0.00000  Uiso   1.00
O1050  O     0.82360   0.12393   0.66625   0.00000  Uiso   1.00
O1051  O     0.79354   0.20646   0.83749   0.00000  Uiso   1.00
O1052  O     0.87755   0.17493   0.65877   0.00000  Uiso   1.00
O1053  O     0.83865   0.16135   0.83749   0.00000  Uiso   1.00
O1054  O     0.87487   0.00427   0.70289   0.00000  Uiso   1.00
O1055  O     0.74803   0.14890   0.57960   0.00000  Uiso   1.00
O1056  O     0.86312   0.10170   0.91970   0.00000  Uiso   1.00
O1057  O     0.84515   0.08101   0.77821   0.00000  Uiso   1.00
O1058  O     0.81247   0.26136   0.76767   0.00000  Uiso   1.00
O1059  O     0.74119   0.13251   0.73607   0.00000  Uiso   1.00
O1060  O     0.93452   0.19179   0.71805   0.00000  Uiso   1.00
O1061  O     0.73656   0.18960   0.77820   0.00000  Uiso   1.00
O1062  O     0.92106   0.15277   0.76767   0.00000  Uiso   1.00
O1063  O     0.80467   0.06903   0.73607   0.00000  Uiso   1.00
O1064  O     0.87104   0.25527   0.71805   0.00000  Uiso   1.00
Zn1065 Zn    0.85910   0.14090   0.78277   0.00000  Uiso   1.00
Zn1066 Zn    0.80125   0.12378   0.72257   0.00000  Uiso   1.00
Zn1067 Zn    0.87833   0.19664   0.71188   0.00000  Uiso   1.00
Zn1068 Zn    0.79465   0.20535   0.78277   0.00000  Uiso   1.00
C1069  C     0.05248   0.49318   0.75876   0.00000  Uiso   1.00
C1070  C     0.18971   0.44990   0.95926   0.00000  Uiso   1.00
C1071  C     0.21487   0.43628   0.97971   0.00000  Uiso   1.00
C1072  C     0.28105   0.50685   0.74123   0.00000  Uiso   1.00
C1073  C     0.20803   0.44717   0.52021   0.00000  Uiso   1.00
C1074  C     0.17315   0.46990   0.54174   0.00000  Uiso   1.00
C1075  C     0.23582   0.43539   0.53941   0.00000  Uiso   1.00
C1076  C     0.22973   0.44631   0.57977   0.00000  Uiso   1.00
C1077  C     0.16971   0.48339   0.58210   0.00000  Uiso   1.00
C1078  C     0.32695   0.50948   0.73768   0.00000  Uiso   1.00
C1079  C     0.00714   0.49066   0.76219   0.00000  Uiso   1.00
C1080  C     0.09229   0.54004   0.92151   0.00000  Uiso   1.00
C1081  C     0.17822   0.65453   0.73508   0.00000  Uiso   1.00
C1082  C     0.15243   0.34553   0.76241   0.00000  Uiso   1.00
C1083  C     0.15583   0.38948   0.75915   0.00000  Uiso   1.00
C1084  C     0.17644   0.61082   0.74088   0.00000  Uiso   1.00
C1085  C     0.18794   0.47881   0.64392   0.00000  Uiso   1.00
C1086  C     0.14514   0.52074   0.85639   0.00000  Uiso   1.00
C1087  C     0.13073   0.52358   0.89999   0.00000  Uiso   1.00
C1088  C     0.19642   0.46983   0.60116   0.00000  Uiso   1.00
C1089  C     0.07612   0.53650   0.96193   0.00000  Uiso   1.00
C1090  C     0.19221   0.65996   0.66942   0.00000  Uiso   1.00
C1091  C     0.15338   0.50512   0.91984   0.00000  Uiso   1.00
C1092  C     0.22598   0.34265   0.63342   0.00000  Uiso   1.00
C1093  C     0.20892   0.33556   0.59697   0.00000  Uiso   1.00
C1094  C     0.07007   0.43857   0.58070   0.00000  Uiso   1.00
C1095  C     0.02537   0.42582   0.57411   0.00000  Uiso   1.00
C1096  C     0.01092   0.37949   0.57822   0.00000  Uiso   1.00
C1097  C     0.16287   0.40353   0.91467   0.00000  Uiso   1.00
C1098  C     0.17488   0.36033   0.91695   0.00000  Uiso   1.00
C1099  C     0.14140   0.65886   0.90727   0.00000  Uiso   1.00
C1100  C     0.13617   0.49829   0.95990   0.00000  Uiso   1.00
C1101  C     0.09747   0.51537   0.98139   0.00000  Uiso   1.00
C1102  C     0.15743   0.47656   0.97957   0.00000  Uiso   1.00
C1103  C     0.14466   0.48014   0.52155   0.00000  Uiso   1.00
C1104  C     0.10260   0.49122   0.54136   0.00000  Uiso   1.00
C1105  C     0.08028   0.51005   0.52161   0.00000  Uiso   1.00
F1106  F     0.04122   0.52239   0.54211   0.00000  Uiso   1.00
F1107  F     0.14410   0.51311   0.60233   0.00000  Uiso   1.00
F1108  F     0.25669   0.43456   0.59795   0.00000  Uiso   1.00
F1109  F     0.03899   0.55309   0.98165   0.00000  Uiso   1.00
F1110  F     0.06964   0.55872   0.90343   0.00000  Uiso   1.00
H1111  H     0.26227   0.41766   0.52316   0.00000  Uiso   1.00
H1112  H     0.25519   0.65960   0.62727   0.00000  Uiso   1.00
H1113  H     0.19926   0.63509   0.59010   0.00000  Uiso   1.00
H1114  H     0.23448   0.34679   0.57117   0.00000  Uiso   1.00
H1115  H     0.18072   0.35310   0.60200   0.00000  Uiso   1.00
H1116  H     0.06902   0.43126   0.61061   0.00000  Uiso   1.00
H1117  H     0.09403   0.41940   0.55931   0.00000  Uiso   1.00
H1118  H     0.00191   0.44464   0.59621   0.00000  Uiso   1.00
H1119  H     0.02593   0.43224   0.54405   0.00000  Uiso   1.00
H1120  H     0.03434   0.36014   0.55668   0.00000  Uiso   1.00
H1121  H     0.31232   0.37110   0.57220   0.00000  Uiso   1.00
H1122  H     0.01653   0.52684   0.71499   0.00000  Uiso   1.00
H1123  H     0.00807   0.37258   0.60868   0.00000  Uiso   1.00
H1124  H     0.15894   0.40449   0.88477   0.00000  Uiso   1.00
H1125  H     0.13091   0.40853   0.93601   0.00000  Uiso   1.00
H1126  H     0.20681   0.35585   0.89569   0.00000  Uiso   1.00
H1127  H     0.17717   0.35818   0.94720   0.00000  Uiso   1.00
H1128  H     0.10930   0.66233   0.92856   0.00000  Uiso   1.00
H1129  H     0.15099   0.62807   0.90931   0.00000  Uiso   1.00
H1130  H     0.13913   0.65966   0.87677   0.00000  Uiso   1.00
H1131  H     0.31823   0.47321   0.78512   0.00000  Uiso   1.00
H1132  H     0.13044   0.33370   0.78892   0.00000  Uiso   1.00
H1133  H     0.24017   0.41713   0.96354   0.00000  Uiso   1.00
H1134  H     0.18493   0.49687   0.90346   0.00000  Uiso   1.00
H1135  H     0.16206   0.34118   0.67381   0.00000  Uiso   1.00
H1136  H     0.18546   0.62541   0.66348   0.00000  Uiso   1.00
H1137  H     0.23521   0.37654   0.64000   0.00000  Uiso   1.00
O1138  O     0.16667   0.50000   0.75000   0.00000  Uiso   1.00
O1139  O     0.15693   0.45726   0.66625   0.00000  Uiso   1.00
O1140  O     0.12687   0.53979   0.83749   0.00000  Uiso   1.00
O1141  O     0.21088   0.50826   0.65877   0.00000  Uiso   1.00
O1142  O     0.17198   0.49468   0.83749   0.00000  Uiso   1.00
O1143  O     0.20820   0.33760   0.70289   0.00000  Uiso   1.00
O1144  O     0.08137   0.48223   0.57960   0.00000  Uiso   1.00
O1145  O     0.19645   0.43503   0.91970   0.00000  Uiso   1.00
O1146  O     0.17849   0.41434   0.77821   0.00000  Uiso   1.00
O1147  O     0.14581   0.59469   0.76767   0.00000  Uiso   1.00
O1148  O     0.07452   0.46584   0.73607   0.00000  Uiso   1.00
O1149  O     0.26785   0.52512   0.71805   0.00000  Uiso   1.00
O1150  O     0.06990   0.52293   0.77820   0.00000  Uiso   1.00
O1151  O     0.25440   0.48610   0.76767   0.00000  Uiso   1.00
O1152  O     0.13800   0.40236   0.73607   0.00000  Uiso   1.00
O1153  O     0.20437   0.58860   0.71805   0.00000  Uiso   1.00
Zn1154 Zn    0.19244   0.47423   0.78277   0.00000  Uiso   1.00
Zn1155 Zn    0.13459   0.45711   0.72257   0.00000  Uiso   1.00
Zn1156 Zn    0.21166   0.52997   0.71188   0.00000  Uiso   1.00
Zn1157 Zn    0.12798   0.53868   0.78277   0.00000  Uiso   1.00
C1158  C     0.38581   0.49318   0.75876   0.00000  Uiso   1.00
C1159  C     0.52305   0.44990   0.95926   0.00000  Uiso   1.00
C1160  C     0.54820   0.43628   0.97971   0.00000  Uiso   1.00
C1161  C     0.61439   0.50685   0.74123   0.00000  Uiso   1.00
C1162  C     0.54136   0.44717   0.52021   0.00000  Uiso   1.00
C1163  C     0.50648   0.46990   0.54174   0.00000  Uiso   1.00
C1164  C     0.56916   0.43539   0.53941   0.00000  Uiso   1.00
C1165  C     0.56306   0.44631   0.57977   0.00000  Uiso   1.00
C1166  C     0.50304   0.48339   0.58210   0.00000  Uiso   1.00
C1167  C     0.66028   0.50948   0.73768   0.00000  Uiso   1.00
C1168  C     0.34047   0.49066   0.76219   0.00000  Uiso   1.00
C1169  C     0.42563   0.54004   0.92151   0.00000  Uiso   1.00
C1170  C     0.51156   0.65453   0.73508   0.00000  Uiso   1.00
C1171  C     0.48577   0.34553   0.76241   0.00000  Uiso   1.00
C1172  C     0.48916   0.38948   0.75915   0.00000  Uiso   1.00
C1173  C     0.50977   0.61082   0.74088   0.00000  Uiso   1.00
C1174  C     0.52128   0.47881   0.64392   0.00000  Uiso   1.00
C1175  C     0.47847   0.52074   0.85639   0.00000  Uiso   1.00
C1176  C     0.46406   0.52358   0.89999   0.00000  Uiso   1.00
C1177  C     0.52976   0.46983   0.60116   0.00000  Uiso   1.00
C1178  C     0.40945   0.53650   0.96193   0.00000  Uiso   1.00
C1179  C     0.52554   0.65996   0.66942   0.00000  Uiso   1.00
C1180  C     0.48671   0.50512   0.91984   0.00000  Uiso   1.00
C1181  C     0.55932   0.34265   0.63342   0.00000  Uiso   1.00
C1182  C     0.54225   0.33556   0.59697   0.00000  Uiso   1.00
C1183  C     0.40341   0.43857   0.58070   0.00000  Uiso   1.00
C1184  C     0.35870   0.42582   0.57411   0.00000  Uiso   1.00
C1185  C     0.34425   0.37949   0.57822   0.00000  Uiso   1.00
C1186  C     0.49620   0.40353   0.91467   0.00000  Uiso   1.00
C1187  C     0.50821   0.36033   0.91695   0.00000  Uiso   1.00
C1188  C     0.47473   0.65886   0.90727   0.00000  Uiso   1.00
C1189  C     0.46950   0.49829   0.95990   0.00000  Uiso   1.00
C1190  C     0.43080   0.51537   0.98139   0.00000  Uiso   1.00
C1191  C     0.49076   0.47656   0.97957   0.00000  Uiso   1.00
C1192  C     0.47799   0.48014   0.52155   0.00000  Uiso   1.00
C1193  C     0.43594   0.49122   0.54136   0.00000  Uiso   1.00
C1194  C     0.41362   0.51005   0.52161   0.00000  Uiso   1.00
F1195  F     0.37456   0.52239   0.54211   0.00000  Uiso   1.00
F1196  F     0.47744   0.51311   0.60233   0.00000  Uiso   1.00
F1197  F     0.59002   0.43456   0.59795   0.00000  Uiso   1.00
F1198  F     0.37233   0.55309   0.98165   0.00000  Uiso   1.00
F1199  F     0.40297   0.55872   0.90343   0.00000  Uiso   1.00
H1200  H     0.59560   0.41766   0.52316   0.00000  Uiso   1.00
H1201  H     0.58852   0.65960   0.62727   0.00000  Uiso   1.00
H1202  H     0.53260   0.63509   0.59010   0.00000  Uiso   1.00
H1203  H     0.56781   0.34679   0.57117   0.00000  Uiso   1.00
H1204  H     0.51405   0.35310   0.60200   0.00000  Uiso   1.00
H1205  H     0.40235   0.43126   0.61061   0.00000  Uiso   1.00
H1206  H     0.42736   0.41940   0.55931   0.00000  Uiso   1.00
H1207  H     0.33525   0.44464   0.59621   0.00000  Uiso   1.00
H1208  H     0.35927   0.43224   0.54405   0.00000  Uiso   1.00
H1209  H     0.36767   0.36014   0.55668   0.00000  Uiso   1.00
H1210  H     0.64565   0.37110   0.57220   0.00000  Uiso   1.00
H1211  H     0.34986   0.52684   0.71499   0.00000  Uiso   1.00
H1212  H     0.34140   0.37258   0.60868   0.00000  Uiso   1.00
H1213  H     0.49227   0.40449   0.88477   0.00000  Uiso   1.00
H1214  H     0.46425   0.40853   0.93601   0.00000  Uiso   1.00
H1215  H     0.54014   0.35585   0.89569   0.00000  Uiso   1.00
H1216  H     0.51050   0.35818   0.94720   0.00000  Uiso   1.00
H1217  H     0.44263   0.66233   0.92856   0.00000  Uiso   1.00
H1218  H     0.48433   0.62807   0.90931   0.00000  Uiso   1.00
H1219  H     0.47246   0.65966   0.87677   0.00000  Uiso   1.00
H1220  H     0.65156   0.47321   0.78512   0.00000  Uiso   1.00
H1221  H     0.46378   0.33370   0.78892   0.00000  Uiso   1.00
H1222  H     0.57350   0.41713   0.96354   0.00000  Uiso   1.00
H1223  H     0.51826   0.49687   0.90346   0.00000  Uiso   1.00
H1224  H     0.49540   0.34118   0.67381   0.00000  Uiso   1.00
H1225  H     0.51879   0.62541   0.66348   0.00000  Uiso   1.00
H1226  H     0.56854   0.37654   0.64000   0.00000  Uiso   1.00
O1227  O     0.50000   0.50000   0.75000   0.00000  Uiso   1.00
O1228  O     0.49027   0.45726   0.66625   0.00000  Uiso   1.00
O1229  O     0.46020   0.53979   0.83749   0.00000  Uiso   1.00
O1230  O     0.54421   0.50826   0.65877   0.00000  Uiso   1.00
O1231  O     0.50532   0.49468   0.83749   0.00000  Uiso   1.00
O1232  O     0.54154   0.33760   0.70289   0.00000  Uiso   1.00
O1233  O     0.41470   0.48223   0.57960   0.00000  Uiso   1.00
O1234  O     0.52979   0.43503   0.91970   0.00000  Uiso   1.00
O1235  O     0.51182   0.41434   0.77821   0.00000  Uiso   1.00
O1236  O     0.47914   0.59469   0.76767   0.00000  Uiso   1.00
O1237  O     0.40785   0.46584   0.73607   0.00000  Uiso   1.00
O1238  O     0.60119   0.52512   0.71805   0.00000  Uiso   1.00
O1239  O     0.40323   0.52293   0.77820   0.00000  Uiso   1.00
O1240  O     0.58773   0.48610   0.76767   0.00000  Uiso   1.00
O1241  O     0.47133   0.40236   0.73607   0.00000  Uiso   1.00
O1242  O     0.53771   0.58860   0.71805   0.00000  Uiso   1.00
Zn1243 Zn    0.52577   0.47423   0.78277   0.00000  Uiso   1.00
Zn1244 Zn    0.46792   0.45711   0.72257   0.00000  Uiso   1.00
Zn1245 Zn    0.54500   0.52997   0.71188   0.00000  Uiso   1.00
Zn1246 Zn    0.46131   0.53868   0.78277   0.00000  Uiso   1.00
C1247  C     0.71915   0.49318   0.75876   0.00000  Uiso   1.00
C1248  C     0.85638   0.44990   0.95926   0.00000  Uiso   1.00
C1249  C     0.88154   0.43628   0.97971   0.00000  Uiso   1.00
C1250  C     0.94772   0.50685   0.74123   0.00000  Uiso   1.00
C1251  C     0.87470   0.44717   0.52021   0.00000  Uiso   1.00
C1252  C     0.83981   0.46990   0.54174   0.00000  Uiso   1.00
C1253  C     0.90249   0.43539   0.53941   0.00000  Uiso   1.00
C1254  C     0.89639   0.44631   0.57977   0.00000  Uiso   1.00
C1255  C     0.83637   0.48339   0.58210   0.00000  Uiso   1.00
C1256  C     0.99361   0.50948   0.73768   0.00000  Uiso   1.00
C1257  C     0.67381   0.49066   0.76219   0.00000  Uiso   1.00
C1258  C     0.75896   0.54004   0.92151   0.00000  Uiso   1.00
C1259  C     0.84489   0.65453   0.73508   0.00000  Uiso   1.00
C1260  C     0.81910   0.34553   0.76241   0.00000  Uiso   1.00
C1261  C     0.82249   0.38948   0.75915   0.00000  Uiso   1.00
C1262  C     0.84310   0.61082   0.74088   0.00000  Uiso   1.00
C1263  C     0.85461   0.47881   0.64392   0.00000  Uiso   1.00
C1264  C     0.81180   0.52074   0.85639   0.00000  Uiso   1.00
C1265  C     0.79739   0.52358   0.89999   0.00000  Uiso   1.00
C1266  C     0.86309   0.46983   0.60116   0.00000  Uiso   1.00
C1267  C     0.74279   0.53650   0.96193   0.00000  Uiso   1.00
C1268  C     0.85887   0.65996   0.66942   0.00000  Uiso   1.00
C1269  C     0.82004   0.50512   0.91984   0.00000  Uiso   1.00
C1270  C     0.89265   0.34265   0.63342   0.00000  Uiso   1.00
C1271  C     0.87559   0.33556   0.59697   0.00000  Uiso   1.00
C1272  C     0.73674   0.43857   0.58070   0.00000  Uiso   1.00
C1273  C     0.69203   0.42582   0.57411   0.00000  Uiso   1.00
C1274  C     0.67758   0.37949   0.57822   0.00000  Uiso   1.00
C1275  C     0.82953   0.40353   0.91467   0.00000  Uiso   1.00
C1276  C     0.84155   0.36033   0.91695   0.00000  Uiso   1.00
C1277  C     0.80807   0.65886   0.90727   0.00000  Uiso   1.00
C1278  C     0.80283   0.49829   0.95990   0.00000  Uiso   1.00
C1279  C     0.76413   0.51537   0.98139   0.00000  Uiso   1.00
C1280  C     0.82409   0.47656   0.97957   0.00000  Uiso   1.00
C1281  C     0.81132   0.48014   0.52155   0.00000  Uiso   1.00
C1282  C     0.76927   0.49122   0.54136   0.00000  Uiso   1.00
C1283  C     0.74695   0.51005   0.52161   0.00000  Uiso   1.00
F1284  F     0.70789   0.52239   0.54211   0.00000  Uiso   1.00
F1285  F     0.81077   0.51311   0.60233   0.00000  Uiso   1.00
F1286  F     0.92336   0.43456   0.59795   0.00000  Uiso   1.00
F1287  F     0.70566   0.55309   0.98165   0.00000  Uiso   1.00
F1288  F     0.73631   0.55872   0.90343   0.00000  Uiso   1.00
H1289  H     0.92893   0.41766   0.52316   0.00000  Uiso   1.00
H1290  H     0.92186   0.65960   0.62727   0.00000  Uiso   1.00
H1291  H     0.86593   0.63509   0.59010   0.00000  Uiso   1.00
H1292  H     0.90115   0.34679   0.57117   0.00000  Uiso   1.00
H1293  H     0.84738   0.35310   0.60200   0.00000  Uiso   1.00
H1294  H     0.73568   0.43126   0.61061   0.00000  Uiso   1.00
H1295  H     0.76069   0.41940   0.55931   0.00000  Uiso   1.00
H1296  H     0.66858   0.44464   0.59621   0.00000  Uiso   1.00
H1297  H     0.69260   0.43224   0.54405   0.00000  Uiso   1.00
H1298  H     0.70100   0.36014   0.55668   0.00000  Uiso   1.00
H1299  H     0.97899   0.37110   0.57220   0.00000  Uiso   1.00
H1300  H     0.68319   0.52684   0.71499   0.00000  Uiso   1.00
H1301  H     0.67473   0.37258   0.60868   0.00000  Uiso   1.00
H1302  H     0.82561   0.40449   0.88477   0.00000  Uiso   1.00
H1303  H     0.79758   0.40853   0.93601   0.00000  Uiso   1.00
H1304  H     0.87348   0.35585   0.89569   0.00000  Uiso   1.00
H1305  H     0.84383   0.35818   0.94720   0.00000  Uiso   1.00
H1306  H     0.77597   0.66233   0.92856   0.00000  Uiso   1.00
H1307  H     0.81766   0.62807   0.90931   0.00000  Uiso   1.00
H1308  H     0.80580   0.65966   0.87677   0.00000  Uiso   1.00
H1309  H     0.98489   0.47321   0.78512   0.00000  Uiso   1.00
H1310  H     0.79711   0.33370   0.78892   0.00000  Uiso   1.00
H1311  H     0.90684   0.41713   0.96354   0.00000  Uiso   1.00
H1312  H     0.85160   0.49687   0.90346   0.00000  Uiso   1.00
H1313  H     0.82873   0.34118   0.67381   0.00000  Uiso   1.00
H1314  H     0.85212   0.62541   0.66348   0.00000  Uiso   1.00
H1315  H     0.90187   0.37654   0.64000   0.00000  Uiso   1.00
O1316  O     0.83333   0.50000   0.75000   0.00000  Uiso   1.00
O1317  O     0.82360   0.45726   0.66625   0.00000  Uiso   1.00
O1318  O     0.79354   0.53979   0.83749   0.00000  Uiso   1.00
O1319  O     0.87755   0.50826   0.65877   0.00000  Uiso   1.00
O1320  O     0.83865   0.49468   0.83749   0.00000  Uiso   1.00
O1321  O     0.87487   0.33760   0.70289   0.00000  Uiso   1.00
O1322  O     0.74803   0.48223   0.57960   0.00000  Uiso   1.00
O1323  O     0.86312   0.43503   0.91970   0.00000  Uiso   1.00
O1324  O     0.84515   0.41434   0.77821   0.00000  Uiso   1.00
O1325  O     0.81247   0.59469   0.76767   0.00000  Uiso   1.00
O1326  O     0.74119   0.46584   0.73607   0.00000  Uiso   1.00
O1327  O     0.93452   0.52512   0.71805   0.00000  Uiso   1.00
O1328  O     0.73656   0.52293   0.77820   0.00000  Uiso   1.00
O1329  O     0.92106   0.48610   0.76767   0.00000  Uiso   1.00
O1330  O     0.80467   0.40236   0.73607   0.00000  Uiso   1.00
O1331  O     0.87104   0.58860   0.71805   0.00000  Uiso   1.00
Zn1332 Zn    0.85910   0.47423   0.78277   0.00000  Uiso   1.00
Zn1333 Zn    0.80125   0.45711   0.72257   0.00000  Uiso   1.00
Zn1334 Zn    0.87833   0.52997   0.71188   0.00000  Uiso   1.00
Zn1335 Zn    0.79465   0.53868   0.78277   0.00000  Uiso   1.00
C1336  C     0.05248   0.82651   0.75876   0.00000  Uiso   1.00
C1337  C     0.18971   0.78323   0.95926   0.00000  Uiso   1.00
C1338  C     0.21487   0.76961   0.97971   0.00000  Uiso   1.00
C1339  C     0.28105   0.84019   0.74123   0.00000  Uiso   1.00
C1340  C     0.20803   0.78050   0.52021   0.00000  Uiso   1.00
C1341  C     0.17315   0.80323   0.54174   0.00000  Uiso   1.00
C1342  C     0.23582   0.76872   0.53941   0.00000  Uiso   1.00
C1343  C     0.22973   0.77964   0.57977   0.00000  Uiso   1.00
C1344  C     0.16971   0.81672   0.58210   0.00000  Uiso   1.00
C1345  C     0.32695   0.84282   0.73768   0.00000  Uiso   1.00
C1346  C     0.00714   0.82399   0.76219   0.00000  Uiso   1.00
C1347  C     0.09229   0.87337   0.92151   0.00000  Uiso   1.00
C1348  C     0.17822   0.98786   0.73508   0.00000  Uiso   1.00
C1349  C     0.15243   0.67887   0.76241   0.00000  Uiso   1.00
C1350  C     0.15583   0.72281   0.75915   0.00000  Uiso   1.00
C1351  C     0.17644   0.94415   0.74088   0.00000  Uiso   1.00
C1352  C     0.18794   0.81215   0.64392   0.00000  Uiso   1.00
C1353  C     0.14514   0.85407   0.85639   0.00000  Uiso   1.00
C1354  C     0.13073   0.85692   0.89999   0.00000  Uiso   1.00
C1355  C     0.19642   0.80316   0.60116   0.00000  Uiso   1.00
C1356  C     0.07612   0.86983   0.96193   0.00000  Uiso   1.00
C1357  C     0.19221   0.99329   0.66942   0.00000  Uiso   1.00
C1358  C     0.15338   0.83845   0.91984   0.00000  Uiso   1.00
C1359  C     0.22598   0.67598   0.63342   0.00000  Uiso   1.00
C1360  C     0.20892   0.66889   0.59697   0.00000  Uiso   1.00
C1361  C     0.07007   0.77190   0.58070   0.00000  Uiso   1.00
C1362  C     0.02537   0.75915   0.57411   0.00000  Uiso   1.00
C1363  C     0.01092   0.71283   0.57822   0.00000  Uiso   1.00
C1364  C     0.16287   0.73686   0.91467   0.00000  Uiso   1.00
C1365  C     0.17488   0.69366   0.91695   0.00000  Uiso   1.00
C1366  C     0.14140   0.99219   0.90727   0.00000  Uiso   1.00
C1367  C     0.13617   0.83162   0.95990   0.00000  Uiso   1.00
C1368  C     0.09747   0.84871   0.98139   0.00000  Uiso   1.00
C1369  C     0.15743   0.80989   0.97957   0.00000  Uiso   1.00
C1370  C     0.14466   0.81347   0.52155   0.00000  Uiso   1.00
C1371  C     0.10260   0.82455   0.54136   0.00000  Uiso   1.00
C1372  C     0.08028   0.84338   0.52161   0.00000  Uiso   1.00
F1373  F     0.04122   0.85572   0.54211   0.00000  Uiso   1.00
F1374  F     0.14410   0.84644   0.60233   0.00000  Uiso   1.00
F1375  F     0.25669   0.76789   0.59795   0.00000  Uiso   1.00
F1376  F     0.03899   0.88643   0.98165   0.00000  Uiso   1.00
F1377  F     0.06964   0.89205   0.90343   0.00000  Uiso   1.00
H1378  H     0.26227   0.75099   0.52316   0.00000  Uiso   1.00
H1379  H     0.25519   0.99293   0.62727   0.00000  Uiso   1.00
H1380  H     0.19926   0.96842   0.59010   0.00000  Uiso   1.00
H1381  H     0.23448   0.68012   0.57117   0.00000  Uiso   1.00
H1382  H     0.18072   0.68643   0.60200   0.00000  Uiso   1.00
H1383  H     0.06902   0.76459   0.61061   0.00000  Uiso   1.00
H1384  H     0.09403   0.75274   0.55931   0.00000  Uiso   1.00
H1385  H     0.00191   0.77797   0.59621   0.00000  Uiso   1.00
H1386  H     0.02593   0.76557   0.54405   0.00000  Uiso   1.00
H1387  H     0.03434   0.69348   0.55668   0.00000  Uiso   1.00
H1388  H     0.31232   0.70443   0.57220   0.00000  Uiso   1.00
H1389  H     0.01653   0.86017   0.71499   0.00000  Uiso   1.00
H1390  H     0.00807   0.70592   0.60868   0.00000  Uiso   1.00
H1391  H     0.15894   0.73783   0.88477   0.00000  Uiso   1.00
H1392  H     0.13091   0.74186   0.93601   0.00000  Uiso   1.00
H1393  H     0.20681   0.68918   0.89569   0.00000  Uiso   1.00
H1394  H     0.17717   0.69151   0.94720   0.00000  Uiso   1.00
H1395  H     0.10930   0.99566   0.92856   0.00000  Uiso   1.00
H1396  H     0.15099   0.96140   0.90931   0.00000  Uiso   1.00
H1397  H     0.13913   0.99299   0.87677   0.00000  Uiso   1.00
H1398  H     0.31823   0.80655   0.78512   0.00000  Uiso   1.00
H1399  H     0.13044   0.66704   0.78892   0.00000  Uiso   1.00
H1400  H     0.24017   0.75047   0.96354   0.00000  Uiso   1.00
H1401  H     0.18493   0.83021   0.90346   0.00000  Uiso   1.00
H1402  H     0.16206   0.67451   0.67381   0.00000  Uiso   1.00
H1403  H     0.18546   0.95874   0.66348   0.00000  Uiso   1.00
H1404  H     0.23521   0.70988   0.64000   0.00000  Uiso   1.00
O1405  O     0.16667   0.83333   0.75000   0.00000  Uiso   1.00
O1406  O     0.15693   0.79060   0.66625   0.00000  Uiso   1.00
O1407  O     0.12687   0.87313   0.83749   0.00000  Uiso   1.00
O1408  O     0.21088   0.84159   0.65877   0.00000  Uiso   1.00
O1409  O     0.17198   0.82802   0.83749   0.00000  Uiso   1.00
O1410  O     0.20820   0.67094   0.70289   0.00000  Uiso   1.00
O1411  O     0.08137   0.81557   0.57960   0.00000  Uiso   1.00
O1412  O     0.19645   0.76836   0.91970   0.00000  Uiso   1.00
O1413  O     0.17849   0.74768   0.77821   0.00000  Uiso   1.00
O1414  O     0.14581   0.92803   0.76767   0.00000  Uiso   1.00
O1415  O     0.07452   0.79917   0.73607   0.00000  Uiso   1.00
O1416  O     0.26785   0.85845   0.71805   0.00000  Uiso   1.00
O1417  O     0.06990   0.85627   0.77820   0.00000  Uiso   1.00
O1418  O     0.25440   0.81944   0.76767   0.00000  Uiso   1.00
O1419  O     0.13800   0.73570   0.73607   0.00000  Uiso   1.00
O1420  O     0.20437   0.92193   0.71805   0.00000  Uiso   1.00
Zn1421 Zn    0.19244   0.80756   0.78277   0.00000  Uiso   1.00
Zn1422 Zn    0.13459   0.79044   0.72257   0.00000  Uiso   1.00
Zn1423 Zn    0.21166   0.86331   0.71188   0.00000  Uiso   1.00
Zn1424 Zn    0.12798   0.87202   0.78277   0.00000  Uiso   1.00
C1425  C     0.38581   0.82651   0.75876   0.00000  Uiso   1.00
C1426  C     0.52305   0.78323   0.95926   0.00000  Uiso   1.00
C1427  C     0.54820   0.76961   0.97971   0.00000  Uiso   1.00
C1428  C     0.61439   0.84019   0.74123   0.00000  Uiso   1.00
C1429  C     0.54136   0.78050   0.52021   0.00000  Uiso   1.00
C1430  C     0.50648   0.80323   0.54174   0.00000  Uiso   1.00
C1431  C     0.56916   0.76872   0.53941   0.00000  Uiso   1.00
C1432  C     0.56306   0.77964   0.57977   0.00000  Uiso   1.00
C1433  C     0.50304   0.81672   0.58210   0.00000  Uiso   1.00
C1434  C     0.66028   0.84282   0.73768   0.00000  Uiso   1.00
C1435  C     0.34047   0.82399   0.76219   0.00000  Uiso   1.00
C1436  C     0.42563   0.87337   0.92151   0.00000  Uiso   1.00
C1437  C     0.51156   0.98786   0.73508   0.00000  Uiso   1.00
C1438  C     0.48577   0.67887   0.76241   0.00000  Uiso   1.00
C1439  C     0.48916   0.72281   0.75915   0.00000  Uiso   1.00
C1440  C     0.50977   0.94415   0.74088   0.00000  Uiso   1.00
C1441  C     0.52128   0.81215   0.64392   0.00000  Uiso   1.00
C1442  C     0.47847   0.85407   0.85639   0.00000  Uiso   1.00
C1443  C     0.46406   0.85692   0.89999   0.00000  Uiso   1.00
C1444  C     0.52976   0.80316   0.60116   0.00000  Uiso   1.00
C1445  C     0.40945   0.86983   0.96193   0.00000  Uiso   1.00
C1446  C     0.52554   0.99329   0.66942   0.00000  Uiso   1.00
C1447  C     0.48671   0.83845   0.91984   0.00000  Uiso   1.00
C1448  C     0.55932   0.67598   0.63342   0.00000  Uiso   1.00
C1449  C     0.54225   0.66889   0.59697   0.00000  Uiso   1.00
C1450  C     0.40341   0.77190   0.58070   0.00000  Uiso   1.00
C1451  C     0.35870   0.75915   0.57411   0.00000  Uiso   1.00
C1452  C     0.34425   0.71283   0.57822   0.00000  Uiso   1.00
C1453  C     0.49620   0.73686   0.91467   0.00000  Uiso   1.00
C1454  C     0.50821   0.69366   0.91695   0.00000  Uiso   1.00
C1455  C     0.47473   0.99219   0.90727   0.00000  Uiso   1.00
C1456  C     0.46950   0.83162   0.95990   0.00000  Uiso   1.00
C1457  C     0.43080   0.84871   0.98139   0.00000  Uiso   1.00
C1458  C     0.49076   0.80989   0.97957   0.00000  Uiso   1.00
C1459  C     0.47799   0.81347   0.52155   0.00000  Uiso   1.00
C1460  C     0.43594   0.82455   0.54136   0.00000  Uiso   1.00
C1461  C     0.41362   0.84338   0.52161   0.00000  Uiso   1.00
F1462  F     0.37456   0.85572   0.54211   0.00000  Uiso   1.00
F1463  F     0.47744   0.84644   0.60233   0.00000  Uiso   1.00
F1464  F     0.59002   0.76789   0.59795   0.00000  Uiso   1.00
F1465  F     0.37233   0.88643   0.98165   0.00000  Uiso   1.00
F1466  F     0.40297   0.89205   0.90343   0.00000  Uiso   1.00
H1467  H     0.59560   0.75099   0.52316   0.00000  Uiso   1.00
H1468  H     0.58852   0.99293   0.62727   0.00000  Uiso   1.00
H1469  H     0.53260   0.96842   0.59010   0.00000  Uiso   1.00
H1470  H     0.56781   0.68012   0.57117   0.00000  Uiso   1.00
H1471  H     0.51405   0.68643   0.60200   0.00000  Uiso   1.00
H1472  H     0.40235   0.76459   0.61061   0.00000  Uiso   1.00
H1473  H     0.42736   0.75274   0.55931   0.00000  Uiso   1.00
H1474  H     0.33525   0.77797   0.59621   0.00000  Uiso   1.00
H1475  H     0.35927   0.76557   0.54405   0.00000  Uiso   1.00
H1476  H     0.36767   0.69348   0.55668   0.00000  Uiso   1.00
H1477  H     0.64565   0.70443   0.57220   0.00000  Uiso   1.00
H1478  H     0.34986   0.86017   0.71499   0.00000  Uiso   1.00
H1479  H     0.34140   0.70592   0.60868   0.00000  Uiso   1.00
H1480  H     0.49227   0.73783   0.88477   0.00000  Uiso   1.00
H1481  H     0.46425   0.74186   0.93601   0.00000  Uiso   1.00
H1482  H     0.54014   0.68918   0.89569   0.00000  Uiso   1.00
H1483  H     0.51050   0.69151   0.94720   0.00000  Uiso   1.00
H1484  H     0.44263   0.99566   0.92856   0.00000  Uiso   1.00
H1485  H     0.48433   0.96140   0.90931   0.00000  Uiso   1.00
H1486  H     0.47246   0.99299   0.87677   0.00000  Uiso   1.00
H1487  H     0.65156   0.80655   0.78512   0.00000  Uiso   1.00
H1488  H     0.46378   0.66704   0.78892   0.00000  Uiso   1.00
H1489  H     0.57350   0.75047   0.96354   0.00000  Uiso   1.00
H1490  H     0.51826   0.83021   0.90346   0.00000  Uiso   1.00
H1491  H     0.49540   0.67451   0.67381   0.00000  Uiso   1.00
H1492  H     0.51879   0.95874   0.66348   0.00000  Uiso   1.00
H1493  H     0.56854   0.70988   0.64000   0.00000  Uiso   1.00
O1494  O     0.50000   0.83333   0.75000   0.00000  Uiso   1.00
O1495  O     0.49027   0.79060   0.66625   0.00000  Uiso   1.00
O1496  O     0.46020   0.87313   0.83749   0.00000  Uiso   1.00
O1497  O     0.54421   0.84159   0.65877   0.00000  Uiso   1.00
O1498  O     0.50532   0.82802   0.83749   0.00000  Uiso   1.00
O1499  O     0.54154   0.67094   0.70289   0.00000  Uiso   1.00
O1500  O     0.41470   0.81557   0.57960   0.00000  Uiso   1.00
O1501  O     0.52979   0.76836   0.91970   0.00000  Uiso   1.00
O1502  O     0.51182   0.74768   0.77821   0.00000  Uiso   1.00
O1503  O     0.47914   0.92803   0.76767   0.00000  Uiso   1.00
O1504  O     0.40785   0.79917   0.73607   0.00000  Uiso   1.00
O1505  O     0.60119   0.85845   0.71805   0.00000  Uiso   1.00
O1506  O     0.40323   0.85627   0.77820   0.00000  Uiso   1.00
O1507  O     0.58773   0.81944   0.76767   0.00000  Uiso   1.00
O1508  O     0.47133   0.73570   0.73607   0.00000  Uiso   1.00
O1509  O     0.53771   0.92193   0.71805   0.00000  Uiso   1.00
Zn1510 Zn    0.52577   0.80756   0.78277   0.00000  Uiso   1.00
Zn1511 Zn    0.46792   0.79044   0.72257   0.00000  Uiso   1.00
Zn1512 Zn    0.54500   0.86331   0.71188   0.00000  Uiso   1.00
Zn1513 Zn    0.46131   0.87202   0.78277   0.00000  Uiso   1.00
C1514  C     0.71915   0.82651   0.75876   0.00000  Uiso   1.00
C1515  C     0.85638   0.78323   0.95926   0.00000  Uiso   1.00
C1516  C     0.88154   0.76961   0.97971   0.00000  Uiso   1.00
C1517  C     0.94772   0.84019   0.74123   0.00000  Uiso   1.00
C1518  C     0.87470   0.78050   0.52021   0.00000  Uiso   1.00
C1519  C     0.83981   0.80323   0.54174   0.00000  Uiso   1.00
C1520  C     0.90249   0.76872   0.53941   0.00000  Uiso   1.00
C1521  C     0.89639   0.77964   0.57977   0.00000  Uiso   1.00
C1522  C     0.83637   0.81672   0.58210   0.00000  Uiso   1.00
C1523  C     0.99361   0.84282   0.73768   0.00000  Uiso   1.00
C1524  C     0.67381   0.82399   0.76219   0.00000  Uiso   1.00
C1525  C     0.75896   0.87337   0.92151   0.00000  Uiso   1.00
C1526  C     0.84489   0.98786   0.73508   0.00000  Uiso   1.00
C1527  C     0.81910   0.67887   0.76241   0.00000  Uiso   1.00
C1528  C     0.82249   0.72281   0.75915   0.00000  Uiso   1.00
C1529  C     0.84310   0.94415   0.74088   0.00000  Uiso   1.00
C1530  C     0.85461   0.81215   0.64392   0.00000  Uiso   1.00
C1531  C     0.81180   0.85407   0.85639   0.00000  Uiso   1.00
C1532  C     0.79739   0.85692   0.89999   0.00000  Uiso   1.00
C1533  C     0.86309   0.80316   0.60116   0.00000  Uiso   1.00
C1534  C     0.74279   0.86983   0.96193   0.00000  Uiso   1.00
C1535  C     0.85887   0.99329   0.66942   0.00000  Uiso   1.00
C1536  C     0.82004   0.83845   0.91984   0.00000  Uiso   1.00
C1537  C     0.89265   0.67598   0.63342   0.00000  Uiso   1.00
C1538  C     0.87559   0.66889   0.59697   0.00000  Uiso   1.00
C1539  C     0.73674   0.77190   0.58070   0.00000  Uiso   1.00
C1540  C     0.69203   0.75915   0.57411   0.00000  Uiso   1.00
C1541  C     0.67758   0.71283   0.57822   0.00000  Uiso   1.00
C1542  C     0.82953   0.73686   0.91467   0.00000  Uiso   1.00
C1543  C     0.84155   0.69366   0.91695   0.00000  Uiso   1.00
C1544  C     0.80807   0.99219   0.90727   0.00000  Uiso   1.00
C1545  C     0.80283   0.83162   0.95990   0.00000  Uiso   1.00
C1546  C     0.76413   0.84871   0.98139   0.00000  Uiso   1.00
C1547  C     0.82409   0.80989   0.97957   0.00000  Uiso   1.00
C1548  C     0.81132   0.81347   0.52155   0.00000  Uiso   1.00
C1549  C     0.76927   0.82455   0.54136   0.00000  Uiso   1.00
C1550  C     0.74695   0.84338   0.52161   0.00000  Uiso   1.00
F1551  F     0.70789   0.85572   0.54211   0.00000  Uiso   1.00
F1552  F     0.81077   0.84644   0.60233   0.00000  Uiso   1.00
F1553  F     0.92336   0.76789   0.59795   0.00000  Uiso   1.00
F1554  F     0.70566   0.88643   0.98165   0.00000  Uiso   1.00
F1555  F     0.73631   0.89205   0.90343   0.00000  Uiso   1.00
H1556  H     0.92893   0.75099   0.52316   0.00000  Uiso   1.00
H1557  H     0.92186   0.99293   0.62727   0.00000  Uiso   1.00
H1558  H     0.86593   0.96842   0.59010   0.00000  Uiso   1.00
H1559  H     0.90115   0.68012   0.57117   0.00000  Uiso   1.00
H1560  H     0.84738   0.68643   0.60200   0.00000  Uiso   1.00
H1561  H     0.73568   0.76459   0.61061   0.00000  Uiso   1.00
H1562  H     0.76069   0.75274   0.55931   0.00000  Uiso   1.00
H1563  H     0.66858   0.77797   0.59621   0.00000  Uiso   1.00
H1564  H     0.69260   0.76557   0.54405   0.00000  Uiso   1.00
H1565  H     0.70100   0.69348   0.55668   0.00000  Uiso   1.00
H1566  H     0.97899   0.70443   0.57220   0.00000  Uiso   1.00
H1567  H     0.68319   0.86017   0.71499   0.00000  Uiso   1.00
H1568  H     0.67473   0.70592   0.60868   0.00000  Uiso   1.00
H1569  H     0.82561   0.73783   0.88477   0.00000  Uiso   1.00
H1570  H     0.79758   0.74186   0.93601   0.00000  Uiso   1.00
H1571  H     0.87348   0.68918   0.89569   0.00000  Uiso   1.00
H1572  H     0.84383   0.69151   0.94720   0.00000  Uiso   1.00
H1573  H     0.77597   0.99566   0.92856   0.00000  Uiso   1.00
H1574  H     0.81766   0.96140   0.90931   0.00000  Uiso   1.00
H1575  H     0.80580   0.99299   0.87677   0.00000  Uiso   1.00
H1576  H     0.98489   0.80655   0.78512   0.00000  Uiso   1.00
H1577  H     0.79711   0.66704   0.78892   0.00000  Uiso   1.00
H1578  H     0.90684   0.75047   0.96354   0.00000  Uiso   1.00
H1579  H     0.85160   0.83021   0.90346   0.00000  Uiso   1.00
H1580  H     0.82873   0.67451   0.67381   0.00000  Uiso   1.00
H1581  H     0.85212   0.95874   0.66348   0.00000  Uiso   1.00
H1582  H     0.90187   0.70988   0.64000   0.00000  Uiso   1.00
O1583  O     0.83333   0.83333   0.75000   0.00000  Uiso   1.00
O1584  O     0.82360   0.79060   0.66625   0.00000  Uiso   1.00
O1585  O     0.79354   0.87313   0.83749   0.00000  Uiso   1.00
O1586  O     0.87755   0.84159   0.65877   0.00000  Uiso   1.00
O1587  O     0.83865   0.82802   0.83749   0.00000  Uiso   1.00
O1588  O     0.87487   0.67094   0.70289   0.00000  Uiso   1.00
O1589  O     0.74803   0.81557   0.57960   0.00000  Uiso   1.00
O1590  O     0.86312   0.76836   0.91970   0.00000  Uiso   1.00
O1591  O     0.84515   0.74768   0.77821   0.00000  Uiso   1.00
O1592  O     0.81247   0.92803   0.76767   0.00000  Uiso   1.00
O1593  O     0.74119   0.79917   0.73607   0.00000  Uiso   1.00
O1594  O     0.93452   0.85845   0.71805   0.00000  Uiso   1.00
O1595  O     0.73656   0.85627   0.77820   0.00000  Uiso   1.00
O1596  O     0.92106   0.81944   0.76767   0.00000  Uiso   1.00
O1597  O     0.80467   0.73570   0.73607   0.00000  Uiso   1.00
O1598  O     0.87104   0.92193   0.71805   0.00000  Uiso   1.00
Zn1599 Zn    0.85910   0.80756   0.78277   0.00000  Uiso   1.00
Zn1600 Zn    0.80125   0.79044   0.72257   0.00000  Uiso   1.00
Zn1601 Zn    0.87833   0.86331   0.71188   0.00000  Uiso   1.00
Zn1602 Zn    0.79465   0.87202   0.78277   0.00000  Uiso   1.00
loop_
_geom_bond_atom_site_label_1
_geom_bond_atom_site_label_2
_geom_bond_distance
_geom_bond_site_symmetry_2
_ccdc_geom_bond_type
C1     C11     1.438   .     S
C1     O82     1.269   .     A
C1     O80     1.269   .     A
C2     C3      1.392   .     A
C2     O77     1.385   .     S
C2     C34     1.427   .     A
C3     H65     1.084   .     S
C3     C806    1.392   .     S
C4     O81     1.279   .     A
C4     C10     1.455   .     S
C4     O83     1.276   .     A
C5     C6      1.419   .     A
C5     C7      1.402   .     A
C5     C804    1.392   1_554 S
C6     C9      1.416   .     A
C6     C35     1.425   .     A
C7     C8      1.391   .     A
C7     H43     1.084   .     S
C8     C20     1.395   .     A
C8     F40     1.354   .     S
C9     F39     1.358   .     S
C9     C20     1.396   .     A
C10    C100    1.334   .     S
C10    H143    1.088   .     S
C11    C188    1.334   1_455 S
C11    H241    1.086   1_455 S
C12    F42     1.358   .     S
C12    C21     1.395   .     A
C12    C19     1.404   .     A
C13    C16     1.456   .     S
C13    C281    1.336   .     S
C13    O342    1.386   .     S
C14    H64     1.087   .     S
C14    C15     1.436   .     S
C14    C547    1.336   1_545 S
C15    O78     1.271   .     A
C15    O84     1.276   .     A
C16    O85     1.270   .     A
C16    O79     1.271   .     A
C17    C20     1.458   .     S
C17    O73     1.276   .     A
C17    O71     1.276   .     A
C18    C19     1.477   .     S
C18    O74     1.287   .     A
C18    O72     1.283   .     A
C19    C23     1.398   .     A
C21    C33     1.410   .     A
C21    F41     1.358   .     S
C22    H68     1.115   .     S
C22    C291    1.525   .     S
C22    H334    1.115   .     S
C22    O342    1.413   .     S
C23    H66     1.078   .     S
C23    C32     1.408   .     A
C24    H69     1.109   .     S
C24    C25     1.527   .     S
C24    C556    1.525   1_545 S
C24    H578    1.112   1_545 S
C25    H47     1.111   .     S
C25    H46     1.110   .     S
C25    H579    1.111   1_545 S
C26    C27     1.530   .     S
C26    O76     1.417   .     S
C26    H48     1.111   .     S
C26    H49     1.115   .     S
C27    H50     1.110   .     S
C27    H51     1.111   .     S
C27    C28     1.526   .     S
C28    H55     1.111   .     S
C28    H52     1.111   .     S
C28    H231    1.109   1_455 S
C29    C30     1.533   .     S
C29    H57     1.116   .     S
C29    H56     1.111   .     S
C29    O77     1.417   .     S
C30    H59     1.111   .     S
C30    H58     1.112   .     S
C30    C565    1.527   1_545 S
C31    H61     1.111   .     S
C31    H62     1.111   .     S
C31    H60     1.111   .     S
C31    C297    1.527   .     S
C32    C34     1.425   .     A
C32    C33     1.420   .     A
C33    C838    1.402   .     S
C34    C836    1.421   .     S
C35    C36     1.422   .     A
C35    C835    1.421   1_554 S
C36    C37     1.395   .     A
C36    O76     1.386   .     S
C37    F38     1.359   .     S
C37    C834    1.402   1_554 S
H44    C291    1.112   .     S
H45    C292    1.111   .     S
H53    C117    1.109   .     S
H54    C188    1.088   1_455 S
H63    C100    1.086   .     S
H67    C556    1.115   1_545 S
O70    Zn88    1.934   .     S
O70    Zn87    1.939   .     S
O70    Zn89    1.934   .     S
O70    Zn86    1.953   .     S
O71    Zn87    1.922   .     S
O72    Zn89    1.929   .     S
O73    Zn88    1.924   .     S
O74    Zn86    1.919   .     S
O75    C547    1.386   1_545 S
O75    C556    1.413   1_545 S
O78    Zn86    1.929   .     S
O79    Zn89    1.931   .     S
O80    Zn87    1.931   .     S
O81    Zn88    1.938   .     S
O82    Zn89    1.934   .     S
O83    Zn86    1.928   .     S
O84    Zn87    1.936   .     S
O85    Zn88    1.931   .     S
C90    C100    1.438   .     S
C90    O171    1.269   .     A
C90    O169    1.269   .     A
C91    C92     1.392   .     A
C91    O166    1.385   .     S
C91    C123    1.427   .     A
C92    H154    1.084   .     S
C92    C895    1.392   .     S
C93    O170    1.279   .     A
C93    C99     1.455   .     S
C93    O172    1.276   .     A
C94    C95     1.419   .     A
C94    C96     1.402   .     A
C94    C893    1.392   1_554 S
C95    C98     1.416   .     A
C95    C124    1.425   .     A
C96    C97     1.391   .     A
C96    H132    1.084   .     S
C97    C109    1.395   .     A
C97    F129    1.354   .     S
C98    F128    1.358   .     S
C98    C109    1.396   .     A
C99    C189    1.334   .     S
C99    H232    1.088   .     S
C101   F131    1.358   .     S
C101   C110    1.395   .     A
C101   C108    1.404   .     A
C102   C105    1.456   .     S
C102   C370    1.336   .     S
C102   O431    1.386   .     S
C103   H153    1.087   .     S
C103   C104    1.436   .     S
C103   C636    1.336   1_545 S
C104   O167    1.271   .     A
C104   O173    1.276   .     A
C105   O174    1.270   .     A
C105   O168    1.271   .     A
C106   C109    1.458   .     S
C106   O162    1.276   .     A
C106   O160    1.276   .     A
C107   C108    1.477   .     S
C107   O163    1.287   .     A
C107   O161    1.283   .     A
C108   C112    1.398   .     A
C110   C122    1.410   .     A
C110   F130    1.358   .     S
C111   H157    1.115   .     S
C111   C380    1.525   .     S
C111   H423    1.115   .     S
C111   O431    1.413   .     S
C112   H155    1.078   .     S
C112   C121    1.408   .     A
C113   H158    1.109   .     S
C113   C114    1.527   .     S
C113   C645    1.525   1_545 S
C113   H667    1.112   1_545 S
C114   H136    1.111   .     S
C114   H135    1.110   .     S
C114   H668    1.111   1_545 S
C115   C116    1.530   .     S
C115   O165    1.417   .     S
C115   H137    1.111   .     S
C115   H138    1.115   .     S
C116   H139    1.110   .     S
C116   H140    1.111   .     S
C116   C117    1.526   .     S
C117   H144    1.111   .     S
C117   H141    1.111   .     S
C118   C119    1.533   .     S
C118   H146    1.116   .     S
C118   H145    1.111   .     S
C118   O166    1.417   .     S
C119   H148    1.111   .     S
C119   H147    1.112   .     S
C119   C654    1.527   1_545 S
C120   H150    1.111   .     S
C120   H151    1.111   .     S
C120   H149    1.111   .     S
C120   C386    1.527   .     S
C121   C123    1.425   .     A
C121   C122    1.420   .     A
C122   C927    1.402   .     S
C123   C925    1.421   .     S
C124   C125    1.422   .     A
C124   C924    1.421   1_554 S
C125   C126    1.395   .     A
C125   O165    1.386   .     S
C126   F127    1.359   .     S
C126   C923    1.402   1_554 S
H133   C380    1.112   .     S
H134   C381    1.111   .     S
H142   C206    1.109   .     S
H152   C189    1.086   .     S
H156   C645    1.115   1_545 S
O159   Zn177   1.934   .     S
O159   Zn176   1.939   .     S
O159   Zn178   1.934   .     S
O159   Zn175   1.953   .     S
O160   Zn176   1.922   .     S
O161   Zn178   1.929   .     S
O162   Zn177   1.924   .     S
O163   Zn175   1.919   .     S
O164   C636    1.386   1_545 S
O164   C645    1.413   1_545 S
O167   Zn175   1.929   .     S
O168   Zn178   1.931   .     S
O169   Zn176   1.931   .     S
O170   Zn177   1.938   .     S
O171   Zn178   1.934   .     S
O172   Zn175   1.928   .     S
O173   Zn176   1.936   .     S
O174   Zn177   1.931   .     S
C179   C189    1.438   .     S
C179   O260    1.269   .     A
C179   O258    1.269   .     A
C180   C181    1.392   .     A
C180   O255    1.385   .     S
C180   C212    1.427   .     A
C181   H243    1.084   .     S
C181   C984    1.392   .     S
C182   O259    1.279   .     A
C182   C188    1.455   .     S
C182   O261    1.276   .     A
C183   C184    1.419   .     A
C183   C185    1.402   .     A
C183   C982    1.392   1_554 S
C184   C187    1.416   .     A
C184   C213    1.425   .     A
C185   C186    1.391   .     A
C185   H221    1.084   .     S
C186   C198    1.395   .     A
C186   F218    1.354   .     S
C187   F217    1.358   .     S
C187   C198    1.396   .     A
C188   C11     1.334   1_655 S
C188   H54     1.088   1_655 S
C190   F220    1.358   .     S
C190   C199    1.395   .     A
C190   C197    1.404   .     A
C191   C194    1.456   .     S
C191   C459    1.336   .     S
C191   O520    1.386   .     S
C192   H242    1.087   .     S
C192   C193    1.436   .     S
C192   C725    1.336   1_545 S
C193   O256    1.271   .     A
C193   O262    1.276   .     A
C194   O263    1.270   .     A
C194   O257    1.271   .     A
C195   C198    1.458   .     S
C195   O251    1.276   .     A
C195   O249    1.276   .     A
C196   C197    1.477   .     S
C196   O252    1.287   .     A
C196   O250    1.283   .     A
C197   C201    1.398   .     A
C199   C211    1.410   .     A
C199   F219    1.358   .     S
C200   H246    1.115   .     S
C200   C469    1.525   .     S
C200   H512    1.115   .     S
C200   O520    1.413   .     S
C201   H244    1.078   .     S
C201   C210    1.408   .     A
C202   H247    1.109   .     S
C202   C203    1.527   .     S
C202   C734    1.525   1_545 S
C202   H756    1.112   1_545 S
C203   H225    1.111   .     S
C203   H224    1.110   .     S
C203   H757    1.111   1_545 S
C204   C205    1.530   .     S
C204   O254    1.417   .     S
C204   H226    1.111   .     S
C204   H227    1.115   .     S
C205   H228    1.110   .     S
C205   H229    1.111   .     S
C205   C206    1.526   .     S
C206   H233    1.111   .     S
C206   H230    1.111   .     S
C207   C208    1.533   .     S
C207   H235    1.116   .     S
C207   H234    1.111   .     S
C207   O255    1.417   .     S
C208   H237    1.111   .     S
C208   H236    1.112   .     S
C208   C743    1.527   1_545 S
C209   H239    1.111   .     S
C209   H240    1.111   .     S
C209   H238    1.111   .     S
C209   C475    1.527   .     S
C210   C212    1.425   .     A
C210   C211    1.420   .     A
C211   C1016   1.402   .     S
C212   C1014   1.421   .     S
C213   C214    1.422   .     A
C213   C1013   1.421   1_554 S
C214   C215    1.395   .     A
C214   O254    1.386   .     S
C215   F216    1.359   .     S
C215   C1012   1.402   1_554 S
H222   C469    1.112   .     S
H223   C470    1.111   .     S
H231   C28     1.109   1_655 S
H241   C11     1.086   1_655 S
H245   C734    1.115   1_545 S
O248   Zn266   1.934   .     S
O248   Zn265   1.939   .     S
O248   Zn267   1.934   .     S
O248   Zn264   1.953   .     S
O249   Zn265   1.922   .     S
O250   Zn267   1.929   .     S
O251   Zn266   1.924   .     S
O252   Zn264   1.919   .     S
O253   C725    1.386   1_545 S
O253   C734    1.413   1_545 S
O256   Zn264   1.929   .     S
O257   Zn267   1.931   .     S
O258   Zn265   1.931   .     S
O259   Zn266   1.938   .     S
O260   Zn267   1.934   .     S
O261   Zn264   1.928   .     S
O262   Zn265   1.936   .     S
O263   Zn266   1.931   .     S
C268   C278    1.438   .     S
C268   O349    1.269   .     A
C268   O347    1.269   .     A
C269   C270    1.392   .     A
C269   O344    1.385   .     S
C269   C301    1.427   .     A
C270   H332    1.084   .     S
C270   C1073   1.392   .     S
C271   O348    1.279   .     A
C271   C277    1.455   .     S
C271   O350    1.276   .     A
C272   C273    1.419   .     A
C272   C274    1.402   .     A
C272   C1071   1.392   1_554 S
C273   C276    1.416   .     A
C273   C302    1.425   .     A
C274   C275    1.391   .     A
C274   H310    1.084   .     S
C275   C287    1.395   .     A
C275   F307    1.354   .     S
C276   F306    1.358   .     S
C276   C287    1.396   .     A
C277   C367    1.334   .     S
C277   H410    1.088   .     S
C278   C455    1.334   1_455 S
C278   H508    1.086   1_455 S
C279   F309    1.358   .     S
C279   C288    1.395   .     A
C279   C286    1.404   .     A
C280   C283    1.456   .     S
C280   C548    1.336   .     S
C280   O609    1.386   .     S
C281   H331    1.087   .     S
C281   C282    1.436   .     S
C282   O345    1.271   .     A
C282   O351    1.276   .     A
C283   O352    1.270   .     A
C283   O346    1.271   .     A
C284   C287    1.458   .     S
C284   O340    1.276   .     A
C284   O338    1.276   .     A
C285   C286    1.477   .     S
C285   O341    1.287   .     A
C285   O339    1.283   .     A
C286   C290    1.398   .     A
C288   C300    1.410   .     A
C288   F308    1.358   .     S
C289   H335    1.115   .     S
C289   C558    1.525   .     S
C289   H601    1.115   .     S
C289   O609    1.413   .     S
C290   H333    1.078   .     S
C290   C299    1.408   .     A
C291   H336    1.109   .     S
C291   C292    1.527   .     S
C292   H314    1.111   .     S
C292   H313    1.110   .     S
C293   C294    1.530   .     S
C293   O343    1.417   .     S
C293   H315    1.111   .     S
C293   H316    1.115   .     S
C294   H317    1.110   .     S
C294   H318    1.111   .     S
C294   C295    1.526   .     S
C295   H322    1.111   .     S
C295   H319    1.111   .     S
C295   H498    1.109   1_455 S
C296   C297    1.533   .     S
C296   H324    1.116   .     S
C296   H323    1.111   .     S
C296   O344    1.417   .     S
C297   H326    1.111   .     S
C297   H325    1.112   .     S
C298   H328    1.111   .     S
C298   H329    1.111   .     S
C298   H327    1.111   .     S
C298   C564    1.527   .     S
C299   C301    1.425   .     A
C299   C300    1.420   .     A
C300   C1105   1.402   .     S
C301   C1103   1.421   .     S
C302   C303    1.422   .     A
C302   C1102   1.421   1_554 S
C303   C304    1.395   .     A
C303   O343    1.386   .     S
C304   F305    1.359   .     S
C304   C1101   1.402   1_554 S
H311   C558    1.112   .     S
H312   C559    1.111   .     S
H320   C384    1.109   .     S
H321   C455    1.088   1_455 S
H330   C367    1.086   .     S
O337   Zn355   1.934   .     S
O337   Zn354   1.939   .     S
O337   Zn356   1.934   .     S
O337   Zn353   1.953   .     S
O338   Zn354   1.922   .     S
O339   Zn356   1.929   .     S
O340   Zn355   1.924   .     S
O341   Zn353   1.919   .     S
O345   Zn353   1.929   .     S
O346   Zn356   1.931   .     S
O347   Zn354   1.931   .     S
O348   Zn355   1.938   .     S
O349   Zn356   1.934   .     S
O350   Zn353   1.928   .     S
O351   Zn354   1.936   .     S
O352   Zn355   1.931   .     S
C357   C367    1.438   .     S
C357   O438    1.269   .     A
C357   O436    1.269   .     A
C358   C359    1.392   .     A
C358   O433    1.385   .     S
C358   C390    1.427   .     A
C359   H421    1.084   .     S
C359   C1162   1.392   .     S
C360   O437    1.279   .     A
C360   C366    1.455   .     S
C360   O439    1.276   .     A
C361   C362    1.419   .     A
C361   C363    1.402   .     A
C361   C1160   1.392   1_554 S
C362   C365    1.416   .     A
C362   C391    1.425   .     A
C363   C364    1.391   .     A
C363   H399    1.084   .     S
C364   C376    1.395   .     A
C364   F396    1.354   .     S
C365   F395    1.358   .     S
C365   C376    1.396   .     A
C366   C456    1.334   .     S
C366   H499    1.088   .     S
C368   F398    1.358   .     S
C368   C377    1.395   .     A
C368   C375    1.404   .     A
C369   C372    1.456   .     S
C369   C637    1.336   .     S
C369   O698    1.386   .     S
C370   H420    1.087   .     S
C370   C371    1.436   .     S
C371   O434    1.271   .     A
C371   O440    1.276   .     A
C372   O441    1.270   .     A
C372   O435    1.271   .     A
C373   C376    1.458   .     S
C373   O429    1.276   .     A
C373   O427    1.276   .     A
C374   C375    1.477   .     S
C374   O430    1.287   .     A
C374   O428    1.283   .     A
C375   C379    1.398   .     A
C377   C389    1.410   .     A
C377   F397    1.358   .     S
C378   H424    1.115   .     S
C378   C647    1.525   .     S
C378   H690    1.115   .     S
C378   O698    1.413   .     S
C379   H422    1.078   .     S
C379   C388    1.408   .     A
C380   H425    1.109   .     S
C380   C381    1.527   .     S
C381   H403    1.111   .     S
C381   H402    1.110   .     S
C382   C383    1.530   .     S
C382   O432    1.417   .     S
C382   H404    1.111   .     S
C382   H405    1.115   .     S
C383   H406    1.110   .     S
C383   H407    1.111   .     S
C383   C384    1.526   .     S
C384   H411    1.111   .     S
C384   H408    1.111   .     S
C385   C386    1.533   .     S
C385   H413    1.116   .     S
C385   H412    1.111   .     S
C385   O433    1.417   .     S
C386   H415    1.111   .     S
C386   H414    1.112   .     S
C387   H417    1.111   .     S
C387   H418    1.111   .     S
C387   H416    1.111   .     S
C387   C653    1.527   .     S
C388   C390    1.425   .     A
C388   C389    1.420   .     A
C389   C1194   1.402   .     S
C390   C1192   1.421   .     S
C391   C392    1.422   .     A
C391   C1191   1.421   1_554 S
C392   C393    1.395   .     A
C392   O432    1.386   .     S
C393   F394    1.359   .     S
C393   C1190   1.402   1_554 S
H400   C647    1.112   .     S
H401   C648    1.111   .     S
H409   C473    1.109   .     S
H419   C456    1.086   .     S
O426   Zn444   1.934   .     S
O426   Zn443   1.939   .     S
O426   Zn445   1.934   .     S
O426   Zn442   1.953   .     S
O427   Zn443   1.922   .     S
O428   Zn445   1.929   .     S
O429   Zn444   1.924   .     S
O430   Zn442   1.919   .     S
O434   Zn442   1.929   .     S
O435   Zn445   1.931   .     S
O436   Zn443   1.931   .     S
O437   Zn444   1.938   .     S
O438   Zn445   1.934   .     S
O439   Zn442   1.928   .     S
O440   Zn443   1.936   .     S
O441   Zn444   1.931   .     S
C446   C456    1.438   .     S
C446   O527    1.269   .     A
C446   O525    1.269   .     A
C447   C448    1.392   .     A
C447   O522    1.385   .     S
C447   C479    1.427   .     A
C448   H510    1.084   .     S
C448   C1251   1.392   .     S
C449   O526    1.279   .     A
C449   C455    1.455   .     S
C449   O528    1.276   .     A
C450   C451    1.419   .     A
C450   C452    1.402   .     A
C450   C1249   1.392   1_554 S
C451   C454    1.416   .     A
C451   C480    1.425   .     A
C452   C453    1.391   .     A
C452   H488    1.084   .     S
C453   C465    1.395   .     A
C453   F485    1.354   .     S
C454   F484    1.358   .     S
C454   C465    1.396   .     A
C455   C278    1.334   1_655 S
C455   H321    1.088   1_655 S
C457   F487    1.358   .     S
C457   C466    1.395   .     A
C457   C464    1.404   .     A
C458   C461    1.456   .     S
C458   C726    1.336   .     S
C458   O787    1.386   .     S
C459   H509    1.087   .     S
C459   C460    1.436   .     S
C460   O523    1.271   .     A
C460   O529    1.276   .     A
C461   O530    1.270   .     A
C461   O524    1.271   .     A
C462   C465    1.458   .     S
C462   O518    1.276   .     A
C462   O516    1.276   .     A
C463   C464    1.477   .     S
C463   O519    1.287   .     A
C463   O517    1.283   .     A
C464   C468    1.398   .     A
C466   C478    1.410   .     A
C466   F486    1.358   .     S
C467   H513    1.115   .     S
C467   C736    1.525   .     S
C467   H779    1.115   .     S
C467   O787    1.413   .     S
C468   H511    1.078   .     S
C468   C477    1.408   .     A
C469   H514    1.109   .     S
C469   C470    1.527   .     S
C470   H492    1.111   .     S
C470   H491    1.110   .     S
C471   C472    1.530   .     S
C471   O521    1.417   .     S
C471   H493    1.111   .     S
C471   H494    1.115   .     S
C472   H495    1.110   .     S
C472   H496    1.111   .     S
C472   C473    1.526   .     S
C473   H500    1.111   .     S
C473   H497    1.111   .     S
C474   C475    1.533   .     S
C474   H502    1.116   .     S
C474   H501    1.111   .     S
C474   O522    1.417   .     S
C475   H504    1.111   .     S
C475   H503    1.112   .     S
C476   H506    1.111   .     S
C476   H507    1.111   .     S
C476   H505    1.111   .     S
C476   C742    1.527   .     S
C477   C479    1.425   .     A
C477   C478    1.420   .     A
C478   C1283   1.402   .     S
C479   C1281   1.421   .     S
C480   C481    1.422   .     A
C480   C1280   1.421   1_554 S
C481   C482    1.395   .     A
C481   O521    1.386   .     S
C482   F483    1.359   .     S
C482   C1279   1.402   1_554 S
H489   C736    1.112   .     S
H490   C737    1.111   .     S
H498   C295    1.109   1_655 S
H508   C278    1.086   1_655 S
O515   Zn533   1.934   .     S
O515   Zn532   1.939   .     S
O515   Zn534   1.934   .     S
O515   Zn531   1.953   .     S
O516   Zn532   1.922   .     S
O517   Zn534   1.929   .     S
O518   Zn533   1.924   .     S
O519   Zn531   1.919   .     S
O523   Zn531   1.929   .     S
O524   Zn534   1.931   .     S
O525   Zn532   1.931   .     S
O526   Zn533   1.938   .     S
O527   Zn534   1.934   .     S
O528   Zn531   1.928   .     S
O529   Zn532   1.936   .     S
O530   Zn533   1.931   .     S
C535   C545    1.438   .     S
C535   O616    1.269   .     A
C535   O614    1.269   .     A
C536   C537    1.392   .     A
C536   O611    1.385   .     S
C536   C568    1.427   .     A
C537   H599    1.084   .     S
C537   C1340   1.392   .     S
C538   O615    1.279   .     A
C538   C544    1.455   .     S
C538   O617    1.276   .     A
C539   C540    1.419   .     A
C539   C541    1.402   .     A
C539   C1338   1.392   1_554 S
C540   C543    1.416   .     A
C540   C569    1.425   .     A
C541   C542    1.391   .     A
C541   H577    1.084   .     S
C542   C554    1.395   .     A
C542   F574    1.354   .     S
C543   F573    1.358   .     S
C543   C554    1.396   .     A
C544   C634    1.334   .     S
C544   H677    1.088   .     S
C545   C722    1.334   1_455 S
C545   H775    1.086   1_455 S
C546   F576    1.358   .     S
C546   C555    1.395   .     A
C546   C553    1.404   .     A
C547   C550    1.456   .     S
C547   C14     1.336   1_565 S
C547   O75     1.386   1_565 S
C548   H598    1.087   .     S
C548   C549    1.436   .     S
C549   O612    1.271   .     A
C549   O618    1.276   .     A
C550   O619    1.270   .     A
C550   O613    1.271   .     A
C551   C554    1.458   .     S
C551   O607    1.276   .     A
C551   O605    1.276   .     A
C552   C553    1.477   .     S
C552   O608    1.287   .     A
C552   O606    1.283   .     A
C553   C557    1.398   .     A
C555   C567    1.410   .     A
C555   F575    1.358   .     S
C556   H602    1.115   .     S
C556   C24     1.525   1_565 S
C556   H67     1.115   1_565 S
C556   O75     1.413   1_565 S
C557   H600    1.078   .     S
C557   C566    1.408   .     A
C558   H603    1.109   .     S
C558   C559    1.527   .     S
C559   H581    1.111   .     S
C559   H580    1.110   .     S
C560   C561    1.530   .     S
C560   O610    1.417   .     S
C560   H582    1.111   .     S
C560   H583    1.115   .     S
C561   H584    1.110   .     S
C561   H585    1.111   .     S
C561   C562    1.526   .     S
C562   H589    1.111   .     S
C562   H586    1.111   .     S
C562   H765    1.109   1_455 S
C563   C564    1.533   .     S
C563   H591    1.116   .     S
C563   H590    1.111   .     S
C563   O611    1.417   .     S
C564   H593    1.111   .     S
C564   H592    1.112   .     S
C565   H595    1.111   .     S
C565   H596    1.111   .     S
C565   H594    1.111   .     S
C565   C30     1.527   1_565 S
C566   C568    1.425   .     A
C566   C567    1.420   .     A
C567   C1372   1.402   .     S
C568   C1370   1.421   .     S
C569   C570    1.422   .     A
C569   C1369   1.421   1_554 S
C570   C571    1.395   .     A
C570   O610    1.386   .     S
C571   F572    1.359   .     S
C571   C1368   1.402   1_554 S
H578   C24     1.112   1_565 S
H579   C25     1.111   1_565 S
H587   C651    1.109   .     S
H588   C722    1.088   1_455 S
H597   C634    1.086   .     S
O604   Zn622   1.934   .     S
O604   Zn621   1.939   .     S
O604   Zn623   1.934   .     S
O604   Zn620   1.953   .     S
O605   Zn621   1.922   .     S
O606   Zn623   1.929   .     S
O607   Zn622   1.924   .     S
O608   Zn620   1.919   .     S
O612   Zn620   1.929   .     S
O613   Zn623   1.931   .     S
O614   Zn621   1.931   .     S
O615   Zn622   1.938   .     S
O616   Zn623   1.934   .     S
O617   Zn620   1.928   .     S
O618   Zn621   1.936   .     S
O619   Zn622   1.931   .     S
C624   C634    1.438   .     S
C624   O705    1.269   .     A
C624   O703    1.269   .     A
C625   C626    1.392   .     A
C625   O700    1.385   .     S
C625   C657    1.427   .     A
C626   H688    1.084   .     S
C626   C1429   1.392   .     S
C627   O704    1.279   .     A
C627   C633    1.455   .     S
C627   O706    1.276   .     A
C628   C629    1.419   .     A
C628   C630    1.402   .     A
C628   C1427   1.392   1_554 S
C629   C632    1.416   .     A
C629   C658    1.425   .     A
C630   C631    1.391   .     A
C630   H666    1.084   .     S
C631   C643    1.395   .     A
C631   F663    1.354   .     S
C632   F662    1.358   .     S
C632   C643    1.396   .     A
C633   C723    1.334   .     S
C633   H766    1.088   .     S
C635   F665    1.358   .     S
C635   C644    1.395   .     A
C635   C642    1.404   .     A
C636   C639    1.456   .     S
C636   C103    1.336   1_565 S
C636   O164    1.386   1_565 S
C637   H687    1.087   .     S
C637   C638    1.436   .     S
C638   O701    1.271   .     A
C638   O707    1.276   .     A
C639   O708    1.270   .     A
C639   O702    1.271   .     A
C640   C643    1.458   .     S
C640   O696    1.276   .     A
C640   O694    1.276   .     A
C641   C642    1.477   .     S
C641   O697    1.287   .     A
C641   O695    1.283   .     A
C642   C646    1.398   .     A
C644   C656    1.410   .     A
C644   F664    1.358   .     S
C645   H691    1.115   .     S
C645   C113    1.525   1_565 S
C645   H156    1.115   1_565 S
C645   O164    1.413   1_565 S
C646   H689    1.078   .     S
C646   C655    1.408   .     A
C647   H692    1.109   .     S
C647   C648    1.527   .     S
C648   H670    1.111   .     S
C648   H669    1.110   .     S
C649   C650    1.530   .     S
C649   O699    1.417   .     S
C649   H671    1.111   .     S
C649   H672    1.115   .     S
C650   H673    1.110   .     S
C650   H674    1.111   .     S
C650   C651    1.526   .     S
C651   H678    1.111   .     S
C651   H675    1.111   .     S
C652   C653    1.533   .     S
C652   H680    1.116   .     S
C652   H679    1.111   .     S
C652   O700    1.417   .     S
C653   H682    1.111   .     S
C653   H681    1.112   .     S
C654   H684    1.111   .     S
C654   H685    1.111   .     S
C654   H683    1.111   .     S
C654   C119    1.527   1_565 S
C655   C657    1.425   .     A
C655   C656    1.420   .     A
C656   C1461   1.402   .     S
C657   C1459   1.421   .     S
C658   C659    1.422   .     A
C658   C1458   1.421   1_554 S
C659   C660    1.395   .     A
C659   O699    1.386   .     S
C660   F661    1.359   .     S
C660   C1457   1.402   1_554 S
H667   C113    1.112   1_565 S
H668   C114    1.111   1_565 S
H676   C740    1.109   .     S
H686   C723    1.086   .     S
O693   Zn711   1.934   .     S
O693   Zn710   1.939   .     S
O693   Zn712   1.934   .     S
O693   Zn709   1.953   .     S
O694   Zn710   1.922   .     S
O695   Zn712   1.929   .     S
O696   Zn711   1.924   .     S
O697   Zn709   1.919   .     S
O701   Zn709   1.929   .     S
O702   Zn712   1.931   .     S
O703   Zn710   1.931   .     S
O704   Zn711   1.938   .     S
O705   Zn712   1.934   .     S
O706   Zn709   1.928   .     S
O707   Zn710   1.936   .     S
O708   Zn711   1.931   .     S
C713   C723    1.438   .     S
C713   O794    1.269   .     A
C713   O792    1.269   .     A
C714   C715    1.392   .     A
C714   O789    1.385   .     S
C714   C746    1.427   .     A
C715   H777    1.084   .     S
C715   C1518   1.392   .     S
C716   O793    1.279   .     A
C716   C722    1.455   .     S
C716   O795    1.276   .     A
C717   C718    1.419   .     A
C717   C719    1.402   .     A
C717   C1516   1.392   1_554 S
C718   C721    1.416   .     A
C718   C747    1.425   .     A
C719   C720    1.391   .     A
C719   H755    1.084   .     S
C720   C732    1.395   .     A
C720   F752    1.354   .     S
C721   F751    1.358   .     S
C721   C732    1.396   .     A
C722   C545    1.334   1_655 S
C722   H588    1.088   1_655 S
C724   F754    1.358   .     S
C724   C733    1.395   .     A
C724   C731    1.404   .     A
C725   C728    1.456   .     S
C725   C192    1.336   1_565 S
C725   O253    1.386   1_565 S
C726   H776    1.087   .     S
C726   C727    1.436   .     S
C727   O790    1.271   .     A
C727   O796    1.276   .     A
C728   O797    1.270   .     A
C728   O791    1.271   .     A
C729   C732    1.458   .     S
C729   O785    1.276   .     A
C729   O783    1.276   .     A
C730   C731    1.477   .     S
C730   O786    1.287   .     A
C730   O784    1.283   .     A
C731   C735    1.398   .     A
C733   C745    1.410   .     A
C733   F753    1.358   .     S
C734   H780    1.115   .     S
C734   C202    1.525   1_565 S
C734   H245    1.115   1_565 S
C734   O253    1.413   1_565 S
C735   H778    1.078   .     S
C735   C744    1.408   .     A
C736   H781    1.109   .     S
C736   C737    1.527   .     S
C737   H759    1.111   .     S
C737   H758    1.110   .     S
C738   C739    1.530   .     S
C738   O788    1.417   .     S
C738   H760    1.111   .     S
C738   H761    1.115   .     S
C739   H762    1.110   .     S
C739   H763    1.111   .     S
C739   C740    1.526   .     S
C740   H767    1.111   .     S
C740   H764    1.111   .     S
C741   C742    1.533   .     S
C741   H769    1.116   .     S
C741   H768    1.111   .     S
C741   O789    1.417   .     S
C742   H771    1.111   .     S
C742   H770    1.112   .     S
C743   H773    1.111   .     S
C743   H774    1.111   .     S
C743   H772    1.111   .     S
C743   C208    1.527   1_565 S
C744   C746    1.425   .     A
C744   C745    1.420   .     A
C745   C1550   1.402   .     S
C746   C1548   1.421   .     S
C747   C748    1.422   .     A
C747   C1547   1.421   1_554 S
C748   C749    1.395   .     A
C748   O788    1.386   .     S
C749   F750    1.359   .     S
C749   C1546   1.402   1_554 S
H756   C202    1.112   1_565 S
H757   C203    1.111   1_565 S
H765   C562    1.109   1_655 S
H775   C545    1.086   1_655 S
O782   Zn800   1.934   .     S
O782   Zn799   1.939   .     S
O782   Zn801   1.934   .     S
O782   Zn798   1.953   .     S
O783   Zn799   1.922   .     S
O784   Zn801   1.929   .     S
O785   Zn800   1.924   .     S
O786   Zn798   1.919   .     S
O790   Zn798   1.929   .     S
O791   Zn801   1.931   .     S
O792   Zn799   1.931   .     S
O793   Zn800   1.938   .     S
O794   Zn801   1.934   .     S
O795   Zn798   1.928   .     S
O796   Zn799   1.936   .     S
O797   Zn800   1.931   .     S
C802   C812    1.438   .     S
C802   O883    1.269   .     A
C802   O881    1.269   .     A
C803   C804    1.392   .     A
C803   O878    1.385   .     S
C803   C835    1.427   .     A
C804   H866    1.084   .     S
C804   C5      1.392   1_556 S
C805   O882    1.279   .     A
C805   C811    1.455   .     S
C805   O884    1.276   .     A
C806   C807    1.419   .     A
C806   C808    1.402   .     A
C807   C810    1.416   .     A
C807   C836    1.425   .     A
C808   C809    1.391   .     A
C808   H844    1.084   .     S
C809   C821    1.395   .     A
C809   F841    1.354   .     S
C810   F840    1.358   .     S
C810   C821    1.396   .     A
C811   C901    1.334   .     S
C811   H944    1.088   .     S
C812   C989    1.334   1_455 S
C812   H1042   1.086   1_455 S
C813   F843    1.358   .     S
C813   C822    1.395   .     A
C813   C820    1.404   .     A
C814   C817    1.456   .     S
C814   C1082   1.336   .     S
C814   O1143   1.386   .     S
C815   H865    1.087   .     S
C815   C816    1.436   .     S
C815   C1348   1.336   1_545 S
C816   O879    1.271   .     A
C816   O885    1.276   .     A
C817   O886    1.270   .     A
C817   O880    1.271   .     A
C818   C821    1.458   .     S
C818   O874    1.276   .     A
C818   O872    1.276   .     A
C819   C820    1.477   .     S
C819   O875    1.287   .     A
C819   O873    1.283   .     A
C820   C824    1.398   .     A
C822   C834    1.410   .     A
C822   F842    1.358   .     S
C823   H869    1.115   .     S
C823   C1092   1.525   .     S
C823   H1135   1.115   .     S
C823   O1143   1.413   .     S
C824   H867    1.078   .     S
C824   C833    1.408   .     A
C825   H870    1.109   .     S
C825   C826    1.527   .     S
C825   C1357   1.525   1_545 S
C825   H1379   1.112   1_545 S
C826   H848    1.111   .     S
C826   H847    1.110   .     S
C826   H1380   1.111   1_545 S
C827   C828    1.530   .     S
C827   O877    1.417   .     S
C827   H849    1.111   .     S
C827   H850    1.115   .     S
C828   H851    1.110   .     S
C828   H852    1.111   .     S
C828   C829    1.526   .     S
C829   H856    1.111   .     S
C829   H853    1.111   .     S
C829   H1032   1.109   1_455 S
C830   C831    1.533   .     S
C830   H858    1.116   .     S
C830   H857    1.111   .     S
C830   O878    1.417   .     S
C831   H860    1.111   .     S
C831   H859    1.112   .     S
C831   C1366   1.527   1_545 S
C832   H862    1.111   .     S
C832   H863    1.111   .     S
C832   H861    1.111   .     S
C832   C1098   1.527   .     S
C833   C835    1.425   .     A
C833   C834    1.420   .     A
C834   C37     1.402   1_556 S
C835   C35     1.421   1_556 S
C836   C837    1.422   .     A
C837   C838    1.395   .     A
C837   O877    1.386   .     S
C838   F839    1.359   .     S
H845   C1092   1.112   .     S
H846   C1093   1.111   .     S
H854   C918    1.109   .     S
H855   C989    1.088   1_455 S
H864   C901    1.086   .     S
H868   C1357   1.115   1_545 S
O871   Zn889   1.934   .     S
O871   Zn888   1.939   .     S
O871   Zn890   1.934   .     S
O871   Zn887   1.953   .     S
O872   Zn888   1.922   .     S
O873   Zn890   1.929   .     S
O874   Zn889   1.924   .     S
O875   Zn887   1.919   .     S
O876   C1348   1.386   1_545 S
O876   C1357   1.413   1_545 S
O879   Zn887   1.929   .     S
O880   Zn890   1.931   .     S
O881   Zn888   1.931   .     S
O882   Zn889   1.938   .     S
O883   Zn890   1.934   .     S
O884   Zn887   1.928   .     S
O885   Zn888   1.936   .     S
O886   Zn889   1.931   .     S
C891   C901    1.438   .     S
C891   O972    1.269   .     A
C891   O970    1.269   .     A
C892   C893    1.392   .     A
C892   O967    1.385   .     S
C892   C924    1.427   .     A
C893   H955    1.084   .     S
C893   C94     1.392   1_556 S
C894   O971    1.279   .     A
C894   C900    1.455   .     S
C894   O973    1.276   .     A
C895   C896    1.419   .     A
C895   C897    1.402   .     A
C896   C899    1.416   .     A
C896   C925    1.425   .     A
C897   C898    1.391   .     A
C897   H933    1.084   .     S
C898   C910    1.395   .     A
C898   F930    1.354   .     S
C899   F929    1.358   .     S
C899   C910    1.396   .     A
C900   C990    1.334   .     S
C900   H1033   1.088   .     S
C902   F932    1.358   .     S
C902   C911    1.395   .     A
C902   C909    1.404   .     A
C903   C906    1.456   .     S
C903   C1171   1.336   .     S
C903   O1232   1.386   .     S
C904   H954    1.087   .     S
C904   C905    1.436   .     S
C904   C1437   1.336   1_545 S
C905   O968    1.271   .     A
C905   O974    1.276   .     A
C906   O975    1.270   .     A
C906   O969    1.271   .     A
C907   C910    1.458   .     S
C907   O963    1.276   .     A
C907   O961    1.276   .     A
C908   C909    1.477   .     S
C908   O964    1.287   .     A
C908   O962    1.283   .     A
C909   C913    1.398   .     A
C911   C923    1.410   .     A
C911   F931    1.358   .     S
C912   H958    1.115   .     S
C912   C1181   1.525   .     S
C912   H1224   1.115   .     S
C912   O1232   1.413   .     S
C913   H956    1.078   .     S
C913   C922    1.408   .     A
C914   H959    1.109   .     S
C914   C915    1.527   .     S
C914   C1446   1.525   1_545 S
C914   H1468   1.112   1_545 S
C915   H937    1.111   .     S
C915   H936    1.110   .     S
C915   H1469   1.111   1_545 S
C916   C917    1.530   .     S
C916   O966    1.417   .     S
C916   H938    1.111   .     S
C916   H939    1.115   .     S
C917   H940    1.110   .     S
C917   H941    1.111   .     S
C917   C918    1.526   .     S
C918   H945    1.111   .     S
C918   H942    1.111   .     S
C919   C920    1.533   .     S
C919   H947    1.116   .     S
C919   H946    1.111   .     S
C919   O967    1.417   .     S
C920   H949    1.111   .     S
C920   H948    1.112   .     S
C920   C1455   1.527   1_545 S
C921   H951    1.111   .     S
C921   H952    1.111   .     S
C921   H950    1.111   .     S
C921   C1187   1.527   .     S
C922   C924    1.425   .     A
C922   C923    1.420   .     A
C923   C126    1.402   1_556 S
C924   C124    1.421   1_556 S
C925   C926    1.422   .     A
C926   C927    1.395   .     A
C926   O966    1.386   .     S
C927   F928    1.359   .     S
H934   C1181   1.112   .     S
H935   C1182   1.111   .     S
H943   C1007   1.109   .     S
H953   C990    1.086   .     S
H957   C1446   1.115   1_545 S
O960   Zn978   1.934   .     S
O960   Zn977   1.939   .     S
O960   Zn979   1.934   .     S
O960   Zn976   1.953   .     S
O961   Zn977   1.922   .     S
O962   Zn979   1.929   .     S
O963   Zn978   1.924   .     S
O964   Zn976   1.919   .     S
O965   C1437   1.386   1_545 S
O965   C1446   1.413   1_545 S
O968   Zn976   1.929   .     S
O969   Zn979   1.931   .     S
O970   Zn977   1.931   .     S
O971   Zn978   1.938   .     S
O972   Zn979   1.934   .     S
O973   Zn976   1.928   .     S
O974   Zn977   1.936   .     S
O975   Zn978   1.931   .     S
C980   C990    1.438   .     S
C980   O1061   1.269   .     A
C980   O1059   1.269   .     A
C981   C982    1.392   .     A
C981   O1056   1.385   .     S
C981   C1013   1.427   .     A
C982   H1044   1.084   .     S
C982   C183    1.392   1_556 S
C983   O1060   1.279   .     A
C983   C989    1.455   .     S
C983   O1062   1.276   .     A
C984   C985    1.419   .     A
C984   C986    1.402   .     A
C985   C988    1.416   .     A
C985   C1014   1.425   .     A
C986   C987    1.391   .     A
C986   H1022   1.084   .     S
C987   C999    1.395   .     A
C987   F1019   1.354   .     S
C988   F1018   1.358   .     S
C988   C999    1.396   .     A
C989   C812    1.334   1_655 S
C989   H855    1.088   1_655 S
C991   F1021   1.358   .     S
C991   C1000   1.395   .     A
C991   C998    1.404   .     A
C992   C995    1.456   .     S
C992   C1260   1.336   .     S
C992   O1321   1.386   .     S
C993   H1043   1.087   .     S
C993   C994    1.436   .     S
C993   C1526   1.336   1_545 S
C994   O1057   1.271   .     A
C994   O1063   1.276   .     A
C995   O1064   1.270   .     A
C995   O1058   1.271   .     A
C996   C999    1.458   .     S
C996   O1052   1.276   .     A
C996   O1050   1.276   .     A
C997   C998    1.477   .     S
C997   O1053   1.287   .     A
C997   O1051   1.283   .     A
C998   C1002   1.398   .     A
C1000  C1012   1.410   .     A
C1000  F1020   1.358   .     S
C1001  H1047   1.115   .     S
C1001  C1270   1.525   .     S
C1001  H1313   1.115   .     S
C1001  O1321   1.413   .     S
C1002  H1045   1.078   .     S
C1002  C1011   1.408   .     A
C1003  H1048   1.109   .     S
C1003  C1004   1.527   .     S
C1003  C1535   1.525   1_545 S
C1003  H1557   1.112   1_545 S
C1004  H1026   1.111   .     S
C1004  H1025   1.110   .     S
C1004  H1558   1.111   1_545 S
C1005  C1006   1.530   .     S
C1005  O1055   1.417   .     S
C1005  H1027   1.111   .     S
C1005  H1028   1.115   .     S
C1006  H1029   1.110   .     S
C1006  H1030   1.111   .     S
C1006  C1007   1.526   .     S
C1007  H1034   1.111   .     S
C1007  H1031   1.111   .     S
C1008  C1009   1.533   .     S
C1008  H1036   1.116   .     S
C1008  H1035   1.111   .     S
C1008  O1056   1.417   .     S
C1009  H1038   1.111   .     S
C1009  H1037   1.112   .     S
C1009  C1544   1.527   1_545 S
C1010  H1040   1.111   .     S
C1010  H1041   1.111   .     S
C1010  H1039   1.111   .     S
C1010  C1276   1.527   .     S
C1011  C1013   1.425   .     A
C1011  C1012   1.420   .     A
C1012  C215    1.402   1_556 S
C1013  C213    1.421   1_556 S
C1014  C1015   1.422   .     A
C1015  C1016   1.395   .     A
C1015  O1055   1.386   .     S
C1016  F1017   1.359   .     S
H1023  C1270   1.112   .     S
H1024  C1271   1.111   .     S
H1032  C829    1.109   1_655 S
H1042  C812    1.086   1_655 S
H1046  C1535   1.115   1_545 S
O1049  Zn1067  1.934   .     S
O1049  Zn1066  1.939   .     S
O1049  Zn1068  1.934   .     S
O1049  Zn1065  1.953   .     S
O1050  Zn1066  1.922   .     S
O1051  Zn1068  1.929   .     S
O1052  Zn1067  1.924   .     S
O1053  Zn1065  1.919   .     S
O1054  C1526   1.386   1_545 S
O1054  C1535   1.413   1_545 S
O1057  Zn1065  1.929   .     S
O1058  Zn1068  1.931   .     S
O1059  Zn1066  1.931   .     S
O1060  Zn1067  1.938   .     S
O1061  Zn1068  1.934   .     S
O1062  Zn1065  1.928   .     S
O1063  Zn1066  1.936   .     S
O1064  Zn1067  1.931   .     S
C1069  C1079   1.438   .     S
C1069  O1150   1.269   .     A
C1069  O1148   1.269   .     A
C1070  C1071   1.392   .     A
C1070  O1145   1.385   .     S
C1070  C1102   1.427   .     A
C1071  H1133   1.084   .     S
C1071  C272    1.392   1_556 S
C1072  O1149   1.279   .     A
C1072  C1078   1.455   .     S
C1072  O1151   1.276   .     A
C1073  C1074   1.419   .     A
C1073  C1075   1.402   .     A
C1074  C1077   1.416   .     A
C1074  C1103   1.425   .     A
C1075  C1076   1.391   .     A
C1075  H1111   1.084   .     S
C1076  C1088   1.395   .     A
C1076  F1108   1.354   .     S
C1077  F1107   1.358   .     S
C1077  C1088   1.396   .     A
C1078  C1168   1.334   .     S
C1078  H1211   1.088   .     S
C1079  C1256   1.334   1_455 S
C1079  H1309   1.086   1_455 S
C1080  F1110   1.358   .     S
C1080  C1089   1.395   .     A
C1080  C1087   1.404   .     A
C1081  C1084   1.456   .     S
C1081  C1349   1.336   .     S
C1081  O1410   1.386   .     S
C1082  H1132   1.087   .     S
C1082  C1083   1.436   .     S
C1083  O1146   1.271   .     A
C1083  O1152   1.276   .     A
C1084  O1153   1.270   .     A
C1084  O1147   1.271   .     A
C1085  C1088   1.458   .     S
C1085  O1141   1.276   .     A
C1085  O1139   1.276   .     A
C1086  C1087   1.477   .     S
C1086  O1142   1.287   .     A
C1086  O1140   1.283   .     A
C1087  C1091   1.398   .     A
C1089  C1101   1.410   .     A
C1089  F1109   1.358   .     S
C1090  H1136   1.115   .     S
C1090  C1359   1.525   .     S
C1090  H1402   1.115   .     S
C1090  O1410   1.413   .     S
C1091  H1134   1.078   .     S
C1091  C1100   1.408   .     A
C1092  H1137   1.109   .     S
C1092  C1093   1.527   .     S
C1093  H1115   1.111   .     S
C1093  H1114   1.110   .     S
C1094  C1095   1.530   .     S
C1094  O1144   1.417   .     S
C1094  H1116   1.111   .     S
C1094  H1117   1.115   .     S
C1095  H1118   1.110   .     S
C1095  H1119   1.111   .     S
C1095  C1096   1.526   .     S
C1096  H1123   1.111   .     S
C1096  H1120   1.111   .     S
C1096  H1299   1.109   1_455 S
C1097  C1098   1.533   .     S
C1097  H1125   1.116   .     S
C1097  H1124   1.111   .     S
C1097  O1145   1.417   .     S
C1098  H1127   1.111   .     S
C1098  H1126   1.112   .     S
C1099  H1129   1.111   .     S
C1099  H1130   1.111   .     S
C1099  H1128   1.111   .     S
C1099  C1365   1.527   .     S
C1100  C1102   1.425   .     A
C1100  C1101   1.420   .     A
C1101  C304    1.402   1_556 S
C1102  C302    1.421   1_556 S
C1103  C1104   1.422   .     A
C1104  C1105   1.395   .     A
C1104  O1144   1.386   .     S
C1105  F1106   1.359   .     S
H1112  C1359   1.112   .     S
H1113  C1360   1.111   .     S
H1121  C1185   1.109   .     S
H1122  C1256   1.088   1_455 S
H1131  C1168   1.086   .     S
O1138  Zn1156  1.934   .     S
O1138  Zn1155  1.939   .     S
O1138  Zn1157  1.934   .     S
O1138  Zn1154  1.953   .     S
O1139  Zn1155  1.922   .     S
O1140  Zn1157  1.929   .     S
O1141  Zn1156  1.924   .     S
O1142  Zn1154  1.919   .     S
O1146  Zn1154  1.929   .     S
O1147  Zn1157  1.931   .     S
O1148  Zn1155  1.931   .     S
O1149  Zn1156  1.938   .     S
O1150  Zn1157  1.934   .     S
O1151  Zn1154  1.928   .     S
O1152  Zn1155  1.936   .     S
O1153  Zn1156  1.931   .     S
C1158  C1168   1.438   .     S
C1158  O1239   1.269   .     A
C1158  O1237   1.269   .     A
C1159  C1160   1.392   .     A
C1159  O1234   1.385   .     S
C1159  C1191   1.427   .     A
C1160  H1222   1.084   .     S
C1160  C361    1.392   1_556 S
C1161  O1238   1.279   .     A
C1161  C1167   1.455   .     S
C1161  O1240   1.276   .     A
C1162  C1163   1.419   .     A
C1162  C1164   1.402   .     A
C1163  C1166   1.416   .     A
C1163  C1192   1.425   .     A
C1164  C1165   1.391   .     A
C1164  H1200   1.084   .     S
C1165  C1177   1.395   .     A
C1165  F1197   1.354   .     S
C1166  F1196   1.358   .     S
C1166  C1177   1.396   .     A
C1167  C1257   1.334   .     S
C1167  H1300   1.088   .     S
C1169  F1199   1.358   .     S
C1169  C1178   1.395   .     A
C1169  C1176   1.404   .     A
C1170  C1173   1.456   .     S
C1170  C1438   1.336   .     S
C1170  O1499   1.386   .     S
C1171  H1221   1.087   .     S
C1171  C1172   1.436   .     S
C1172  O1235   1.271   .     A
C1172  O1241   1.276   .     A
C1173  O1242   1.270   .     A
C1173  O1236   1.271   .     A
C1174  C1177   1.458   .     S
C1174  O1230   1.276   .     A
C1174  O1228   1.276   .     A
C1175  C1176   1.477   .     S
C1175  O1231   1.287   .     A
C1175  O1229   1.283   .     A
C1176  C1180   1.398   .     A
C1178  C1190   1.410   .     A
C1178  F1198   1.358   .     S
C1179  H1225   1.115   .     S
C1179  C1448   1.525   .     S
C1179  H1491   1.115   .     S
C1179  O1499   1.413   .     S
C1180  H1223   1.078   .     S
C1180  C1189   1.408   .     A
C1181  H1226   1.109   .     S
C1181  C1182   1.527   .     S
C1182  H1204   1.111   .     S
C1182  H1203   1.110   .     S
C1183  C1184   1.530   .     S
C1183  O1233   1.417   .     S
C1183  H1205   1.111   .     S
C1183  H1206   1.115   .     S
C1184  H1207   1.110   .     S
C1184  H1208   1.111   .     S
C1184  C1185   1.526   .     S
C1185  H1212   1.111   .     S
C1185  H1209   1.111   .     S
C1186  C1187   1.533   .     S
C1186  H1214   1.116   .     S
C1186  H1213   1.111   .     S
C1186  O1234   1.417   .     S
C1187  H1216   1.111   .     S
C1187  H1215   1.112   .     S
C1188  H1218   1.111   .     S
C1188  H1219   1.111   .     S
C1188  H1217   1.111   .     S
C1188  C1454   1.527   .     S
C1189  C1191   1.425   .     A
C1189  C1190   1.420   .     A
C1190  C393    1.402   1_556 S
C1191  C391    1.421   1_556 S
C1192  C1193   1.422   .     A
C1193  C1194   1.395   .     A
C1193  O1233   1.386   .     S
C1194  F1195   1.359   .     S
H1201  C1448   1.112   .     S
H1202  C1449   1.111   .     S
H1210  C1274   1.109   .     S
H1220  C1257   1.086   .     S
O1227  Zn1245  1.934   .     S
O1227  Zn1244  1.939   .     S
O1227  Zn1246  1.934   .     S
O1227  Zn1243  1.953   .     S
O1228  Zn1244  1.922   .     S
O1229  Zn1246  1.929   .     S
O1230  Zn1245  1.924   .     S
O1231  Zn1243  1.919   .     S
O1235  Zn1243  1.929   .     S
O1236  Zn1246  1.931   .     S
O1237  Zn1244  1.931   .     S
O1238  Zn1245  1.938   .     S
O1239  Zn1246  1.934   .     S
O1240  Zn1243  1.928   .     S
O1241  Zn1244  1.936   .     S
O1242  Zn1245  1.931   .     S
C1247  C1257   1.438   .     S
C1247  O1328   1.269   .     A
C1247  O1326   1.269   .     A
C1248  C1249   1.392   .     A
C1248  O1323   1.385   .     S
C1248  C1280   1.427   .     A
C1249  H1311   1.084   .     S
C1249  C450    1.392   1_556 S
C1250  O1327   1.279   .     A
C1250  C1256   1.455   .     S
C1250  O1329   1.276   .     A
C1251  C1252   1.419   .     A
C1251  C1253   1.402   .     A
C1252  C1255   1.416   .     A
C1252  C1281   1.425   .     A
C1253  C1254   1.391   .     A
C1253  H1289   1.084   .     S
C1254  C1266   1.395   .     A
C1254  F1286   1.354   .     S
C1255  F1285   1.358   .     S
C1255  C1266   1.396   .     A
C1256  C1079   1.334   1_655 S
C1256  H1122   1.088   1_655 S
C1258  F1288   1.358   .     S
C1258  C1267   1.395   .     A
C1258  C1265   1.404   .     A
C1259  C1262   1.456   .     S
C1259  C1527   1.336   .     S
C1259  O1588   1.386   .     S
C1260  H1310   1.087   .     S
C1260  C1261   1.436   .     S
C1261  O1324   1.271   .     A
C1261  O1330   1.276   .     A
C1262  O1331   1.270   .     A
C1262  O1325   1.271   .     A
C1263  C1266   1.458   .     S
C1263  O1319   1.276   .     A
C1263  O1317   1.276   .     A
C1264  C1265   1.477   .     S
C1264  O1320   1.287   .     A
C1264  O1318   1.283   .     A
C1265  C1269   1.398   .     A
C1267  C1279   1.410   .     A
C1267  F1287   1.358   .     S
C1268  H1314   1.115   .     S
C1268  C1537   1.525   .     S
C1268  H1580   1.115   .     S
C1268  O1588   1.413   .     S
C1269  H1312   1.078   .     S
C1269  C1278   1.408   .     A
C1270  H1315   1.109   .     S
C1270  C1271   1.527   .     S
C1271  H1293   1.111   .     S
C1271  H1292   1.110   .     S
C1272  C1273   1.530   .     S
C1272  O1322   1.417   .     S
C1272  H1294   1.111   .     S
C1272  H1295   1.115   .     S
C1273  H1296   1.110   .     S
C1273  H1297   1.111   .     S
C1273  C1274   1.526   .     S
C1274  H1301   1.111   .     S
C1274  H1298   1.111   .     S
C1275  C1276   1.533   .     S
C1275  H1303   1.116   .     S
C1275  H1302   1.111   .     S
C1275  O1323   1.417   .     S
C1276  H1305   1.111   .     S
C1276  H1304   1.112   .     S
C1277  H1307   1.111   .     S
C1277  H1308   1.111   .     S
C1277  H1306   1.111   .     S
C1277  C1543   1.527   .     S
C1278  C1280   1.425   .     A
C1278  C1279   1.420   .     A
C1279  C482    1.402   1_556 S
C1280  C480    1.421   1_556 S
C1281  C1282   1.422   .     A
C1282  C1283   1.395   .     A
C1282  O1322   1.386   .     S
C1283  F1284   1.359   .     S
H1290  C1537   1.112   .     S
H1291  C1538   1.111   .     S
H1299  C1096   1.109   1_655 S
H1309  C1079   1.086   1_655 S
O1316  Zn1334  1.934   .     S
O1316  Zn1333  1.939   .     S
O1316  Zn1335  1.934   .     S
O1316  Zn1332  1.953   .     S
O1317  Zn1333  1.922   .     S
O1318  Zn1335  1.929   .     S
O1319  Zn1334  1.924   .     S
O1320  Zn1332  1.919   .     S
O1324  Zn1332  1.929   .     S
O1325  Zn1335  1.931   .     S
O1326  Zn1333  1.931   .     S
O1327  Zn1334  1.938   .     S
O1328  Zn1335  1.934   .     S
O1329  Zn1332  1.928   .     S
O1330  Zn1333  1.936   .     S
O1331  Zn1334  1.931   .     S
C1336  C1346   1.438   .     S
C1336  O1417   1.269   .     A
C1336  O1415   1.269   .     A
C1337  C1338   1.392   .     A
C1337  O1412   1.385   .     S
C1337  C1369   1.427   .     A
C1338  H1400   1.084   .     S
C1338  C539    1.392   1_556 S
C1339  O1416   1.279   .     A
C1339  C1345   1.455   .     S
C1339  O1418   1.276   .     A
C1340  C1341   1.419   .     A
C1340  C1342   1.402   .     A
C1341  C1344   1.416   .     A
C1341  C1370   1.425   .     A
C1342  C1343   1.391   .     A
C1342  H1378   1.084   .     S
C1343  C1355   1.395   .     A
C1343  F1375   1.354   .     S
C1344  F1374   1.358   .     S
C1344  C1355   1.396   .     A
C1345  C1435   1.334   .     S
C1345  H1478   1.088   .     S
C1346  C1523   1.334   1_455 S
C1346  H1576   1.086   1_455 S
C1347  F1377   1.358   .     S
C1347  C1356   1.395   .     A
C1347  C1354   1.404   .     A
C1348  C1351   1.456   .     S
C1348  C815    1.336   1_565 S
C1348  O876    1.386   1_565 S
C1349  H1399   1.087   .     S
C1349  C1350   1.436   .     S
C1350  O1413   1.271   .     A
C1350  O1419   1.276   .     A
C1351  O1420   1.270   .     A
C1351  O1414   1.271   .     A
C1352  C1355   1.458   .     S
C1352  O1408   1.276   .     A
C1352  O1406   1.276   .     A
C1353  C1354   1.477   .     S
C1353  O1409   1.287   .     A
C1353  O1407   1.283   .     A
C1354  C1358   1.398   .     A
C1356  C1368   1.410   .     A
C1356  F1376   1.358   .     S
C1357  H1403   1.115   .     S
C1357  C825    1.525   1_565 S
C1357  H868    1.115   1_565 S
C1357  O876    1.413   1_565 S
C1358  H1401   1.078   .     S
C1358  C1367   1.408   .     A
C1359  H1404   1.109   .     S
C1359  C1360   1.527   .     S
C1360  H1382   1.111   .     S
C1360  H1381   1.110   .     S
C1361  C1362   1.530   .     S
C1361  O1411   1.417   .     S
C1361  H1383   1.111   .     S
C1361  H1384   1.115   .     S
C1362  H1385   1.110   .     S
C1362  H1386   1.111   .     S
C1362  C1363   1.526   .     S
C1363  H1390   1.111   .     S
C1363  H1387   1.111   .     S
C1363  H1566   1.109   1_455 S
C1364  C1365   1.533   .     S
C1364  H1392   1.116   .     S
C1364  H1391   1.111   .     S
C1364  O1412   1.417   .     S
C1365  H1394   1.111   .     S
C1365  H1393   1.112   .     S
C1366  H1396   1.111   .     S
C1366  H1397   1.111   .     S
C1366  H1395   1.111   .     S
C1366  C831    1.527   1_565 S
C1367  C1369   1.425   .     A
C1367  C1368   1.420   .     A
C1368  C571    1.402   1_556 S
C1369  C569    1.421   1_556 S
C1370  C1371   1.422   .     A
C1371  C1372   1.395   .     A
C1371  O1411   1.386   .     S
C1372  F1373   1.359   .     S
H1379  C825    1.112   1_565 S
H1380  C826    1.111   1_565 S
H1388  C1452   1.109   .     S
H1389  C1523   1.088   1_455 S
H1398  C1435   1.086   .     S
O1405  Zn1423  1.934   .     S
O1405  Zn1422  1.939   .     S
O1405  Zn1424  1.934   .     S
O1405  Zn1421  1.953   .     S
O1406  Zn1422  1.922   .     S
O1407  Zn1424  1.929   .     S
O1408  Zn1423  1.924   .     S
O1409  Zn1421  1.919   .     S
O1413  Zn1421  1.929   .     S
O1414  Zn1424  1.931   .     S
O1415  Zn1422  1.931   .     S
O1416  Zn1423  1.938   .     S
O1417  Zn1424  1.934   .     S
O1418  Zn1421  1.928   .     S
O1419  Zn1422  1.936   .     S
O1420  Zn1423  1.931   .     S
C1425  C1435   1.438   .     S
C1425  O1506   1.269   .     A
C1425  O1504   1.269   .     A
C1426  C1427   1.392   .     A
C1426  O1501   1.385   .     S
C1426  C1458   1.427   .     A
C1427  H1489   1.084   .     S
C1427  C628    1.392   1_556 S
C1428  O1505   1.279   .     A
C1428  C1434   1.455   .     S
C1428  O1507   1.276   .     A
C1429  C1430   1.419   .     A
C1429  C1431   1.402   .     A
C1430  C1433   1.416   .     A
C1430  C1459   1.425   .     A
C1431  C1432   1.391   .     A
C1431  H1467   1.084   .     S
C1432  C1444   1.395   .     A
C1432  F1464   1.354   .     S
C1433  F1463   1.358   .     S
C1433  C1444   1.396   .     A
C1434  C1524   1.334   .     S
C1434  H1567   1.088   .     S
C1436  F1466   1.358   .     S
C1436  C1445   1.395   .     A
C1436  C1443   1.404   .     A
C1437  C1440   1.456   .     S
C1437  C904    1.336   1_565 S
C1437  O965    1.386   1_565 S
C1438  H1488   1.087   .     S
C1438  C1439   1.436   .     S
C1439  O1502   1.271   .     A
C1439  O1508   1.276   .     A
C1440  O1509   1.270   .     A
C1440  O1503   1.271   .     A
C1441  C1444   1.458   .     S
C1441  O1497   1.276   .     A
C1441  O1495   1.276   .     A
C1442  C1443   1.477   .     S
C1442  O1498   1.287   .     A
C1442  O1496   1.283   .     A
C1443  C1447   1.398   .     A
C1445  C1457   1.410   .     A
C1445  F1465   1.358   .     S
C1446  H1492   1.115   .     S
C1446  C914    1.525   1_565 S
C1446  H957    1.115   1_565 S
C1446  O965    1.413   1_565 S
C1447  H1490   1.078   .     S
C1447  C1456   1.408   .     A
C1448  H1493   1.109   .     S
C1448  C1449   1.527   .     S
C1449  H1471   1.111   .     S
C1449  H1470   1.110   .     S
C1450  C1451   1.530   .     S
C1450  O1500   1.417   .     S
C1450  H1472   1.111   .     S
C1450  H1473   1.115   .     S
C1451  H1474   1.110   .     S
C1451  H1475   1.111   .     S
C1451  C1452   1.526   .     S
C1452  H1479   1.111   .     S
C1452  H1476   1.111   .     S
C1453  C1454   1.533   .     S
C1453  H1481   1.116   .     S
C1453  H1480   1.111   .     S
C1453  O1501   1.417   .     S
C1454  H1483   1.111   .     S
C1454  H1482   1.112   .     S
C1455  H1485   1.111   .     S
C1455  H1486   1.111   .     S
C1455  H1484   1.111   .     S
C1455  C920    1.527   1_565 S
C1456  C1458   1.425   .     A
C1456  C1457   1.420   .     A
C1457  C660    1.402   1_556 S
C1458  C658    1.421   1_556 S
C1459  C1460   1.422   .     A
C1460  C1461   1.395   .     A
C1460  O1500   1.386   .     S
C1461  F1462   1.359   .     S
H1468  C914    1.112   1_565 S
H1469  C915    1.111   1_565 S
H1477  C1541   1.109   .     S
H1487  C1524   1.086   .     S
O1494  Zn1512  1.934   .     S
O1494  Zn1511  1.939   .     S
O1494  Zn1513  1.934   .     S
O1494  Zn1510  1.953   .     S
O1495  Zn1511  1.922   .     S
O1496  Zn1513  1.929   .     S
O1497  Zn1512  1.924   .     S
O1498  Zn1510  1.919   .     S
O1502  Zn1510  1.929   .     S
O1503  Zn1513  1.931   .     S
O1504  Zn1511  1.931   .     S
O1505  Zn1512  1.938   .     S
O1506  Zn1513  1.934   .     S
O1507  Zn1510  1.928   .     S
O1508  Zn1511  1.936   .     S
O1509  Zn1512  1.931   .     S
C1514  C1524   1.438   .     S
C1514  O1595   1.269   .     A
C1514  O1593   1.269   .     A
C1515  C1516   1.392   .     A
C1515  O1590   1.385   .     S
C1515  C1547   1.427   .     A
C1516  H1578   1.084   .     S
C1516  C717    1.392   1_556 S
C1517  O1594   1.279   .     A
C1517  C1523   1.455   .     S
C1517  O1596   1.276   .     A
C1518  C1519   1.419   .     A
C1518  C1520   1.402   .     A
C1519  C1522   1.416   .     A
C1519  C1548   1.425   .     A
C1520  C1521   1.391   .     A
C1520  H1556   1.084   .     S
C1521  C1533   1.395   .     A
C1521  F1553   1.354   .     S
C1522  F1552   1.358   .     S
C1522  C1533   1.396   .     A
C1523  C1346   1.334   1_655 S
C1523  H1389   1.088   1_655 S
C1525  F1555   1.358   .     S
C1525  C1534   1.395   .     A
C1525  C1532   1.404   .     A
C1526  C1529   1.456   .     S
C1526  C993    1.336   1_565 S
C1526  O1054   1.386   1_565 S
C1527  H1577   1.087   .     S
C1527  C1528   1.436   .     S
C1528  O1591   1.271   .     A
C1528  O1597   1.276   .     A
C1529  O1598   1.270   .     A
C1529  O1592   1.271   .     A
C1530  C1533   1.458   .     S
C1530  O1586   1.276   .     A
C1530  O1584   1.276   .     A
C1531  C1532   1.477   .     S
C1531  O1587   1.287   .     A
C1531  O1585   1.283   .     A
C1532  C1536   1.398   .     A
C1534  C1546   1.410   .     A
C1534  F1554   1.358   .     S
C1535  H1581   1.115   .     S
C1535  C1003   1.525   1_565 S
C1535  H1046   1.115   1_565 S
C1535  O1054   1.413   1_565 S
C1536  H1579   1.078   .     S
C1536  C1545   1.408   .     A
C1537  H1582   1.109   .     S
C1537  C1538   1.527   .     S
C1538  H1560   1.111   .     S
C1538  H1559   1.110   .     S
C1539  C1540   1.530   .     S
C1539  O1589   1.417   .     S
C1539  H1561   1.111   .     S
C1539  H1562   1.115   .     S
C1540  H1563   1.110   .     S
C1540  H1564   1.111   .     S
C1540  C1541   1.526   .     S
C1541  H1568   1.111   .     S
C1541  H1565   1.111   .     S
C1542  C1543   1.533   .     S
C1542  H1570   1.116   .     S
C1542  H1569   1.111   .     S
C1542  O1590   1.417   .     S
C1543  H1572   1.111   .     S
C1543  H1571   1.112   .     S
C1544  H1574   1.111   .     S
C1544  H1575   1.111   .     S
C1544  H1573   1.111   .     S
C1544  C1009   1.527   1_565 S
C1545  C1547   1.425   .     A
C1545  C1546   1.420   .     A
C1546  C749    1.402   1_556 S
C1547  C747    1.421   1_556 S
C1548  C1549   1.422   .     A
C1549  C1550   1.395   .     A
C1549  O1589   1.386   .     S
C1550  F1551   1.359   .     S
H1557  C1003   1.112   1_565 S
H1558  C1004   1.111   1_565 S
H1566  C1363   1.109   1_655 S
H1576  C1346   1.086   1_655 S
O1583  Zn1601  1.934   .     S
O1583  Zn1600  1.939   .     S
O1583  Zn1602  1.934   .     S
O1583  Zn1599  1.953   .     S
O1584  Zn1600  1.922   .     S
O1585  Zn1602  1.929   .     S
O1586  Zn1601  1.924   .     S
O1587  Zn1599  1.919   .     S
O1591  Zn1599  1.929   .     S
O1592  Zn1602  1.931   .     S
O1593  Zn1600  1.931   .     S
O1594  Zn1601  1.938   .     S
O1595  Zn1602  1.934   .     S
O1596  Zn1599  1.928   .     S
O1597  Zn1600  1.936   .     S
O1598  Zn1601  1.931   .     S
