data_str_m1_o10_o16_pcu_sym.232
_audit_creation_date              2020-01-03
_audit_creation_method            'Materials Studio'
_symmetry_space_group_name_H-M    'P1'
_symmetry_Int_Tables_number       1
_symmetry_cell_setting            triclinic
loop_
_symmetry_equiv_pos_as_xyz
  x,y,z
_cell_length_a                    32.6165
_cell_length_b                    32.6399
_cell_length_c                    31.0343
_cell_angle_alpha                 96.9103
_cell_angle_beta                  75.1917
_cell_angle_gamma                 98.4291
loop_
_atom_site_label
_atom_site_type_symbol
_atom_site_fract_x
_atom_site_fract_y
_atom_site_fract_z
_atom_site_U_iso_or_equiv
_atom_site_adp_type
_atom_site_occupancy
C1     C     0.05303   0.15987   0.25940   0.00000  Uiso   1.00
C2     C     0.18046   0.16707   0.05724   0.00000  Uiso   1.00
C3     C     0.19698   0.09824   0.06301   0.00000  Uiso   1.00
C4     C     0.28059   0.17364   0.24037   0.00000  Uiso   1.00
C5     C     0.14359   0.19446   0.41942   0.00000  Uiso   1.00
C6     C     0.32602   0.17691   0.23862   0.00000  Uiso   1.00
C7     C     0.00732   0.15535   0.26478   0.00000  Uiso   1.00
C8     C     0.17982   0.32244   0.23836   0.00000  Uiso   1.00
C9     C     0.15040   0.01221   0.26423   0.00000  Uiso   1.00
C10    C     0.15653   0.05599   0.25964   0.00000  Uiso   1.00
C11    C     0.17630   0.27779   0.24046   0.00000  Uiso   1.00
C12    C     0.13853   0.24856   0.48055   0.00000  Uiso   1.00
C13    C     0.18505   0.14781   0.12952   0.00000  Uiso   1.00
C14    C     0.14819   0.18424   0.37097   0.00000  Uiso   1.00
C15    C     0.19148   0.08565   0.02035   0.00000  Uiso   1.00
C16    C     0.19081   0.13865   0.08164   0.00000  Uiso   1.00
C17    C     0.13524   0.23475   0.43738   0.00000  Uiso   1.00
C18    C     0.32937   0.11681   0.32637   0.00000  Uiso   1.00
C19    C     0.15128   0.22293   0.00614   0.00000  Uiso   1.00
C20    C     0.15921   0.18170   0.48966   0.00000  Uiso   1.00
C21    C     0.15276   0.16674   0.44659   0.00000  Uiso   1.00
C22    C     0.17301   0.15468   0.01450   0.00000  Uiso   1.00
C23    C     0.17841   0.11303   0.49650   0.00000  Uiso   1.00
C24    C     0.16875   0.09831   0.45588   0.00000  Uiso   1.00
C25    C     0.15515   0.12439   0.43184   0.00000  Uiso   1.00
H26    H     0.20418   0.07592   0.08236   0.00000  Uiso   1.00
H27    H     0.01463   0.19790   0.21615   0.00000  Uiso   1.00
H28    H     0.00433   0.14589   0.34668   0.00000  Uiso   1.00
H29    H     0.02392   0.09897   0.31413   0.00000  Uiso   1.00
H30    H     0.30396   0.09725   0.34865   0.00000  Uiso   1.00
H31    H     0.09643   0.01839   0.31430   0.00000  Uiso   1.00
H32    H     0.09115   0.31431   0.27341   0.00000  Uiso   1.00
H33    H     0.20751   0.00380   0.21527   0.00000  Uiso   1.00
H34    H     0.17097   0.06613   0.44292   0.00000  Uiso   1.00
H35    H     0.19547   0.05388   0.00685   0.00000  Uiso   1.00
H36    H     0.17570   0.19754   0.07386   0.00000  Uiso   1.00
H37    H     0.12783   0.25634   0.41735   0.00000  Uiso   1.00
H38    H     0.15425   0.23639   0.03876   0.00000  Uiso   1.00
H39    H     0.13252   0.27993   0.49380   0.00000  Uiso   1.00
H40    H     0.14562   0.11043   0.40198   0.00000  Uiso   1.00
N41    N     0.11168   0.32797   0.29347   0.00000  Uiso   1.00
O42    O     0.16667   0.16667   0.25000   0.00000  Uiso   1.00
O43    O     0.15451   0.12637   0.15459   0.00000  Uiso   1.00
O44    O     0.12940   0.20391   0.34968   0.00000  Uiso   1.00
O45    O     0.20824   0.17759   0.14606   0.00000  Uiso   1.00
O46    O     0.17451   0.15880   0.34968   0.00000  Uiso   1.00
O47    O     0.31357   0.12519   0.29043   0.00000  Uiso   1.00
O48    O     0.17930   0.08019   0.28214   0.00000  Uiso   1.00
O49    O     0.14632   0.26085   0.27014   0.00000  Uiso   1.00
O50    O     0.07412   0.13291   0.23413   0.00000  Uiso   1.00
O51    O     0.26693   0.19272   0.21361   0.00000  Uiso   1.00
O52    O     0.07071   0.18878   0.28213   0.00000  Uiso   1.00
O53    O     0.25491   0.15226   0.27014   0.00000  Uiso   1.00
O54    O     0.13760   0.06944   0.23413   0.00000  Uiso   1.00
O55    O     0.20345   0.25620   0.21361   0.00000  Uiso   1.00
Zn56   Zn    0.19338   0.13994   0.28734   0.00000  Uiso   1.00
Zn57   Zn    0.13379   0.12458   0.21876   0.00000  Uiso   1.00
Zn58   Zn    0.21056   0.19775   0.20657   0.00000  Uiso   1.00
Zn59   Zn    0.12893   0.20439   0.28734   0.00000  Uiso   1.00
C60    C     0.38636   0.15987   0.25940   0.00000  Uiso   1.00
C61    C     0.51380   0.16707   0.05724   0.00000  Uiso   1.00
C62    C     0.53032   0.09824   0.06301   0.00000  Uiso   1.00
C63    C     0.61393   0.17364   0.24037   0.00000  Uiso   1.00
C64    C     0.47692   0.19446   0.41942   0.00000  Uiso   1.00
C65    C     0.65936   0.17691   0.23862   0.00000  Uiso   1.00
C66    C     0.34065   0.15535   0.26478   0.00000  Uiso   1.00
C67    C     0.51315   0.32244   0.23836   0.00000  Uiso   1.00
C68    C     0.48373   0.01221   0.26423   0.00000  Uiso   1.00
C69    C     0.48986   0.05599   0.25964   0.00000  Uiso   1.00
C70    C     0.50963   0.27779   0.24046   0.00000  Uiso   1.00
C71    C     0.47186   0.24856   0.48055   0.00000  Uiso   1.00
C72    C     0.51839   0.14781   0.12952   0.00000  Uiso   1.00
C73    C     0.48152   0.18424   0.37097   0.00000  Uiso   1.00
C74    C     0.52481   0.08565   0.02035   0.00000  Uiso   1.00
C75    C     0.52414   0.13865   0.08164   0.00000  Uiso   1.00
C76    C     0.46857   0.23475   0.43738   0.00000  Uiso   1.00
C77    C     0.66270   0.11681   0.32637   0.00000  Uiso   1.00
C78    C     0.48461   0.22293   0.00614   0.00000  Uiso   1.00
C79    C     0.49254   0.18170   0.48966   0.00000  Uiso   1.00
C80    C     0.48609   0.16674   0.44659   0.00000  Uiso   1.00
C81    C     0.50635   0.15468   0.01450   0.00000  Uiso   1.00
C82    C     0.51174   0.11303   0.49650   0.00000  Uiso   1.00
C83    C     0.50208   0.09831   0.45588   0.00000  Uiso   1.00
C84    C     0.48848   0.12439   0.43184   0.00000  Uiso   1.00
H85    H     0.53751   0.07592   0.08236   0.00000  Uiso   1.00
H86    H     0.34796   0.19790   0.21615   0.00000  Uiso   1.00
H87    H     0.33766   0.14589   0.34668   0.00000  Uiso   1.00
H88    H     0.35725   0.09897   0.31413   0.00000  Uiso   1.00
H89    H     0.63730   0.09725   0.34865   0.00000  Uiso   1.00
H90    H     0.42976   0.01839   0.31430   0.00000  Uiso   1.00
H91    H     0.42448   0.31431   0.27341   0.00000  Uiso   1.00
H92    H     0.54084   0.00380   0.21527   0.00000  Uiso   1.00
H93    H     0.50430   0.06613   0.44292   0.00000  Uiso   1.00
H94    H     0.52880   0.05388   0.00685   0.00000  Uiso   1.00
H95    H     0.50903   0.19754   0.07386   0.00000  Uiso   1.00
H96    H     0.46116   0.25634   0.41735   0.00000  Uiso   1.00
H97    H     0.48759   0.23639   0.03876   0.00000  Uiso   1.00
H98    H     0.46585   0.27993   0.49380   0.00000  Uiso   1.00
H99    H     0.47896   0.11043   0.40198   0.00000  Uiso   1.00
N100   N     0.44502   0.32797   0.29347   0.00000  Uiso   1.00
O101   O     0.50000   0.16667   0.25000   0.00000  Uiso   1.00
O102   O     0.48784   0.12637   0.15459   0.00000  Uiso   1.00
O103   O     0.46274   0.20391   0.34968   0.00000  Uiso   1.00
O104   O     0.54157   0.17759   0.14606   0.00000  Uiso   1.00
O105   O     0.50785   0.15880   0.34968   0.00000  Uiso   1.00
O106   O     0.64690   0.12519   0.29043   0.00000  Uiso   1.00
O107   O     0.51264   0.08019   0.28214   0.00000  Uiso   1.00
O108   O     0.47965   0.26085   0.27014   0.00000  Uiso   1.00
O109   O     0.40745   0.13291   0.23413   0.00000  Uiso   1.00
O110   O     0.60026   0.19272   0.21361   0.00000  Uiso   1.00
O111   O     0.40405   0.18878   0.28213   0.00000  Uiso   1.00
O112   O     0.58824   0.15226   0.27014   0.00000  Uiso   1.00
O113   O     0.47093   0.06944   0.23413   0.00000  Uiso   1.00
O114   O     0.53678   0.25620   0.21361   0.00000  Uiso   1.00
Zn115  Zn    0.52672   0.13994   0.28734   0.00000  Uiso   1.00
Zn116  Zn    0.46713   0.12458   0.21876   0.00000  Uiso   1.00
Zn117  Zn    0.54389   0.19775   0.20657   0.00000  Uiso   1.00
Zn118  Zn    0.46226   0.20439   0.28734   0.00000  Uiso   1.00
C119   C     0.71969   0.15987   0.25940   0.00000  Uiso   1.00
C120   C     0.84713   0.16707   0.05724   0.00000  Uiso   1.00
C121   C     0.86365   0.09824   0.06301   0.00000  Uiso   1.00
C122   C     0.94726   0.17364   0.24037   0.00000  Uiso   1.00
C123   C     0.81026   0.19446   0.41942   0.00000  Uiso   1.00
C124   C     0.99269   0.17691   0.23862   0.00000  Uiso   1.00
C125   C     0.67399   0.15535   0.26478   0.00000  Uiso   1.00
C126   C     0.84648   0.32244   0.23836   0.00000  Uiso   1.00
C127   C     0.81707   0.01221   0.26423   0.00000  Uiso   1.00
C128   C     0.82319   0.05599   0.25964   0.00000  Uiso   1.00
C129   C     0.84297   0.27779   0.24046   0.00000  Uiso   1.00
C130   C     0.80519   0.24856   0.48055   0.00000  Uiso   1.00
C131   C     0.85172   0.14781   0.12952   0.00000  Uiso   1.00
C132   C     0.81486   0.18424   0.37097   0.00000  Uiso   1.00
C133   C     0.85814   0.08565   0.02035   0.00000  Uiso   1.00
C134   C     0.85747   0.13865   0.08164   0.00000  Uiso   1.00
C135   C     0.80191   0.23475   0.43738   0.00000  Uiso   1.00
C136   C     0.99604   0.11681   0.32637   0.00000  Uiso   1.00
C137   C     0.81794   0.22293   0.00614   0.00000  Uiso   1.00
C138   C     0.82587   0.18170   0.48966   0.00000  Uiso   1.00
C139   C     0.81943   0.16674   0.44659   0.00000  Uiso   1.00
C140   C     0.83968   0.15468   0.01450   0.00000  Uiso   1.00
C141   C     0.84508   0.11303   0.49650   0.00000  Uiso   1.00
C142   C     0.83542   0.09831   0.45588   0.00000  Uiso   1.00
C143   C     0.82182   0.12439   0.43184   0.00000  Uiso   1.00
H144   H     0.87084   0.07592   0.08236   0.00000  Uiso   1.00
H145   H     0.68129   0.19790   0.21615   0.00000  Uiso   1.00
H146   H     0.67100   0.14589   0.34668   0.00000  Uiso   1.00
H147   H     0.69059   0.09897   0.31413   0.00000  Uiso   1.00
H148   H     0.97063   0.09725   0.34865   0.00000  Uiso   1.00
H149   H     0.76309   0.01839   0.31430   0.00000  Uiso   1.00
H150   H     0.75781   0.31431   0.27341   0.00000  Uiso   1.00
H151   H     0.87417   0.00380   0.21527   0.00000  Uiso   1.00
H152   H     0.83763   0.06613   0.44292   0.00000  Uiso   1.00
H153   H     0.86213   0.05388   0.00685   0.00000  Uiso   1.00
H154   H     0.84236   0.19754   0.07386   0.00000  Uiso   1.00
H155   H     0.79449   0.25634   0.41735   0.00000  Uiso   1.00
H156   H     0.82092   0.23639   0.03876   0.00000  Uiso   1.00
H157   H     0.79919   0.27993   0.49380   0.00000  Uiso   1.00
H158   H     0.81229   0.11043   0.40198   0.00000  Uiso   1.00
N159   N     0.77835   0.32797   0.29347   0.00000  Uiso   1.00
O160   O     0.83333   0.16667   0.25000   0.00000  Uiso   1.00
O161   O     0.82118   0.12637   0.15459   0.00000  Uiso   1.00
O162   O     0.79607   0.20391   0.34968   0.00000  Uiso   1.00
O163   O     0.87491   0.17759   0.14606   0.00000  Uiso   1.00
O164   O     0.84118   0.15880   0.34968   0.00000  Uiso   1.00
O165   O     0.98023   0.12519   0.29043   0.00000  Uiso   1.00
O166   O     0.84597   0.08019   0.28214   0.00000  Uiso   1.00
O167   O     0.81298   0.26085   0.27014   0.00000  Uiso   1.00
O168   O     0.74078   0.13291   0.23413   0.00000  Uiso   1.00
O169   O     0.93360   0.19272   0.21361   0.00000  Uiso   1.00
O170   O     0.73738   0.18878   0.28213   0.00000  Uiso   1.00
O171   O     0.92158   0.15226   0.27014   0.00000  Uiso   1.00
O172   O     0.80426   0.06944   0.23413   0.00000  Uiso   1.00
O173   O     0.87012   0.25620   0.21361   0.00000  Uiso   1.00
Zn174  Zn    0.86005   0.13994   0.28734   0.00000  Uiso   1.00
Zn175  Zn    0.80046   0.12458   0.21876   0.00000  Uiso   1.00
Zn176  Zn    0.87723   0.19775   0.20657   0.00000  Uiso   1.00
Zn177  Zn    0.79560   0.20439   0.28734   0.00000  Uiso   1.00
C178   C     0.05303   0.49321   0.25940   0.00000  Uiso   1.00
C179   C     0.18046   0.50041   0.05724   0.00000  Uiso   1.00
C180   C     0.19698   0.43158   0.06301   0.00000  Uiso   1.00
C181   C     0.28059   0.50698   0.24037   0.00000  Uiso   1.00
C182   C     0.14359   0.52779   0.41942   0.00000  Uiso   1.00
C183   C     0.32602   0.51024   0.23862   0.00000  Uiso   1.00
C184   C     0.00732   0.48869   0.26478   0.00000  Uiso   1.00
C185   C     0.17982   0.65577   0.23836   0.00000  Uiso   1.00
C186   C     0.15040   0.34554   0.26423   0.00000  Uiso   1.00
C187   C     0.15653   0.38932   0.25964   0.00000  Uiso   1.00
C188   C     0.17630   0.61112   0.24046   0.00000  Uiso   1.00
C189   C     0.13853   0.58189   0.48055   0.00000  Uiso   1.00
C190   C     0.18505   0.48115   0.12952   0.00000  Uiso   1.00
C191   C     0.14819   0.51757   0.37097   0.00000  Uiso   1.00
C192   C     0.19148   0.41899   0.02035   0.00000  Uiso   1.00
C193   C     0.19081   0.47199   0.08164   0.00000  Uiso   1.00
C194   C     0.13524   0.56808   0.43738   0.00000  Uiso   1.00
C195   C     0.32937   0.45014   0.32637   0.00000  Uiso   1.00
C196   C     0.15128   0.55626   0.00614   0.00000  Uiso   1.00
C197   C     0.15921   0.51503   0.48966   0.00000  Uiso   1.00
C198   C     0.15276   0.50008   0.44659   0.00000  Uiso   1.00
C199   C     0.17301   0.48801   0.01450   0.00000  Uiso   1.00
C200   C     0.17841   0.44637   0.49650   0.00000  Uiso   1.00
C201   C     0.16875   0.43164   0.45588   0.00000  Uiso   1.00
C202   C     0.15515   0.45772   0.43184   0.00000  Uiso   1.00
H203   H     0.20418   0.40925   0.08236   0.00000  Uiso   1.00
H204   H     0.01463   0.53123   0.21615   0.00000  Uiso   1.00
H205   H     0.00433   0.47922   0.34668   0.00000  Uiso   1.00
H206   H     0.02392   0.43230   0.31413   0.00000  Uiso   1.00
H207   H     0.30396   0.43059   0.34865   0.00000  Uiso   1.00
H208   H     0.09643   0.35172   0.31430   0.00000  Uiso   1.00
H209   H     0.09115   0.64765   0.27341   0.00000  Uiso   1.00
H210   H     0.20751   0.33713   0.21527   0.00000  Uiso   1.00
H211   H     0.17097   0.39946   0.44292   0.00000  Uiso   1.00
H212   H     0.19547   0.38721   0.00685   0.00000  Uiso   1.00
H213   H     0.17570   0.53087   0.07386   0.00000  Uiso   1.00
H214   H     0.12783   0.58967   0.41735   0.00000  Uiso   1.00
H215   H     0.15425   0.56972   0.03876   0.00000  Uiso   1.00
H216   H     0.13252   0.61327   0.49380   0.00000  Uiso   1.00
H217   H     0.14562   0.44377   0.40198   0.00000  Uiso   1.00
N218   N     0.11168   0.66130   0.29347   0.00000  Uiso   1.00
O219   O     0.16667   0.50000   0.25000   0.00000  Uiso   1.00
O220   O     0.15451   0.45970   0.15459   0.00000  Uiso   1.00
O221   O     0.12940   0.53724   0.34968   0.00000  Uiso   1.00
O222   O     0.20824   0.51092   0.14606   0.00000  Uiso   1.00
O223   O     0.17451   0.49213   0.34968   0.00000  Uiso   1.00
O224   O     0.31357   0.45852   0.29043   0.00000  Uiso   1.00
O225   O     0.17930   0.41352   0.28214   0.00000  Uiso   1.00
O226   O     0.14632   0.59418   0.27014   0.00000  Uiso   1.00
O227   O     0.07412   0.46625   0.23413   0.00000  Uiso   1.00
O228   O     0.26693   0.52605   0.21361   0.00000  Uiso   1.00
O229   O     0.07071   0.52211   0.28213   0.00000  Uiso   1.00
O230   O     0.25491   0.48559   0.27014   0.00000  Uiso   1.00
O231   O     0.13760   0.40277   0.23413   0.00000  Uiso   1.00
O232   O     0.20345   0.58953   0.21361   0.00000  Uiso   1.00
Zn233  Zn    0.19338   0.47327   0.28734   0.00000  Uiso   1.00
Zn234  Zn    0.13379   0.45791   0.21876   0.00000  Uiso   1.00
Zn235  Zn    0.21056   0.53109   0.20657   0.00000  Uiso   1.00
Zn236  Zn    0.12893   0.53773   0.28734   0.00000  Uiso   1.00
C237   C     0.38636   0.49321   0.25940   0.00000  Uiso   1.00
C238   C     0.51380   0.50041   0.05724   0.00000  Uiso   1.00
C239   C     0.53032   0.43158   0.06301   0.00000  Uiso   1.00
C240   C     0.61393   0.50698   0.24037   0.00000  Uiso   1.00
C241   C     0.47692   0.52779   0.41942   0.00000  Uiso   1.00
C242   C     0.65936   0.51024   0.23862   0.00000  Uiso   1.00
C243   C     0.34065   0.48869   0.26478   0.00000  Uiso   1.00
C244   C     0.51315   0.65577   0.23836   0.00000  Uiso   1.00
C245   C     0.48373   0.34554   0.26423   0.00000  Uiso   1.00
C246   C     0.48986   0.38932   0.25964   0.00000  Uiso   1.00
C247   C     0.50963   0.61112   0.24046   0.00000  Uiso   1.00
C248   C     0.47186   0.58189   0.48055   0.00000  Uiso   1.00
C249   C     0.51839   0.48115   0.12952   0.00000  Uiso   1.00
C250   C     0.48152   0.51757   0.37097   0.00000  Uiso   1.00
C251   C     0.52481   0.41899   0.02035   0.00000  Uiso   1.00
C252   C     0.52414   0.47199   0.08164   0.00000  Uiso   1.00
C253   C     0.46857   0.56808   0.43738   0.00000  Uiso   1.00
C254   C     0.66270   0.45014   0.32637   0.00000  Uiso   1.00
C255   C     0.48461   0.55626   0.00614   0.00000  Uiso   1.00
C256   C     0.49254   0.51503   0.48966   0.00000  Uiso   1.00
C257   C     0.48609   0.50008   0.44659   0.00000  Uiso   1.00
C258   C     0.50635   0.48801   0.01450   0.00000  Uiso   1.00
C259   C     0.51174   0.44637   0.49650   0.00000  Uiso   1.00
C260   C     0.50208   0.43164   0.45588   0.00000  Uiso   1.00
C261   C     0.48848   0.45772   0.43184   0.00000  Uiso   1.00
H262   H     0.53751   0.40925   0.08236   0.00000  Uiso   1.00
H263   H     0.34796   0.53123   0.21615   0.00000  Uiso   1.00
H264   H     0.33766   0.47922   0.34668   0.00000  Uiso   1.00
H265   H     0.35725   0.43230   0.31413   0.00000  Uiso   1.00
H266   H     0.63730   0.43059   0.34865   0.00000  Uiso   1.00
H267   H     0.42976   0.35172   0.31430   0.00000  Uiso   1.00
H268   H     0.42448   0.64765   0.27341   0.00000  Uiso   1.00
H269   H     0.54084   0.33713   0.21527   0.00000  Uiso   1.00
H270   H     0.50430   0.39946   0.44292   0.00000  Uiso   1.00
H271   H     0.52880   0.38721   0.00685   0.00000  Uiso   1.00
H272   H     0.50903   0.53087   0.07386   0.00000  Uiso   1.00
H273   H     0.46116   0.58967   0.41735   0.00000  Uiso   1.00
H274   H     0.48759   0.56972   0.03876   0.00000  Uiso   1.00
H275   H     0.46585   0.61327   0.49380   0.00000  Uiso   1.00
H276   H     0.47896   0.44377   0.40198   0.00000  Uiso   1.00
N277   N     0.44502   0.66130   0.29347   0.00000  Uiso   1.00
O278   O     0.50000   0.50000   0.25000   0.00000  Uiso   1.00
O279   O     0.48784   0.45970   0.15459   0.00000  Uiso   1.00
O280   O     0.46274   0.53724   0.34968   0.00000  Uiso   1.00
O281   O     0.54157   0.51092   0.14606   0.00000  Uiso   1.00
O282   O     0.50785   0.49213   0.34968   0.00000  Uiso   1.00
O283   O     0.64690   0.45852   0.29043   0.00000  Uiso   1.00
O284   O     0.51264   0.41352   0.28214   0.00000  Uiso   1.00
O285   O     0.47965   0.59418   0.27014   0.00000  Uiso   1.00
O286   O     0.40745   0.46625   0.23413   0.00000  Uiso   1.00
O287   O     0.60026   0.52605   0.21361   0.00000  Uiso   1.00
O288   O     0.40405   0.52211   0.28213   0.00000  Uiso   1.00
O289   O     0.58824   0.48559   0.27014   0.00000  Uiso   1.00
O290   O     0.47093   0.40277   0.23413   0.00000  Uiso   1.00
O291   O     0.53678   0.58953   0.21361   0.00000  Uiso   1.00
Zn292  Zn    0.52672   0.47327   0.28734   0.00000  Uiso   1.00
Zn293  Zn    0.46713   0.45791   0.21876   0.00000  Uiso   1.00
Zn294  Zn    0.54389   0.53109   0.20657   0.00000  Uiso   1.00
Zn295  Zn    0.46226   0.53773   0.28734   0.00000  Uiso   1.00
C296   C     0.71969   0.49321   0.25940   0.00000  Uiso   1.00
C297   C     0.84713   0.50041   0.05724   0.00000  Uiso   1.00
C298   C     0.86365   0.43158   0.06301   0.00000  Uiso   1.00
C299   C     0.94726   0.50698   0.24037   0.00000  Uiso   1.00
C300   C     0.81026   0.52779   0.41942   0.00000  Uiso   1.00
C301   C     0.99269   0.51024   0.23862   0.00000  Uiso   1.00
C302   C     0.67399   0.48869   0.26478   0.00000  Uiso   1.00
C303   C     0.84648   0.65577   0.23836   0.00000  Uiso   1.00
C304   C     0.81707   0.34554   0.26423   0.00000  Uiso   1.00
C305   C     0.82319   0.38932   0.25964   0.00000  Uiso   1.00
C306   C     0.84297   0.61112   0.24046   0.00000  Uiso   1.00
C307   C     0.80519   0.58189   0.48055   0.00000  Uiso   1.00
C308   C     0.85172   0.48115   0.12952   0.00000  Uiso   1.00
C309   C     0.81486   0.51757   0.37097   0.00000  Uiso   1.00
C310   C     0.85814   0.41899   0.02035   0.00000  Uiso   1.00
C311   C     0.85747   0.47199   0.08164   0.00000  Uiso   1.00
C312   C     0.80191   0.56808   0.43738   0.00000  Uiso   1.00
C313   C     0.99604   0.45014   0.32637   0.00000  Uiso   1.00
C314   C     0.81794   0.55626   0.00614   0.00000  Uiso   1.00
C315   C     0.82587   0.51503   0.48966   0.00000  Uiso   1.00
C316   C     0.81943   0.50008   0.44659   0.00000  Uiso   1.00
C317   C     0.83968   0.48801   0.01450   0.00000  Uiso   1.00
C318   C     0.84508   0.44637   0.49650   0.00000  Uiso   1.00
C319   C     0.83542   0.43164   0.45588   0.00000  Uiso   1.00
C320   C     0.82182   0.45772   0.43184   0.00000  Uiso   1.00
H321   H     0.87084   0.40925   0.08236   0.00000  Uiso   1.00
H322   H     0.68129   0.53123   0.21615   0.00000  Uiso   1.00
H323   H     0.67100   0.47922   0.34668   0.00000  Uiso   1.00
H324   H     0.69059   0.43230   0.31413   0.00000  Uiso   1.00
H325   H     0.97063   0.43059   0.34865   0.00000  Uiso   1.00
H326   H     0.76309   0.35172   0.31430   0.00000  Uiso   1.00
H327   H     0.75781   0.64765   0.27341   0.00000  Uiso   1.00
H328   H     0.87417   0.33713   0.21527   0.00000  Uiso   1.00
H329   H     0.83763   0.39946   0.44292   0.00000  Uiso   1.00
H330   H     0.86213   0.38721   0.00685   0.00000  Uiso   1.00
H331   H     0.84236   0.53087   0.07386   0.00000  Uiso   1.00
H332   H     0.79449   0.58967   0.41735   0.00000  Uiso   1.00
H333   H     0.82092   0.56972   0.03876   0.00000  Uiso   1.00
H334   H     0.79919   0.61327   0.49380   0.00000  Uiso   1.00
H335   H     0.81229   0.44377   0.40198   0.00000  Uiso   1.00
N336   N     0.77835   0.66130   0.29347   0.00000  Uiso   1.00
O337   O     0.83333   0.50000   0.25000   0.00000  Uiso   1.00
O338   O     0.82118   0.45970   0.15459   0.00000  Uiso   1.00
O339   O     0.79607   0.53724   0.34968   0.00000  Uiso   1.00
O340   O     0.87491   0.51092   0.14606   0.00000  Uiso   1.00
O341   O     0.84118   0.49213   0.34968   0.00000  Uiso   1.00
O342   O     0.98023   0.45852   0.29043   0.00000  Uiso   1.00
O343   O     0.84597   0.41352   0.28214   0.00000  Uiso   1.00
O344   O     0.81298   0.59418   0.27014   0.00000  Uiso   1.00
O345   O     0.74078   0.46625   0.23413   0.00000  Uiso   1.00
O346   O     0.93360   0.52605   0.21361   0.00000  Uiso   1.00
O347   O     0.73738   0.52211   0.28213   0.00000  Uiso   1.00
O348   O     0.92158   0.48559   0.27014   0.00000  Uiso   1.00
O349   O     0.80426   0.40277   0.23413   0.00000  Uiso   1.00
O350   O     0.87012   0.58953   0.21361   0.00000  Uiso   1.00
Zn351  Zn    0.86005   0.47327   0.28734   0.00000  Uiso   1.00
Zn352  Zn    0.80046   0.45791   0.21876   0.00000  Uiso   1.00
Zn353  Zn    0.87723   0.53109   0.20657   0.00000  Uiso   1.00
Zn354  Zn    0.79560   0.53773   0.28734   0.00000  Uiso   1.00
C355   C     0.05303   0.82654   0.25940   0.00000  Uiso   1.00
C356   C     0.18046   0.83374   0.05724   0.00000  Uiso   1.00
C357   C     0.19698   0.76491   0.06301   0.00000  Uiso   1.00
C358   C     0.28059   0.84031   0.24037   0.00000  Uiso   1.00
C359   C     0.14359   0.86113   0.41942   0.00000  Uiso   1.00
C360   C     0.32602   0.84358   0.23862   0.00000  Uiso   1.00
C361   C     0.00732   0.82202   0.26478   0.00000  Uiso   1.00
C362   C     0.17982   0.98910   0.23836   0.00000  Uiso   1.00
C363   C     0.15040   0.67887   0.26423   0.00000  Uiso   1.00
C364   C     0.15653   0.72266   0.25964   0.00000  Uiso   1.00
C365   C     0.17630   0.94445   0.24046   0.00000  Uiso   1.00
C366   C     0.13853   0.91522   0.48055   0.00000  Uiso   1.00
C367   C     0.18505   0.81448   0.12952   0.00000  Uiso   1.00
C368   C     0.14819   0.85090   0.37097   0.00000  Uiso   1.00
C369   C     0.19148   0.75232   0.02035   0.00000  Uiso   1.00
C370   C     0.19081   0.80532   0.08164   0.00000  Uiso   1.00
C371   C     0.13524   0.90142   0.43738   0.00000  Uiso   1.00
C372   C     0.32937   0.78348   0.32637   0.00000  Uiso   1.00
C373   C     0.15128   0.88959   0.00614   0.00000  Uiso   1.00
C374   C     0.15921   0.84836   0.48966   0.00000  Uiso   1.00
C375   C     0.15276   0.83341   0.44659   0.00000  Uiso   1.00
C376   C     0.17301   0.82135   0.01450   0.00000  Uiso   1.00
C377   C     0.17841   0.77970   0.49650   0.00000  Uiso   1.00
C378   C     0.16875   0.76498   0.45588   0.00000  Uiso   1.00
C379   C     0.15515   0.79105   0.43184   0.00000  Uiso   1.00
H380   H     0.20418   0.74258   0.08236   0.00000  Uiso   1.00
H381   H     0.01463   0.86457   0.21615   0.00000  Uiso   1.00
H382   H     0.00433   0.81256   0.34668   0.00000  Uiso   1.00
H383   H     0.02392   0.76563   0.31413   0.00000  Uiso   1.00
H384   H     0.30396   0.76392   0.34865   0.00000  Uiso   1.00
H385   H     0.09643   0.68506   0.31430   0.00000  Uiso   1.00
H386   H     0.09115   0.98098   0.27341   0.00000  Uiso   1.00
H387   H     0.20751   0.67047   0.21527   0.00000  Uiso   1.00
H388   H     0.17097   0.73280   0.44292   0.00000  Uiso   1.00
H389   H     0.19547   0.72055   0.00685   0.00000  Uiso   1.00
H390   H     0.17570   0.86421   0.07386   0.00000  Uiso   1.00
H391   H     0.12783   0.92300   0.41735   0.00000  Uiso   1.00
H392   H     0.15425   0.90305   0.03876   0.00000  Uiso   1.00
H393   H     0.13252   0.94660   0.49380   0.00000  Uiso   1.00
H394   H     0.14562   0.77710   0.40198   0.00000  Uiso   1.00
N395   N     0.11168   0.99464   0.29347   0.00000  Uiso   1.00
O396   O     0.16667   0.83333   0.25000   0.00000  Uiso   1.00
O397   O     0.15451   0.79304   0.15459   0.00000  Uiso   1.00
O398   O     0.12940   0.87058   0.34968   0.00000  Uiso   1.00
O399   O     0.20824   0.84425   0.14606   0.00000  Uiso   1.00
O400   O     0.17451   0.82546   0.34968   0.00000  Uiso   1.00
O401   O     0.31357   0.79185   0.29043   0.00000  Uiso   1.00
O402   O     0.17930   0.74686   0.28214   0.00000  Uiso   1.00
O403   O     0.14632   0.92751   0.27014   0.00000  Uiso   1.00
O404   O     0.07412   0.79958   0.23413   0.00000  Uiso   1.00
O405   O     0.26693   0.85939   0.21361   0.00000  Uiso   1.00
O406   O     0.07071   0.85544   0.28213   0.00000  Uiso   1.00
O407   O     0.25491   0.81892   0.27014   0.00000  Uiso   1.00
O408   O     0.13760   0.73610   0.23413   0.00000  Uiso   1.00
O409   O     0.20345   0.92286   0.21361   0.00000  Uiso   1.00
Zn410  Zn    0.19338   0.80661   0.28734   0.00000  Uiso   1.00
Zn411  Zn    0.13379   0.79124   0.21876   0.00000  Uiso   1.00
Zn412  Zn    0.21056   0.86442   0.20657   0.00000  Uiso   1.00
Zn413  Zn    0.12893   0.87106   0.28734   0.00000  Uiso   1.00
C414   C     0.38636   0.82654   0.25940   0.00000  Uiso   1.00
C415   C     0.51380   0.83374   0.05724   0.00000  Uiso   1.00
C416   C     0.53032   0.76491   0.06301   0.00000  Uiso   1.00
C417   C     0.61393   0.84031   0.24037   0.00000  Uiso   1.00
C418   C     0.47692   0.86113   0.41942   0.00000  Uiso   1.00
C419   C     0.65936   0.84358   0.23862   0.00000  Uiso   1.00
C420   C     0.34065   0.82202   0.26478   0.00000  Uiso   1.00
C421   C     0.51315   0.98910   0.23836   0.00000  Uiso   1.00
C422   C     0.48373   0.67887   0.26423   0.00000  Uiso   1.00
C423   C     0.48986   0.72266   0.25964   0.00000  Uiso   1.00
C424   C     0.50963   0.94445   0.24046   0.00000  Uiso   1.00
C425   C     0.47186   0.91522   0.48055   0.00000  Uiso   1.00
C426   C     0.51839   0.81448   0.12952   0.00000  Uiso   1.00
C427   C     0.48152   0.85090   0.37097   0.00000  Uiso   1.00
C428   C     0.52481   0.75232   0.02035   0.00000  Uiso   1.00
C429   C     0.52414   0.80532   0.08164   0.00000  Uiso   1.00
C430   C     0.46857   0.90142   0.43738   0.00000  Uiso   1.00
C431   C     0.66270   0.78348   0.32637   0.00000  Uiso   1.00
C432   C     0.48461   0.88959   0.00614   0.00000  Uiso   1.00
C433   C     0.49254   0.84836   0.48966   0.00000  Uiso   1.00
C434   C     0.48609   0.83341   0.44659   0.00000  Uiso   1.00
C435   C     0.50635   0.82135   0.01450   0.00000  Uiso   1.00
C436   C     0.51174   0.77970   0.49650   0.00000  Uiso   1.00
C437   C     0.50208   0.76498   0.45588   0.00000  Uiso   1.00
C438   C     0.48848   0.79105   0.43184   0.00000  Uiso   1.00
H439   H     0.53751   0.74258   0.08236   0.00000  Uiso   1.00
H440   H     0.34796   0.86457   0.21615   0.00000  Uiso   1.00
H441   H     0.33766   0.81256   0.34668   0.00000  Uiso   1.00
H442   H     0.35725   0.76563   0.31413   0.00000  Uiso   1.00
H443   H     0.63730   0.76392   0.34865   0.00000  Uiso   1.00
H444   H     0.42976   0.68506   0.31430   0.00000  Uiso   1.00
H445   H     0.42448   0.98098   0.27341   0.00000  Uiso   1.00
H446   H     0.54084   0.67047   0.21527   0.00000  Uiso   1.00
H447   H     0.50430   0.73280   0.44292   0.00000  Uiso   1.00
H448   H     0.52880   0.72055   0.00685   0.00000  Uiso   1.00
H449   H     0.50903   0.86421   0.07386   0.00000  Uiso   1.00
H450   H     0.46116   0.92300   0.41735   0.00000  Uiso   1.00
H451   H     0.48759   0.90305   0.03876   0.00000  Uiso   1.00
H452   H     0.46585   0.94660   0.49380   0.00000  Uiso   1.00
H453   H     0.47896   0.77710   0.40198   0.00000  Uiso   1.00
N454   N     0.44502   0.99464   0.29347   0.00000  Uiso   1.00
O455   O     0.50000   0.83333   0.25000   0.00000  Uiso   1.00
O456   O     0.48784   0.79304   0.15459   0.00000  Uiso   1.00
O457   O     0.46274   0.87058   0.34968   0.00000  Uiso   1.00
O458   O     0.54157   0.84425   0.14606   0.00000  Uiso   1.00
O459   O     0.50785   0.82546   0.34968   0.00000  Uiso   1.00
O460   O     0.64690   0.79185   0.29043   0.00000  Uiso   1.00
O461   O     0.51264   0.74686   0.28214   0.00000  Uiso   1.00
O462   O     0.47965   0.92751   0.27014   0.00000  Uiso   1.00
O463   O     0.40745   0.79958   0.23413   0.00000  Uiso   1.00
O464   O     0.60026   0.85939   0.21361   0.00000  Uiso   1.00
O465   O     0.40405   0.85544   0.28213   0.00000  Uiso   1.00
O466   O     0.58824   0.81892   0.27014   0.00000  Uiso   1.00
O467   O     0.47093   0.73610   0.23413   0.00000  Uiso   1.00
O468   O     0.53678   0.92286   0.21361   0.00000  Uiso   1.00
Zn469  Zn    0.52672   0.80661   0.28734   0.00000  Uiso   1.00
Zn470  Zn    0.46713   0.79124   0.21876   0.00000  Uiso   1.00
Zn471  Zn    0.54389   0.86442   0.20657   0.00000  Uiso   1.00
Zn472  Zn    0.46226   0.87106   0.28734   0.00000  Uiso   1.00
C473   C     0.71969   0.82654   0.25940   0.00000  Uiso   1.00
C474   C     0.84713   0.83374   0.05724   0.00000  Uiso   1.00
C475   C     0.86365   0.76491   0.06301   0.00000  Uiso   1.00
C476   C     0.94726   0.84031   0.24037   0.00000  Uiso   1.00
C477   C     0.81026   0.86113   0.41942   0.00000  Uiso   1.00
C478   C     0.99269   0.84358   0.23862   0.00000  Uiso   1.00
C479   C     0.67399   0.82202   0.26478   0.00000  Uiso   1.00
C480   C     0.84648   0.98910   0.23836   0.00000  Uiso   1.00
C481   C     0.81707   0.67887   0.26423   0.00000  Uiso   1.00
C482   C     0.82319   0.72266   0.25964   0.00000  Uiso   1.00
C483   C     0.84297   0.94445   0.24046   0.00000  Uiso   1.00
C484   C     0.80519   0.91522   0.48055   0.00000  Uiso   1.00
C485   C     0.85172   0.81448   0.12952   0.00000  Uiso   1.00
C486   C     0.81486   0.85090   0.37097   0.00000  Uiso   1.00
C487   C     0.85814   0.75232   0.02035   0.00000  Uiso   1.00
C488   C     0.85747   0.80532   0.08164   0.00000  Uiso   1.00
C489   C     0.80191   0.90142   0.43738   0.00000  Uiso   1.00
C490   C     0.99604   0.78348   0.32637   0.00000  Uiso   1.00
C491   C     0.81794   0.88959   0.00614   0.00000  Uiso   1.00
C492   C     0.82587   0.84836   0.48966   0.00000  Uiso   1.00
C493   C     0.81943   0.83341   0.44659   0.00000  Uiso   1.00
C494   C     0.83968   0.82135   0.01450   0.00000  Uiso   1.00
C495   C     0.84508   0.77970   0.49650   0.00000  Uiso   1.00
C496   C     0.83542   0.76498   0.45588   0.00000  Uiso   1.00
C497   C     0.82182   0.79105   0.43184   0.00000  Uiso   1.00
H498   H     0.87084   0.74258   0.08236   0.00000  Uiso   1.00
H499   H     0.68129   0.86457   0.21615   0.00000  Uiso   1.00
H500   H     0.67100   0.81256   0.34668   0.00000  Uiso   1.00
H501   H     0.69059   0.76563   0.31413   0.00000  Uiso   1.00
H502   H     0.97063   0.76392   0.34865   0.00000  Uiso   1.00
H503   H     0.76309   0.68506   0.31430   0.00000  Uiso   1.00
H504   H     0.75781   0.98098   0.27341   0.00000  Uiso   1.00
H505   H     0.87417   0.67047   0.21527   0.00000  Uiso   1.00
H506   H     0.83763   0.73280   0.44292   0.00000  Uiso   1.00
H507   H     0.86213   0.72055   0.00685   0.00000  Uiso   1.00
H508   H     0.84236   0.86421   0.07386   0.00000  Uiso   1.00
H509   H     0.79449   0.92300   0.41735   0.00000  Uiso   1.00
H510   H     0.82092   0.90305   0.03876   0.00000  Uiso   1.00
H511   H     0.79919   0.94660   0.49380   0.00000  Uiso   1.00
H512   H     0.81229   0.77710   0.40198   0.00000  Uiso   1.00
N513   N     0.77835   0.99464   0.29347   0.00000  Uiso   1.00
O514   O     0.83333   0.83333   0.25000   0.00000  Uiso   1.00
O515   O     0.82118   0.79304   0.15459   0.00000  Uiso   1.00
O516   O     0.79607   0.87058   0.34968   0.00000  Uiso   1.00
O517   O     0.87491   0.84425   0.14606   0.00000  Uiso   1.00
O518   O     0.84118   0.82546   0.34968   0.00000  Uiso   1.00
O519   O     0.98023   0.79185   0.29043   0.00000  Uiso   1.00
O520   O     0.84597   0.74686   0.28214   0.00000  Uiso   1.00
O521   O     0.81298   0.92751   0.27014   0.00000  Uiso   1.00
O522   O     0.74078   0.79958   0.23413   0.00000  Uiso   1.00
O523   O     0.93360   0.85939   0.21361   0.00000  Uiso   1.00
O524   O     0.73738   0.85544   0.28213   0.00000  Uiso   1.00
O525   O     0.92158   0.81892   0.27014   0.00000  Uiso   1.00
O526   O     0.80426   0.73610   0.23413   0.00000  Uiso   1.00
O527   O     0.87012   0.92286   0.21361   0.00000  Uiso   1.00
Zn528  Zn    0.86005   0.80661   0.28734   0.00000  Uiso   1.00
Zn529  Zn    0.80046   0.79124   0.21876   0.00000  Uiso   1.00
Zn530  Zn    0.87723   0.86442   0.20657   0.00000  Uiso   1.00
Zn531  Zn    0.79560   0.87106   0.28734   0.00000  Uiso   1.00
C532   C     0.05303   0.15987   0.75940   0.00000  Uiso   1.00
C533   C     0.18046   0.16707   0.55724   0.00000  Uiso   1.00
C534   C     0.19698   0.09824   0.56301   0.00000  Uiso   1.00
C535   C     0.28059   0.17364   0.74037   0.00000  Uiso   1.00
C536   C     0.14359   0.19446   0.91942   0.00000  Uiso   1.00
C537   C     0.32602   0.17691   0.73862   0.00000  Uiso   1.00
C538   C     0.00732   0.15535   0.76478   0.00000  Uiso   1.00
C539   C     0.17982   0.32244   0.73836   0.00000  Uiso   1.00
C540   C     0.15040   0.01221   0.76423   0.00000  Uiso   1.00
C541   C     0.15653   0.05599   0.75964   0.00000  Uiso   1.00
C542   C     0.17630   0.27779   0.74046   0.00000  Uiso   1.00
C543   C     0.13853   0.24856   0.98055   0.00000  Uiso   1.00
C544   C     0.18505   0.14781   0.62952   0.00000  Uiso   1.00
C545   C     0.14819   0.18424   0.87097   0.00000  Uiso   1.00
C546   C     0.19148   0.08565   0.52035   0.00000  Uiso   1.00
C547   C     0.19081   0.13865   0.58164   0.00000  Uiso   1.00
C548   C     0.13524   0.23475   0.93738   0.00000  Uiso   1.00
C549   C     0.32937   0.11681   0.82637   0.00000  Uiso   1.00
C550   C     0.15128   0.22293   0.50614   0.00000  Uiso   1.00
C551   C     0.15921   0.18170   0.98966   0.00000  Uiso   1.00
C552   C     0.15276   0.16674   0.94659   0.00000  Uiso   1.00
C553   C     0.17301   0.15468   0.51450   0.00000  Uiso   1.00
C554   C     0.17841   0.11303   0.99650   0.00000  Uiso   1.00
C555   C     0.16875   0.09831   0.95588   0.00000  Uiso   1.00
C556   C     0.15515   0.12439   0.93184   0.00000  Uiso   1.00
H557   H     0.20418   0.07592   0.58236   0.00000  Uiso   1.00
H558   H     0.01463   0.19790   0.71615   0.00000  Uiso   1.00
H559   H     0.00433   0.14589   0.84668   0.00000  Uiso   1.00
H560   H     0.02392   0.09897   0.81413   0.00000  Uiso   1.00
H561   H     0.30396   0.09725   0.84865   0.00000  Uiso   1.00
H562   H     0.09643   0.01839   0.81430   0.00000  Uiso   1.00
H563   H     0.09115   0.31431   0.77341   0.00000  Uiso   1.00
H564   H     0.20751   0.00380   0.71527   0.00000  Uiso   1.00
H565   H     0.17097   0.06613   0.94292   0.00000  Uiso   1.00
H566   H     0.19547   0.05388   0.50685   0.00000  Uiso   1.00
H567   H     0.17570   0.19754   0.57386   0.00000  Uiso   1.00
H568   H     0.12783   0.25634   0.91735   0.00000  Uiso   1.00
H569   H     0.15425   0.23639   0.53876   0.00000  Uiso   1.00
H570   H     0.13252   0.27993   0.99380   0.00000  Uiso   1.00
H571   H     0.14562   0.11043   0.90198   0.00000  Uiso   1.00
N572   N     0.11168   0.32797   0.79347   0.00000  Uiso   1.00
O573   O     0.16667   0.16667   0.75000   0.00000  Uiso   1.00
O574   O     0.15451   0.12637   0.65459   0.00000  Uiso   1.00
O575   O     0.12940   0.20391   0.84968   0.00000  Uiso   1.00
O576   O     0.20824   0.17759   0.64606   0.00000  Uiso   1.00
O577   O     0.17451   0.15880   0.84968   0.00000  Uiso   1.00
O578   O     0.31357   0.12519   0.79043   0.00000  Uiso   1.00
O579   O     0.17930   0.08019   0.78214   0.00000  Uiso   1.00
O580   O     0.14632   0.26085   0.77014   0.00000  Uiso   1.00
O581   O     0.07412   0.13291   0.73413   0.00000  Uiso   1.00
O582   O     0.26693   0.19272   0.71361   0.00000  Uiso   1.00
O583   O     0.07071   0.18878   0.78213   0.00000  Uiso   1.00
O584   O     0.25491   0.15226   0.77014   0.00000  Uiso   1.00
O585   O     0.13760   0.06944   0.73413   0.00000  Uiso   1.00
O586   O     0.20345   0.25620   0.71361   0.00000  Uiso   1.00
Zn587  Zn    0.19338   0.13994   0.78734   0.00000  Uiso   1.00
Zn588  Zn    0.13379   0.12458   0.71876   0.00000  Uiso   1.00
Zn589  Zn    0.21056   0.19775   0.70657   0.00000  Uiso   1.00
Zn590  Zn    0.12893   0.20439   0.78734   0.00000  Uiso   1.00
C591   C     0.38636   0.15987   0.75940   0.00000  Uiso   1.00
C592   C     0.51380   0.16707   0.55724   0.00000  Uiso   1.00
C593   C     0.53032   0.09824   0.56301   0.00000  Uiso   1.00
C594   C     0.61393   0.17364   0.74037   0.00000  Uiso   1.00
C595   C     0.47692   0.19446   0.91942   0.00000  Uiso   1.00
C596   C     0.65936   0.17691   0.73862   0.00000  Uiso   1.00
C597   C     0.34065   0.15535   0.76478   0.00000  Uiso   1.00
C598   C     0.51315   0.32244   0.73836   0.00000  Uiso   1.00
C599   C     0.48373   0.01221   0.76423   0.00000  Uiso   1.00
C600   C     0.48986   0.05599   0.75964   0.00000  Uiso   1.00
C601   C     0.50963   0.27779   0.74046   0.00000  Uiso   1.00
C602   C     0.47186   0.24856   0.98055   0.00000  Uiso   1.00
C603   C     0.51839   0.14781   0.62952   0.00000  Uiso   1.00
C604   C     0.48152   0.18424   0.87097   0.00000  Uiso   1.00
C605   C     0.52481   0.08565   0.52035   0.00000  Uiso   1.00
C606   C     0.52414   0.13865   0.58164   0.00000  Uiso   1.00
C607   C     0.46857   0.23475   0.93738   0.00000  Uiso   1.00
C608   C     0.66270   0.11681   0.82637   0.00000  Uiso   1.00
C609   C     0.48461   0.22293   0.50614   0.00000  Uiso   1.00
C610   C     0.49254   0.18170   0.98966   0.00000  Uiso   1.00
C611   C     0.48609   0.16674   0.94659   0.00000  Uiso   1.00
C612   C     0.50635   0.15468   0.51450   0.00000  Uiso   1.00
C613   C     0.51174   0.11303   0.99650   0.00000  Uiso   1.00
C614   C     0.50208   0.09831   0.95588   0.00000  Uiso   1.00
C615   C     0.48848   0.12439   0.93184   0.00000  Uiso   1.00
H616   H     0.53751   0.07592   0.58236   0.00000  Uiso   1.00
H617   H     0.34796   0.19790   0.71615   0.00000  Uiso   1.00
H618   H     0.33766   0.14589   0.84668   0.00000  Uiso   1.00
H619   H     0.35725   0.09897   0.81413   0.00000  Uiso   1.00
H620   H     0.63730   0.09725   0.84865   0.00000  Uiso   1.00
H621   H     0.42976   0.01839   0.81430   0.00000  Uiso   1.00
H622   H     0.42448   0.31431   0.77341   0.00000  Uiso   1.00
H623   H     0.54084   0.00380   0.71527   0.00000  Uiso   1.00
H624   H     0.50430   0.06613   0.94292   0.00000  Uiso   1.00
H625   H     0.52880   0.05388   0.50685   0.00000  Uiso   1.00
H626   H     0.50903   0.19754   0.57386   0.00000  Uiso   1.00
H627   H     0.46116   0.25634   0.91735   0.00000  Uiso   1.00
H628   H     0.48759   0.23639   0.53876   0.00000  Uiso   1.00
H629   H     0.46585   0.27993   0.99380   0.00000  Uiso   1.00
H630   H     0.47896   0.11043   0.90198   0.00000  Uiso   1.00
N631   N     0.44502   0.32797   0.79347   0.00000  Uiso   1.00
O632   O     0.50000   0.16667   0.75000   0.00000  Uiso   1.00
O633   O     0.48784   0.12637   0.65459   0.00000  Uiso   1.00
O634   O     0.46274   0.20391   0.84968   0.00000  Uiso   1.00
O635   O     0.54157   0.17759   0.64606   0.00000  Uiso   1.00
O636   O     0.50785   0.15880   0.84968   0.00000  Uiso   1.00
O637   O     0.64690   0.12519   0.79043   0.00000  Uiso   1.00
O638   O     0.51264   0.08019   0.78214   0.00000  Uiso   1.00
O639   O     0.47965   0.26085   0.77014   0.00000  Uiso   1.00
O640   O     0.40745   0.13291   0.73413   0.00000  Uiso   1.00
O641   O     0.60026   0.19272   0.71361   0.00000  Uiso   1.00
O642   O     0.40405   0.18878   0.78213   0.00000  Uiso   1.00
O643   O     0.58824   0.15226   0.77014   0.00000  Uiso   1.00
O644   O     0.47093   0.06944   0.73413   0.00000  Uiso   1.00
O645   O     0.53678   0.25620   0.71361   0.00000  Uiso   1.00
Zn646  Zn    0.52672   0.13994   0.78734   0.00000  Uiso   1.00
Zn647  Zn    0.46713   0.12458   0.71876   0.00000  Uiso   1.00
Zn648  Zn    0.54389   0.19775   0.70657   0.00000  Uiso   1.00
Zn649  Zn    0.46226   0.20439   0.78734   0.00000  Uiso   1.00
C650   C     0.71969   0.15987   0.75940   0.00000  Uiso   1.00
C651   C     0.84713   0.16707   0.55724   0.00000  Uiso   1.00
C652   C     0.86365   0.09824   0.56301   0.00000  Uiso   1.00
C653   C     0.94726   0.17364   0.74037   0.00000  Uiso   1.00
C654   C     0.81026   0.19446   0.91942   0.00000  Uiso   1.00
C655   C     0.99269   0.17691   0.73862   0.00000  Uiso   1.00
C656   C     0.67399   0.15535   0.76478   0.00000  Uiso   1.00
C657   C     0.84648   0.32244   0.73836   0.00000  Uiso   1.00
C658   C     0.81707   0.01221   0.76423   0.00000  Uiso   1.00
C659   C     0.82319   0.05599   0.75964   0.00000  Uiso   1.00
C660   C     0.84297   0.27779   0.74046   0.00000  Uiso   1.00
C661   C     0.80519   0.24856   0.98055   0.00000  Uiso   1.00
C662   C     0.85172   0.14781   0.62952   0.00000  Uiso   1.00
C663   C     0.81486   0.18424   0.87097   0.00000  Uiso   1.00
C664   C     0.85814   0.08565   0.52035   0.00000  Uiso   1.00
C665   C     0.85747   0.13865   0.58164   0.00000  Uiso   1.00
C666   C     0.80191   0.23475   0.93738   0.00000  Uiso   1.00
C667   C     0.99604   0.11681   0.82637   0.00000  Uiso   1.00
C668   C     0.81794   0.22293   0.50614   0.00000  Uiso   1.00
C669   C     0.82587   0.18170   0.98966   0.00000  Uiso   1.00
C670   C     0.81943   0.16674   0.94659   0.00000  Uiso   1.00
C671   C     0.83968   0.15468   0.51450   0.00000  Uiso   1.00
C672   C     0.84508   0.11303   0.99650   0.00000  Uiso   1.00
C673   C     0.83542   0.09831   0.95588   0.00000  Uiso   1.00
C674   C     0.82182   0.12439   0.93184   0.00000  Uiso   1.00
H675   H     0.87084   0.07592   0.58236   0.00000  Uiso   1.00
H676   H     0.68129   0.19790   0.71615   0.00000  Uiso   1.00
H677   H     0.67100   0.14589   0.84668   0.00000  Uiso   1.00
H678   H     0.69059   0.09897   0.81413   0.00000  Uiso   1.00
H679   H     0.97063   0.09725   0.84865   0.00000  Uiso   1.00
H680   H     0.76309   0.01839   0.81430   0.00000  Uiso   1.00
H681   H     0.75781   0.31431   0.77341   0.00000  Uiso   1.00
H682   H     0.87417   0.00380   0.71527   0.00000  Uiso   1.00
H683   H     0.83763   0.06613   0.94292   0.00000  Uiso   1.00
H684   H     0.86213   0.05388   0.50685   0.00000  Uiso   1.00
H685   H     0.84236   0.19754   0.57386   0.00000  Uiso   1.00
H686   H     0.79449   0.25634   0.91735   0.00000  Uiso   1.00
H687   H     0.82092   0.23639   0.53876   0.00000  Uiso   1.00
H688   H     0.79919   0.27993   0.99380   0.00000  Uiso   1.00
H689   H     0.81229   0.11043   0.90198   0.00000  Uiso   1.00
N690   N     0.77835   0.32797   0.79347   0.00000  Uiso   1.00
O691   O     0.83333   0.16667   0.75000   0.00000  Uiso   1.00
O692   O     0.82118   0.12637   0.65459   0.00000  Uiso   1.00
O693   O     0.79607   0.20391   0.84968   0.00000  Uiso   1.00
O694   O     0.87491   0.17759   0.64606   0.00000  Uiso   1.00
O695   O     0.84118   0.15880   0.84968   0.00000  Uiso   1.00
O696   O     0.98023   0.12519   0.79043   0.00000  Uiso   1.00
O697   O     0.84597   0.08019   0.78214   0.00000  Uiso   1.00
O698   O     0.81298   0.26085   0.77014   0.00000  Uiso   1.00
O699   O     0.74078   0.13291   0.73413   0.00000  Uiso   1.00
O700   O     0.93360   0.19272   0.71361   0.00000  Uiso   1.00
O701   O     0.73738   0.18878   0.78213   0.00000  Uiso   1.00
O702   O     0.92158   0.15226   0.77014   0.00000  Uiso   1.00
O703   O     0.80426   0.06944   0.73413   0.00000  Uiso   1.00
O704   O     0.87012   0.25620   0.71361   0.00000  Uiso   1.00
Zn705  Zn    0.86005   0.13994   0.78734   0.00000  Uiso   1.00
Zn706  Zn    0.80046   0.12458   0.71876   0.00000  Uiso   1.00
Zn707  Zn    0.87723   0.19775   0.70657   0.00000  Uiso   1.00
Zn708  Zn    0.79560   0.20439   0.78734   0.00000  Uiso   1.00
C709   C     0.05303   0.49321   0.75940   0.00000  Uiso   1.00
C710   C     0.18046   0.50041   0.55724   0.00000  Uiso   1.00
C711   C     0.19698   0.43158   0.56301   0.00000  Uiso   1.00
C712   C     0.28059   0.50698   0.74037   0.00000  Uiso   1.00
C713   C     0.14359   0.52779   0.91942   0.00000  Uiso   1.00
C714   C     0.32602   0.51024   0.73862   0.00000  Uiso   1.00
C715   C     0.00732   0.48869   0.76478   0.00000  Uiso   1.00
C716   C     0.17982   0.65577   0.73836   0.00000  Uiso   1.00
C717   C     0.15040   0.34554   0.76423   0.00000  Uiso   1.00
C718   C     0.15653   0.38932   0.75964   0.00000  Uiso   1.00
C719   C     0.17630   0.61112   0.74046   0.00000  Uiso   1.00
C720   C     0.13853   0.58189   0.98055   0.00000  Uiso   1.00
C721   C     0.18505   0.48115   0.62952   0.00000  Uiso   1.00
C722   C     0.14819   0.51757   0.87097   0.00000  Uiso   1.00
C723   C     0.19148   0.41899   0.52035   0.00000  Uiso   1.00
C724   C     0.19081   0.47199   0.58164   0.00000  Uiso   1.00
C725   C     0.13524   0.56808   0.93738   0.00000  Uiso   1.00
C726   C     0.32937   0.45014   0.82637   0.00000  Uiso   1.00
C727   C     0.15128   0.55626   0.50614   0.00000  Uiso   1.00
C728   C     0.15921   0.51503   0.98966   0.00000  Uiso   1.00
C729   C     0.15276   0.50008   0.94659   0.00000  Uiso   1.00
C730   C     0.17301   0.48801   0.51450   0.00000  Uiso   1.00
C731   C     0.17841   0.44637   0.99650   0.00000  Uiso   1.00
C732   C     0.16875   0.43164   0.95588   0.00000  Uiso   1.00
C733   C     0.15515   0.45772   0.93184   0.00000  Uiso   1.00
H734   H     0.20418   0.40925   0.58236   0.00000  Uiso   1.00
H735   H     0.01463   0.53123   0.71615   0.00000  Uiso   1.00
H736   H     0.00433   0.47922   0.84668   0.00000  Uiso   1.00
H737   H     0.02392   0.43230   0.81413   0.00000  Uiso   1.00
H738   H     0.30396   0.43059   0.84865   0.00000  Uiso   1.00
H739   H     0.09643   0.35172   0.81430   0.00000  Uiso   1.00
H740   H     0.09115   0.64765   0.77341   0.00000  Uiso   1.00
H741   H     0.20751   0.33713   0.71527   0.00000  Uiso   1.00
H742   H     0.17097   0.39946   0.94292   0.00000  Uiso   1.00
H743   H     0.19547   0.38721   0.50685   0.00000  Uiso   1.00
H744   H     0.17570   0.53087   0.57386   0.00000  Uiso   1.00
H745   H     0.12783   0.58967   0.91735   0.00000  Uiso   1.00
H746   H     0.15425   0.56972   0.53876   0.00000  Uiso   1.00
H747   H     0.13252   0.61327   0.99380   0.00000  Uiso   1.00
H748   H     0.14562   0.44377   0.90198   0.00000  Uiso   1.00
N749   N     0.11168   0.66130   0.79347   0.00000  Uiso   1.00
O750   O     0.16667   0.50000   0.75000   0.00000  Uiso   1.00
O751   O     0.15451   0.45970   0.65459   0.00000  Uiso   1.00
O752   O     0.12940   0.53724   0.84968   0.00000  Uiso   1.00
O753   O     0.20824   0.51092   0.64606   0.00000  Uiso   1.00
O754   O     0.17451   0.49213   0.84968   0.00000  Uiso   1.00
O755   O     0.31357   0.45852   0.79043   0.00000  Uiso   1.00
O756   O     0.17930   0.41352   0.78214   0.00000  Uiso   1.00
O757   O     0.14632   0.59418   0.77014   0.00000  Uiso   1.00
O758   O     0.07412   0.46625   0.73413   0.00000  Uiso   1.00
O759   O     0.26693   0.52605   0.71361   0.00000  Uiso   1.00
O760   O     0.07071   0.52211   0.78213   0.00000  Uiso   1.00
O761   O     0.25491   0.48559   0.77014   0.00000  Uiso   1.00
O762   O     0.13760   0.40277   0.73413   0.00000  Uiso   1.00
O763   O     0.20345   0.58953   0.71361   0.00000  Uiso   1.00
Zn764  Zn    0.19338   0.47327   0.78734   0.00000  Uiso   1.00
Zn765  Zn    0.13379   0.45791   0.71876   0.00000  Uiso   1.00
Zn766  Zn    0.21056   0.53109   0.70657   0.00000  Uiso   1.00
Zn767  Zn    0.12893   0.53773   0.78734   0.00000  Uiso   1.00
C768   C     0.38636   0.49321   0.75940   0.00000  Uiso   1.00
C769   C     0.51380   0.50041   0.55724   0.00000  Uiso   1.00
C770   C     0.53032   0.43158   0.56301   0.00000  Uiso   1.00
C771   C     0.61393   0.50698   0.74037   0.00000  Uiso   1.00
C772   C     0.47692   0.52779   0.91942   0.00000  Uiso   1.00
C773   C     0.65936   0.51024   0.73862   0.00000  Uiso   1.00
C774   C     0.34065   0.48869   0.76478   0.00000  Uiso   1.00
C775   C     0.51315   0.65577   0.73836   0.00000  Uiso   1.00
C776   C     0.48373   0.34554   0.76423   0.00000  Uiso   1.00
C777   C     0.48986   0.38932   0.75964   0.00000  Uiso   1.00
C778   C     0.50963   0.61112   0.74046   0.00000  Uiso   1.00
C779   C     0.47186   0.58189   0.98055   0.00000  Uiso   1.00
C780   C     0.51839   0.48115   0.62952   0.00000  Uiso   1.00
C781   C     0.48152   0.51757   0.87097   0.00000  Uiso   1.00
C782   C     0.52481   0.41899   0.52035   0.00000  Uiso   1.00
C783   C     0.52414   0.47199   0.58164   0.00000  Uiso   1.00
C784   C     0.46857   0.56808   0.93738   0.00000  Uiso   1.00
C785   C     0.66270   0.45014   0.82637   0.00000  Uiso   1.00
C786   C     0.48461   0.55626   0.50614   0.00000  Uiso   1.00
C787   C     0.49254   0.51503   0.98966   0.00000  Uiso   1.00
C788   C     0.48609   0.50008   0.94659   0.00000  Uiso   1.00
C789   C     0.50635   0.48801   0.51450   0.00000  Uiso   1.00
C790   C     0.51174   0.44637   0.99650   0.00000  Uiso   1.00
C791   C     0.50208   0.43164   0.95588   0.00000  Uiso   1.00
C792   C     0.48848   0.45772   0.93184   0.00000  Uiso   1.00
H793   H     0.53751   0.40925   0.58236   0.00000  Uiso   1.00
H794   H     0.34796   0.53123   0.71615   0.00000  Uiso   1.00
H795   H     0.33766   0.47922   0.84668   0.00000  Uiso   1.00
H796   H     0.35725   0.43230   0.81413   0.00000  Uiso   1.00
H797   H     0.63730   0.43059   0.84865   0.00000  Uiso   1.00
H798   H     0.42976   0.35172   0.81430   0.00000  Uiso   1.00
H799   H     0.42448   0.64765   0.77341   0.00000  Uiso   1.00
H800   H     0.54084   0.33713   0.71527   0.00000  Uiso   1.00
H801   H     0.50430   0.39946   0.94292   0.00000  Uiso   1.00
H802   H     0.52880   0.38721   0.50685   0.00000  Uiso   1.00
H803   H     0.50903   0.53087   0.57386   0.00000  Uiso   1.00
H804   H     0.46116   0.58967   0.91735   0.00000  Uiso   1.00
H805   H     0.48759   0.56972   0.53876   0.00000  Uiso   1.00
H806   H     0.46585   0.61327   0.99380   0.00000  Uiso   1.00
H807   H     0.47896   0.44377   0.90198   0.00000  Uiso   1.00
N808   N     0.44502   0.66130   0.79347   0.00000  Uiso   1.00
O809   O     0.50000   0.50000   0.75000   0.00000  Uiso   1.00
O810   O     0.48784   0.45970   0.65459   0.00000  Uiso   1.00
O811   O     0.46274   0.53724   0.84968   0.00000  Uiso   1.00
O812   O     0.54157   0.51092   0.64606   0.00000  Uiso   1.00
O813   O     0.50785   0.49213   0.84968   0.00000  Uiso   1.00
O814   O     0.64690   0.45852   0.79043   0.00000  Uiso   1.00
O815   O     0.51264   0.41352   0.78214   0.00000  Uiso   1.00
O816   O     0.47965   0.59418   0.77014   0.00000  Uiso   1.00
O817   O     0.40745   0.46625   0.73413   0.00000  Uiso   1.00
O818   O     0.60026   0.52605   0.71361   0.00000  Uiso   1.00
O819   O     0.40405   0.52211   0.78213   0.00000  Uiso   1.00
O820   O     0.58824   0.48559   0.77014   0.00000  Uiso   1.00
O821   O     0.47093   0.40277   0.73413   0.00000  Uiso   1.00
O822   O     0.53678   0.58953   0.71361   0.00000  Uiso   1.00
Zn823  Zn    0.52672   0.47327   0.78734   0.00000  Uiso   1.00
Zn824  Zn    0.46713   0.45791   0.71876   0.00000  Uiso   1.00
Zn825  Zn    0.54389   0.53109   0.70657   0.00000  Uiso   1.00
Zn826  Zn    0.46226   0.53773   0.78734   0.00000  Uiso   1.00
C827   C     0.71969   0.49321   0.75940   0.00000  Uiso   1.00
C828   C     0.84713   0.50041   0.55724   0.00000  Uiso   1.00
C829   C     0.86365   0.43158   0.56301   0.00000  Uiso   1.00
C830   C     0.94726   0.50698   0.74037   0.00000  Uiso   1.00
C831   C     0.81026   0.52779   0.91942   0.00000  Uiso   1.00
C832   C     0.99269   0.51024   0.73862   0.00000  Uiso   1.00
C833   C     0.67399   0.48869   0.76478   0.00000  Uiso   1.00
C834   C     0.84648   0.65577   0.73836   0.00000  Uiso   1.00
C835   C     0.81707   0.34554   0.76423   0.00000  Uiso   1.00
C836   C     0.82319   0.38932   0.75964   0.00000  Uiso   1.00
C837   C     0.84297   0.61112   0.74046   0.00000  Uiso   1.00
C838   C     0.80519   0.58189   0.98055   0.00000  Uiso   1.00
C839   C     0.85172   0.48115   0.62952   0.00000  Uiso   1.00
C840   C     0.81486   0.51757   0.87097   0.00000  Uiso   1.00
C841   C     0.85814   0.41899   0.52035   0.00000  Uiso   1.00
C842   C     0.85747   0.47199   0.58164   0.00000  Uiso   1.00
C843   C     0.80191   0.56808   0.93738   0.00000  Uiso   1.00
C844   C     0.99604   0.45014   0.82637   0.00000  Uiso   1.00
C845   C     0.81794   0.55626   0.50614   0.00000  Uiso   1.00
C846   C     0.82587   0.51503   0.98966   0.00000  Uiso   1.00
C847   C     0.81943   0.50008   0.94659   0.00000  Uiso   1.00
C848   C     0.83968   0.48801   0.51450   0.00000  Uiso   1.00
C849   C     0.84508   0.44637   0.99650   0.00000  Uiso   1.00
C850   C     0.83542   0.43164   0.95588   0.00000  Uiso   1.00
C851   C     0.82182   0.45772   0.93184   0.00000  Uiso   1.00
H852   H     0.87084   0.40925   0.58236   0.00000  Uiso   1.00
H853   H     0.68129   0.53123   0.71615   0.00000  Uiso   1.00
H854   H     0.67100   0.47922   0.84668   0.00000  Uiso   1.00
H855   H     0.69059   0.43230   0.81413   0.00000  Uiso   1.00
H856   H     0.97063   0.43059   0.84865   0.00000  Uiso   1.00
H857   H     0.76309   0.35172   0.81430   0.00000  Uiso   1.00
H858   H     0.75781   0.64765   0.77341   0.00000  Uiso   1.00
H859   H     0.87417   0.33713   0.71527   0.00000  Uiso   1.00
H860   H     0.83763   0.39946   0.94292   0.00000  Uiso   1.00
H861   H     0.86213   0.38721   0.50685   0.00000  Uiso   1.00
H862   H     0.84236   0.53087   0.57386   0.00000  Uiso   1.00
H863   H     0.79449   0.58967   0.91735   0.00000  Uiso   1.00
H864   H     0.82092   0.56972   0.53876   0.00000  Uiso   1.00
H865   H     0.79919   0.61327   0.99380   0.00000  Uiso   1.00
H866   H     0.81229   0.44377   0.90198   0.00000  Uiso   1.00
N867   N     0.77835   0.66130   0.79347   0.00000  Uiso   1.00
O868   O     0.83333   0.50000   0.75000   0.00000  Uiso   1.00
O869   O     0.82118   0.45970   0.65459   0.00000  Uiso   1.00
O870   O     0.79607   0.53724   0.84968   0.00000  Uiso   1.00
O871   O     0.87491   0.51092   0.64606   0.00000  Uiso   1.00
O872   O     0.84118   0.49213   0.84968   0.00000  Uiso   1.00
O873   O     0.98023   0.45852   0.79043   0.00000  Uiso   1.00
O874   O     0.84597   0.41352   0.78214   0.00000  Uiso   1.00
O875   O     0.81298   0.59418   0.77014   0.00000  Uiso   1.00
O876   O     0.74078   0.46625   0.73413   0.00000  Uiso   1.00
O877   O     0.93360   0.52605   0.71361   0.00000  Uiso   1.00
O878   O     0.73738   0.52211   0.78213   0.00000  Uiso   1.00
O879   O     0.92158   0.48559   0.77014   0.00000  Uiso   1.00
O880   O     0.80426   0.40277   0.73413   0.00000  Uiso   1.00
O881   O     0.87012   0.58953   0.71361   0.00000  Uiso   1.00
Zn882  Zn    0.86005   0.47327   0.78734   0.00000  Uiso   1.00
Zn883  Zn    0.80046   0.45791   0.71876   0.00000  Uiso   1.00
Zn884  Zn    0.87723   0.53109   0.70657   0.00000  Uiso   1.00
Zn885  Zn    0.79560   0.53773   0.78734   0.00000  Uiso   1.00
C886   C     0.05303   0.82654   0.75940   0.00000  Uiso   1.00
C887   C     0.18046   0.83374   0.55724   0.00000  Uiso   1.00
C888   C     0.19698   0.76491   0.56301   0.00000  Uiso   1.00
C889   C     0.28059   0.84031   0.74037   0.00000  Uiso   1.00
C890   C     0.14359   0.86113   0.91942   0.00000  Uiso   1.00
C891   C     0.32602   0.84358   0.73862   0.00000  Uiso   1.00
C892   C     0.00732   0.82202   0.76478   0.00000  Uiso   1.00
C893   C     0.17982   0.98910   0.73836   0.00000  Uiso   1.00
C894   C     0.15040   0.67887   0.76423   0.00000  Uiso   1.00
C895   C     0.15653   0.72266   0.75964   0.00000  Uiso   1.00
C896   C     0.17630   0.94445   0.74046   0.00000  Uiso   1.00
C897   C     0.13853   0.91522   0.98055   0.00000  Uiso   1.00
C898   C     0.18505   0.81448   0.62952   0.00000  Uiso   1.00
C899   C     0.14819   0.85090   0.87097   0.00000  Uiso   1.00
C900   C     0.19148   0.75232   0.52035   0.00000  Uiso   1.00
C901   C     0.19081   0.80532   0.58164   0.00000  Uiso   1.00
C902   C     0.13524   0.90142   0.93738   0.00000  Uiso   1.00
C903   C     0.32937   0.78348   0.82637   0.00000  Uiso   1.00
C904   C     0.15128   0.88959   0.50614   0.00000  Uiso   1.00
C905   C     0.15921   0.84836   0.98966   0.00000  Uiso   1.00
C906   C     0.15276   0.83341   0.94659   0.00000  Uiso   1.00
C907   C     0.17301   0.82135   0.51450   0.00000  Uiso   1.00
C908   C     0.17841   0.77970   0.99650   0.00000  Uiso   1.00
C909   C     0.16875   0.76498   0.95588   0.00000  Uiso   1.00
C910   C     0.15515   0.79105   0.93184   0.00000  Uiso   1.00
H911   H     0.20418   0.74258   0.58236   0.00000  Uiso   1.00
H912   H     0.01463   0.86457   0.71615   0.00000  Uiso   1.00
H913   H     0.00433   0.81256   0.84668   0.00000  Uiso   1.00
H914   H     0.02392   0.76563   0.81413   0.00000  Uiso   1.00
H915   H     0.30396   0.76392   0.84865   0.00000  Uiso   1.00
H916   H     0.09643   0.68506   0.81430   0.00000  Uiso   1.00
H917   H     0.09115   0.98098   0.77341   0.00000  Uiso   1.00
H918   H     0.20751   0.67047   0.71527   0.00000  Uiso   1.00
H919   H     0.17097   0.73280   0.94292   0.00000  Uiso   1.00
H920   H     0.19547   0.72055   0.50685   0.00000  Uiso   1.00
H921   H     0.17570   0.86421   0.57386   0.00000  Uiso   1.00
H922   H     0.12783   0.92300   0.91735   0.00000  Uiso   1.00
H923   H     0.15425   0.90305   0.53876   0.00000  Uiso   1.00
H924   H     0.13252   0.94660   0.99380   0.00000  Uiso   1.00
H925   H     0.14562   0.77710   0.90198   0.00000  Uiso   1.00
N926   N     0.11168   0.99464   0.79347   0.00000  Uiso   1.00
O927   O     0.16667   0.83333   0.75000   0.00000  Uiso   1.00
O928   O     0.15451   0.79304   0.65459   0.00000  Uiso   1.00
O929   O     0.12940   0.87058   0.84968   0.00000  Uiso   1.00
O930   O     0.20824   0.84425   0.64606   0.00000  Uiso   1.00
O931   O     0.17451   0.82546   0.84968   0.00000  Uiso   1.00
O932   O     0.31357   0.79185   0.79043   0.00000  Uiso   1.00
O933   O     0.17930   0.74686   0.78214   0.00000  Uiso   1.00
O934   O     0.14632   0.92751   0.77014   0.00000  Uiso   1.00
O935   O     0.07412   0.79958   0.73413   0.00000  Uiso   1.00
O936   O     0.26693   0.85939   0.71361   0.00000  Uiso   1.00
O937   O     0.07071   0.85544   0.78213   0.00000  Uiso   1.00
O938   O     0.25491   0.81892   0.77014   0.00000  Uiso   1.00
O939   O     0.13760   0.73610   0.73413   0.00000  Uiso   1.00
O940   O     0.20345   0.92286   0.71361   0.00000  Uiso   1.00
Zn941  Zn    0.19338   0.80661   0.78734   0.00000  Uiso   1.00
Zn942  Zn    0.13379   0.79124   0.71876   0.00000  Uiso   1.00
Zn943  Zn    0.21056   0.86442   0.70657   0.00000  Uiso   1.00
Zn944  Zn    0.12893   0.87106   0.78734   0.00000  Uiso   1.00
C945   C     0.38636   0.82654   0.75940   0.00000  Uiso   1.00
C946   C     0.51380   0.83374   0.55724   0.00000  Uiso   1.00
C947   C     0.53032   0.76491   0.56301   0.00000  Uiso   1.00
C948   C     0.61393   0.84031   0.74037   0.00000  Uiso   1.00
C949   C     0.47692   0.86113   0.91942   0.00000  Uiso   1.00
C950   C     0.65936   0.84358   0.73862   0.00000  Uiso   1.00
C951   C     0.34065   0.82202   0.76478   0.00000  Uiso   1.00
C952   C     0.51315   0.98910   0.73836   0.00000  Uiso   1.00
C953   C     0.48373   0.67887   0.76423   0.00000  Uiso   1.00
C954   C     0.48986   0.72266   0.75964   0.00000  Uiso   1.00
C955   C     0.50963   0.94445   0.74046   0.00000  Uiso   1.00
C956   C     0.47186   0.91522   0.98055   0.00000  Uiso   1.00
C957   C     0.51839   0.81448   0.62952   0.00000  Uiso   1.00
C958   C     0.48152   0.85090   0.87097   0.00000  Uiso   1.00
C959   C     0.52481   0.75232   0.52035   0.00000  Uiso   1.00
C960   C     0.52414   0.80532   0.58164   0.00000  Uiso   1.00
C961   C     0.46857   0.90142   0.93738   0.00000  Uiso   1.00
C962   C     0.66270   0.78348   0.82637   0.00000  Uiso   1.00
C963   C     0.48461   0.88959   0.50614   0.00000  Uiso   1.00
C964   C     0.49254   0.84836   0.98966   0.00000  Uiso   1.00
C965   C     0.48609   0.83341   0.94659   0.00000  Uiso   1.00
C966   C     0.50635   0.82135   0.51450   0.00000  Uiso   1.00
C967   C     0.51174   0.77970   0.99650   0.00000  Uiso   1.00
C968   C     0.50208   0.76498   0.95588   0.00000  Uiso   1.00
C969   C     0.48848   0.79105   0.93184   0.00000  Uiso   1.00
H970   H     0.53751   0.74258   0.58236   0.00000  Uiso   1.00
H971   H     0.34796   0.86457   0.71615   0.00000  Uiso   1.00
H972   H     0.33766   0.81256   0.84668   0.00000  Uiso   1.00
H973   H     0.35725   0.76563   0.81413   0.00000  Uiso   1.00
H974   H     0.63730   0.76392   0.84865   0.00000  Uiso   1.00
H975   H     0.42976   0.68506   0.81430   0.00000  Uiso   1.00
H976   H     0.42448   0.98098   0.77341   0.00000  Uiso   1.00
H977   H     0.54084   0.67047   0.71527   0.00000  Uiso   1.00
H978   H     0.50430   0.73280   0.94292   0.00000  Uiso   1.00
H979   H     0.52880   0.72055   0.50685   0.00000  Uiso   1.00
H980   H     0.50903   0.86421   0.57386   0.00000  Uiso   1.00
H981   H     0.46116   0.92300   0.91735   0.00000  Uiso   1.00
H982   H     0.48759   0.90305   0.53876   0.00000  Uiso   1.00
H983   H     0.46585   0.94660   0.99380   0.00000  Uiso   1.00
H984   H     0.47896   0.77710   0.90198   0.00000  Uiso   1.00
N985   N     0.44502   0.99464   0.79347   0.00000  Uiso   1.00
O986   O     0.50000   0.83333   0.75000   0.00000  Uiso   1.00
O987   O     0.48784   0.79304   0.65459   0.00000  Uiso   1.00
O988   O     0.46274   0.87058   0.84968   0.00000  Uiso   1.00
O989   O     0.54157   0.84425   0.64606   0.00000  Uiso   1.00
O990   O     0.50785   0.82546   0.84968   0.00000  Uiso   1.00
O991   O     0.64690   0.79185   0.79043   0.00000  Uiso   1.00
O992   O     0.51264   0.74686   0.78214   0.00000  Uiso   1.00
O993   O     0.47965   0.92751   0.77014   0.00000  Uiso   1.00
O994   O     0.40745   0.79958   0.73413   0.00000  Uiso   1.00
O995   O     0.60026   0.85939   0.71361   0.00000  Uiso   1.00
O996   O     0.40405   0.85544   0.78213   0.00000  Uiso   1.00
O997   O     0.58824   0.81892   0.77014   0.00000  Uiso   1.00
O998   O     0.47093   0.73610   0.73413   0.00000  Uiso   1.00
O999   O     0.53678   0.92286   0.71361   0.00000  Uiso   1.00
Zn1000 Zn    0.52672   0.80661   0.78734   0.00000  Uiso   1.00
Zn1001 Zn    0.46713   0.79124   0.71876   0.00000  Uiso   1.00
Zn1002 Zn    0.54389   0.86442   0.70657   0.00000  Uiso   1.00
Zn1003 Zn    0.46226   0.87106   0.78734   0.00000  Uiso   1.00
C1004  C     0.71969   0.82654   0.75940   0.00000  Uiso   1.00
C1005  C     0.84713   0.83374   0.55724   0.00000  Uiso   1.00
C1006  C     0.86365   0.76491   0.56301   0.00000  Uiso   1.00
C1007  C     0.94726   0.84031   0.74037   0.00000  Uiso   1.00
C1008  C     0.81026   0.86113   0.91942   0.00000  Uiso   1.00
C1009  C     0.99269   0.84358   0.73862   0.00000  Uiso   1.00
C1010  C     0.67399   0.82202   0.76478   0.00000  Uiso   1.00
C1011  C     0.84648   0.98910   0.73836   0.00000  Uiso   1.00
C1012  C     0.81707   0.67887   0.76423   0.00000  Uiso   1.00
C1013  C     0.82319   0.72266   0.75964   0.00000  Uiso   1.00
C1014  C     0.84297   0.94445   0.74046   0.00000  Uiso   1.00
C1015  C     0.80519   0.91522   0.98055   0.00000  Uiso   1.00
C1016  C     0.85172   0.81448   0.62952   0.00000  Uiso   1.00
C1017  C     0.81486   0.85090   0.87097   0.00000  Uiso   1.00
C1018  C     0.85814   0.75232   0.52035   0.00000  Uiso   1.00
C1019  C     0.85747   0.80532   0.58164   0.00000  Uiso   1.00
C1020  C     0.80191   0.90142   0.93738   0.00000  Uiso   1.00
C1021  C     0.99604   0.78348   0.82637   0.00000  Uiso   1.00
C1022  C     0.81794   0.88959   0.50614   0.00000  Uiso   1.00
C1023  C     0.82587   0.84836   0.98966   0.00000  Uiso   1.00
C1024  C     0.81943   0.83341   0.94659   0.00000  Uiso   1.00
C1025  C     0.83968   0.82135   0.51450   0.00000  Uiso   1.00
C1026  C     0.84508   0.77970   0.99650   0.00000  Uiso   1.00
C1027  C     0.83542   0.76498   0.95588   0.00000  Uiso   1.00
C1028  C     0.82182   0.79105   0.93184   0.00000  Uiso   1.00
H1029  H     0.87084   0.74258   0.58236   0.00000  Uiso   1.00
H1030  H     0.68129   0.86457   0.71615   0.00000  Uiso   1.00
H1031  H     0.67100   0.81256   0.84668   0.00000  Uiso   1.00
H1032  H     0.69059   0.76563   0.81413   0.00000  Uiso   1.00
H1033  H     0.97063   0.76392   0.84865   0.00000  Uiso   1.00
H1034  H     0.76309   0.68506   0.81430   0.00000  Uiso   1.00
H1035  H     0.75781   0.98098   0.77341   0.00000  Uiso   1.00
H1036  H     0.87417   0.67047   0.71527   0.00000  Uiso   1.00
H1037  H     0.83763   0.73280   0.94292   0.00000  Uiso   1.00
H1038  H     0.86213   0.72055   0.50685   0.00000  Uiso   1.00
H1039  H     0.84236   0.86421   0.57386   0.00000  Uiso   1.00
H1040  H     0.79449   0.92300   0.91735   0.00000  Uiso   1.00
H1041  H     0.82092   0.90305   0.53876   0.00000  Uiso   1.00
H1042  H     0.79919   0.94660   0.99380   0.00000  Uiso   1.00
H1043  H     0.81229   0.77710   0.90198   0.00000  Uiso   1.00
N1044  N     0.77835   0.99464   0.79347   0.00000  Uiso   1.00
O1045  O     0.83333   0.83333   0.75000   0.00000  Uiso   1.00
O1046  O     0.82118   0.79304   0.65459   0.00000  Uiso   1.00
O1047  O     0.79607   0.87058   0.84968   0.00000  Uiso   1.00
O1048  O     0.87491   0.84425   0.64606   0.00000  Uiso   1.00
O1049  O     0.84118   0.82546   0.84968   0.00000  Uiso   1.00
O1050  O     0.98023   0.79185   0.79043   0.00000  Uiso   1.00
O1051  O     0.84597   0.74686   0.78214   0.00000  Uiso   1.00
O1052  O     0.81298   0.92751   0.77014   0.00000  Uiso   1.00
O1053  O     0.74078   0.79958   0.73413   0.00000  Uiso   1.00
O1054  O     0.93360   0.85939   0.71361   0.00000  Uiso   1.00
O1055  O     0.73738   0.85544   0.78213   0.00000  Uiso   1.00
O1056  O     0.92158   0.81892   0.77014   0.00000  Uiso   1.00
O1057  O     0.80426   0.73610   0.73413   0.00000  Uiso   1.00
O1058  O     0.87012   0.92286   0.71361   0.00000  Uiso   1.00
Zn1059 Zn    0.86005   0.80661   0.78734   0.00000  Uiso   1.00
Zn1060 Zn    0.80046   0.79124   0.71876   0.00000  Uiso   1.00
Zn1061 Zn    0.87723   0.86442   0.70657   0.00000  Uiso   1.00
Zn1062 Zn    0.79560   0.87106   0.78734   0.00000  Uiso   1.00
loop_
_geom_bond_atom_site_label_1
_geom_bond_atom_site_label_2
_geom_bond_distance
_geom_bond_site_symmetry_2
_ccdc_geom_bond_type
C1     O52     1.268   .     A
C1     O50     1.264   .     A
C1     C7      1.444   .     S
C2     C22     1.410   .     A
C2     C16     1.392   .     A
C2     H36     1.077   .     S
C3     C15     1.387   .     A
C3     H26     1.084   .     S
C3     C16     1.396   .     A
C4     O53     1.277   .     A
C4     C6      1.457   .     S
C4     O51     1.293   .     A
C5     C14     1.474   .     S
C5     C17     1.402   .     A
C5     C21     1.418   .     A
C6     C66     1.347   .     S
C6     H86     1.088   .     S
C7     C124    1.347   1_455 S
C7     O165    1.399   1_455 S
C8     C11     1.453   .     S
C8     C186    1.344   .     S
C8     H210    1.088   .     S
C9     C10     1.433   .     S
C9     C362    1.344   1_545 S
C9     N395    1.440   1_545 S
C10    O48     1.274   .     A
C10    O54     1.270   .     A
C11    O55     1.281   .     A
C11    O49     1.270   .     A
C12    C17     1.387   .     A
C12    H39     1.083   .     S
C12    C550    1.391   .     S
C13    O45     1.282   .     A
C13    C16     1.449   .     S
C13    O43     1.272   .     A
C14    O44     1.284   .     A
C14    O46     1.285   .     A
C15    H35     1.084   .     S
C15    C554    1.400   1_554 S
C17    H37     1.083   .     S
C18    H30     1.109   .     S
C18    O47     1.412   .     S
C18    H87     1.113   .     S
C18    H88     1.112   .     S
C19    H38     1.076   .     S
C19    C543    1.391   1_554 S
C19    C551    1.417   1_554 S
C20    C21     1.423   .     A
C20    C550    1.417   .     S
C20    C553    1.426   .     S
C21    C25     1.410   .     A
C22    C551    1.426   1_554 S
C22    C554    1.424   1_554 S
C23    C24     1.390   .     A
C23    C553    1.424   .     S
C23    C546    1.400   .     S
C24    C25     1.382   .     A
C24    H34     1.084   .     S
C25    H40     1.080   .     S
H27    C124    1.088   1_455 S
H28    C136    1.113   1_455 S
H29    C136    1.112   1_455 S
H31    N395    1.046   1_545 S
H32    N41     1.046   .     S
H33    C362    1.088   1_545 S
N41    H208    1.046   .     S
N41    C186    1.440   .     S
O42    Zn59    1.935   .     S
O42    Zn58    1.953   .     S
O42    Zn57    1.938   .     S
O42    Zn56    1.961   .     S
O43    Zn57    1.938   .     S
O44    Zn59    1.941   .     S
O45    Zn58    1.930   .     S
O46    Zn56    1.928   .     S
O47    C66     1.399   .     S
O48    Zn56    1.934   .     S
O49    Zn59    1.944   .     S
O50    Zn57    1.934   .     S
O51    Zn58    1.938   .     S
O52    Zn59    1.935   .     S
O53    Zn56    1.934   .     S
O54    Zn57    1.945   .     S
O55    Zn58    1.935   .     S
C60    O111    1.268   .     A
C60    O109    1.264   .     A
C60    C66     1.444   .     S
C61    C81     1.410   .     A
C61    C75     1.392   .     A
C61    H95     1.077   .     S
C62    C74     1.387   .     A
C62    H85     1.084   .     S
C62    C75     1.396   .     A
C63    O112    1.277   .     A
C63    C65     1.457   .     S
C63    O110    1.293   .     A
C64    C73     1.474   .     S
C64    C76     1.402   .     A
C64    C80     1.418   .     A
C65    C125    1.347   .     S
C65    H145    1.088   .     S
C67    C70     1.453   .     S
C67    C245    1.344   .     S
C67    H269    1.088   .     S
C68    C69     1.433   .     S
C68    C421    1.344   1_545 S
C68    N454    1.440   1_545 S
C69    O107    1.274   .     A
C69    O113    1.270   .     A
C70    O114    1.281   .     A
C70    O108    1.270   .     A
C71    C76     1.387   .     A
C71    H98     1.083   .     S
C71    C609    1.391   .     S
C72    O104    1.282   .     A
C72    C75     1.449   .     S
C72    O102    1.272   .     A
C73    O103    1.284   .     A
C73    O105    1.285   .     A
C74    H94     1.084   .     S
C74    C613    1.400   1_554 S
C76    H96     1.083   .     S
C77    H89     1.109   .     S
C77    O106    1.412   .     S
C77    H146    1.113   .     S
C77    H147    1.112   .     S
C78    H97     1.076   .     S
C78    C602    1.391   1_554 S
C78    C610    1.417   1_554 S
C79    C80     1.423   .     A
C79    C609    1.417   .     S
C79    C612    1.426   .     S
C80    C84     1.410   .     A
C81    C610    1.426   1_554 S
C81    C613    1.424   1_554 S
C82    C83     1.390   .     A
C82    C612    1.424   .     S
C82    C605    1.400   .     S
C83    C84     1.382   .     A
C83    H93     1.084   .     S
C84    H99     1.080   .     S
H90    N454    1.046   1_545 S
H91    N100    1.046   .     S
H92    C421    1.088   1_545 S
N100   H267    1.046   .     S
N100   C245    1.440   .     S
O101   Zn118   1.935   .     S
O101   Zn117   1.953   .     S
O101   Zn116   1.938   .     S
O101   Zn115   1.961   .     S
O102   Zn116   1.938   .     S
O103   Zn118   1.941   .     S
O104   Zn117   1.930   .     S
O105   Zn115   1.928   .     S
O106   C125    1.399   .     S
O107   Zn115   1.934   .     S
O108   Zn118   1.944   .     S
O109   Zn116   1.934   .     S
O110   Zn117   1.938   .     S
O111   Zn118   1.935   .     S
O112   Zn115   1.934   .     S
O113   Zn116   1.945   .     S
O114   Zn117   1.935   .     S
C119   O170    1.268   .     A
C119   O168    1.264   .     A
C119   C125    1.444   .     S
C120   C140    1.410   .     A
C120   C134    1.392   .     A
C120   H154    1.077   .     S
C121   C133    1.387   .     A
C121   H144    1.084   .     S
C121   C134    1.396   .     A
C122   O171    1.277   .     A
C122   C124    1.457   .     S
C122   O169    1.293   .     A
C123   C132    1.474   .     S
C123   C135    1.402   .     A
C123   C139    1.418   .     A
C124   C7      1.347   1_655 S
C124   H27     1.088   1_655 S
C126   C129    1.453   .     S
C126   C304    1.344   .     S
C126   H328    1.088   .     S
C127   C128    1.433   .     S
C127   C480    1.344   1_545 S
C127   N513    1.440   1_545 S
C128   O166    1.274   .     A
C128   O172    1.270   .     A
C129   O173    1.281   .     A
C129   O167    1.270   .     A
C130   C135    1.387   .     A
C130   H157    1.083   .     S
C130   C668    1.391   .     S
C131   O163    1.282   .     A
C131   C134    1.449   .     S
C131   O161    1.272   .     A
C132   O162    1.284   .     A
C132   O164    1.285   .     A
C133   H153    1.084   .     S
C133   C672    1.400   1_554 S
C135   H155    1.083   .     S
C136   H148    1.109   .     S
C136   O165    1.412   .     S
C136   H28     1.113   1_655 S
C136   H29     1.112   1_655 S
C137   H156    1.076   .     S
C137   C661    1.391   1_554 S
C137   C669    1.417   1_554 S
C138   C139    1.423   .     A
C138   C668    1.417   .     S
C138   C671    1.426   .     S
C139   C143    1.410   .     A
C140   C669    1.426   1_554 S
C140   C672    1.424   1_554 S
C141   C142    1.390   .     A
C141   C671    1.424   .     S
C141   C664    1.400   .     S
C142   C143    1.382   .     A
C142   H152    1.084   .     S
C143   H158    1.080   .     S
H149   N513    1.046   1_545 S
H150   N159    1.046   .     S
H151   C480    1.088   1_545 S
N159   H326    1.046   .     S
N159   C304    1.440   .     S
O160   Zn177   1.935   .     S
O160   Zn176   1.953   .     S
O160   Zn175   1.938   .     S
O160   Zn174   1.961   .     S
O161   Zn175   1.938   .     S
O162   Zn177   1.941   .     S
O163   Zn176   1.930   .     S
O164   Zn174   1.928   .     S
O165   C7      1.399   1_655 S
O166   Zn174   1.934   .     S
O167   Zn177   1.944   .     S
O168   Zn175   1.934   .     S
O169   Zn176   1.938   .     S
O170   Zn177   1.935   .     S
O171   Zn174   1.934   .     S
O172   Zn175   1.945   .     S
O173   Zn176   1.935   .     S
C178   O229    1.268   .     A
C178   O227    1.264   .     A
C178   C184    1.444   .     S
C179   C199    1.410   .     A
C179   C193    1.392   .     A
C179   H213    1.077   .     S
C180   C192    1.387   .     A
C180   H203    1.084   .     S
C180   C193    1.396   .     A
C181   O230    1.277   .     A
C181   C183    1.457   .     S
C181   O228    1.293   .     A
C182   C191    1.474   .     S
C182   C194    1.402   .     A
C182   C198    1.418   .     A
C183   C243    1.347   .     S
C183   H263    1.088   .     S
C184   C301    1.347   1_455 S
C184   O342    1.399   1_455 S
C185   C188    1.453   .     S
C185   C363    1.344   .     S
C185   H387    1.088   .     S
C186   C187    1.433   .     S
C187   O225    1.274   .     A
C187   O231    1.270   .     A
C188   O232    1.281   .     A
C188   O226    1.270   .     A
C189   C194    1.387   .     A
C189   H216    1.083   .     S
C189   C727    1.391   .     S
C190   O222    1.282   .     A
C190   C193    1.449   .     S
C190   O220    1.272   .     A
C191   O221    1.284   .     A
C191   O223    1.285   .     A
C192   H212    1.084   .     S
C192   C731    1.400   1_554 S
C194   H214    1.083   .     S
C195   H207    1.109   .     S
C195   O224    1.412   .     S
C195   H264    1.113   .     S
C195   H265    1.112   .     S
C196   H215    1.076   .     S
C196   C720    1.391   1_554 S
C196   C728    1.417   1_554 S
C197   C198    1.423   .     A
C197   C727    1.417   .     S
C197   C730    1.426   .     S
C198   C202    1.410   .     A
C199   C728    1.426   1_554 S
C199   C731    1.424   1_554 S
C200   C201    1.390   .     A
C200   C730    1.424   .     S
C200   C723    1.400   .     S
C201   C202    1.382   .     A
C201   H211    1.084   .     S
C202   H217    1.080   .     S
H204   C301    1.088   1_455 S
H205   C313    1.113   1_455 S
H206   C313    1.112   1_455 S
H209   N218    1.046   .     S
N218   H385    1.046   .     S
N218   C363    1.440   .     S
O219   Zn236   1.935   .     S
O219   Zn235   1.953   .     S
O219   Zn234   1.938   .     S
O219   Zn233   1.961   .     S
O220   Zn234   1.938   .     S
O221   Zn236   1.941   .     S
O222   Zn235   1.930   .     S
O223   Zn233   1.928   .     S
O224   C243    1.399   .     S
O225   Zn233   1.934   .     S
O226   Zn236   1.944   .     S
O227   Zn234   1.934   .     S
O228   Zn235   1.938   .     S
O229   Zn236   1.935   .     S
O230   Zn233   1.934   .     S
O231   Zn234   1.945   .     S
O232   Zn235   1.935   .     S
C237   O288    1.268   .     A
C237   O286    1.264   .     A
C237   C243    1.444   .     S
C238   C258    1.410   .     A
C238   C252    1.392   .     A
C238   H272    1.077   .     S
C239   C251    1.387   .     A
C239   H262    1.084   .     S
C239   C252    1.396   .     A
C240   O289    1.277   .     A
C240   C242    1.457   .     S
C240   O287    1.293   .     A
C241   C250    1.474   .     S
C241   C253    1.402   .     A
C241   C257    1.418   .     A
C242   C302    1.347   .     S
C242   H322    1.088   .     S
C244   C247    1.453   .     S
C244   C422    1.344   .     S
C244   H446    1.088   .     S
C245   C246    1.433   .     S
C246   O284    1.274   .     A
C246   O290    1.270   .     A
C247   O291    1.281   .     A
C247   O285    1.270   .     A
C248   C253    1.387   .     A
C248   H275    1.083   .     S
C248   C786    1.391   .     S
C249   O281    1.282   .     A
C249   C252    1.449   .     S
C249   O279    1.272   .     A
C250   O280    1.284   .     A
C250   O282    1.285   .     A
C251   H271    1.084   .     S
C251   C790    1.400   1_554 S
C253   H273    1.083   .     S
C254   H266    1.109   .     S
C254   O283    1.412   .     S
C254   H323    1.113   .     S
C254   H324    1.112   .     S
C255   H274    1.076   .     S
C255   C779    1.391   1_554 S
C255   C787    1.417   1_554 S
C256   C257    1.423   .     A
C256   C786    1.417   .     S
C256   C789    1.426   .     S
C257   C261    1.410   .     A
C258   C787    1.426   1_554 S
C258   C790    1.424   1_554 S
C259   C260    1.390   .     A
C259   C789    1.424   .     S
C259   C782    1.400   .     S
C260   C261    1.382   .     A
C260   H270    1.084   .     S
C261   H276    1.080   .     S
H268   N277    1.046   .     S
N277   H444    1.046   .     S
N277   C422    1.440   .     S
O278   Zn295   1.935   .     S
O278   Zn294   1.953   .     S
O278   Zn293   1.938   .     S
O278   Zn292   1.961   .     S
O279   Zn293   1.938   .     S
O280   Zn295   1.941   .     S
O281   Zn294   1.930   .     S
O282   Zn292   1.928   .     S
O283   C302    1.399   .     S
O284   Zn292   1.934   .     S
O285   Zn295   1.944   .     S
O286   Zn293   1.934   .     S
O287   Zn294   1.938   .     S
O288   Zn295   1.935   .     S
O289   Zn292   1.934   .     S
O290   Zn293   1.945   .     S
O291   Zn294   1.935   .     S
C296   O347    1.268   .     A
C296   O345    1.264   .     A
C296   C302    1.444   .     S
C297   C317    1.410   .     A
C297   C311    1.392   .     A
C297   H331    1.077   .     S
C298   C310    1.387   .     A
C298   H321    1.084   .     S
C298   C311    1.396   .     A
C299   O348    1.277   .     A
C299   C301    1.457   .     S
C299   O346    1.293   .     A
C300   C309    1.474   .     S
C300   C312    1.402   .     A
C300   C316    1.418   .     A
C301   C184    1.347   1_655 S
C301   H204    1.088   1_655 S
C303   C306    1.453   .     S
C303   C481    1.344   .     S
C303   H505    1.088   .     S
C304   C305    1.433   .     S
C305   O343    1.274   .     A
C305   O349    1.270   .     A
C306   O350    1.281   .     A
C306   O344    1.270   .     A
C307   C312    1.387   .     A
C307   H334    1.083   .     S
C307   C845    1.391   .     S
C308   O340    1.282   .     A
C308   C311    1.449   .     S
C308   O338    1.272   .     A
C309   O339    1.284   .     A
C309   O341    1.285   .     A
C310   H330    1.084   .     S
C310   C849    1.400   1_554 S
C312   H332    1.083   .     S
C313   H325    1.109   .     S
C313   O342    1.412   .     S
C313   H205    1.113   1_655 S
C313   H206    1.112   1_655 S
C314   H333    1.076   .     S
C314   C838    1.391   1_554 S
C314   C846    1.417   1_554 S
C315   C316    1.423   .     A
C315   C845    1.417   .     S
C315   C848    1.426   .     S
C316   C320    1.410   .     A
C317   C846    1.426   1_554 S
C317   C849    1.424   1_554 S
C318   C319    1.390   .     A
C318   C848    1.424   .     S
C318   C841    1.400   .     S
C319   C320    1.382   .     A
C319   H329    1.084   .     S
C320   H335    1.080   .     S
H327   N336    1.046   .     S
N336   H503    1.046   .     S
N336   C481    1.440   .     S
O337   Zn354   1.935   .     S
O337   Zn353   1.953   .     S
O337   Zn352   1.938   .     S
O337   Zn351   1.961   .     S
O338   Zn352   1.938   .     S
O339   Zn354   1.941   .     S
O340   Zn353   1.930   .     S
O341   Zn351   1.928   .     S
O342   C184    1.399   1_655 S
O343   Zn351   1.934   .     S
O344   Zn354   1.944   .     S
O345   Zn352   1.934   .     S
O346   Zn353   1.938   .     S
O347   Zn354   1.935   .     S
O348   Zn351   1.934   .     S
O349   Zn352   1.945   .     S
O350   Zn353   1.935   .     S
C355   O406    1.268   .     A
C355   O404    1.264   .     A
C355   C361    1.444   .     S
C356   C376    1.410   .     A
C356   C370    1.392   .     A
C356   H390    1.077   .     S
C357   C369    1.387   .     A
C357   H380    1.084   .     S
C357   C370    1.396   .     A
C358   O407    1.277   .     A
C358   C360    1.457   .     S
C358   O405    1.293   .     A
C359   C368    1.474   .     S
C359   C371    1.402   .     A
C359   C375    1.418   .     A
C360   C420    1.347   .     S
C360   H440    1.088   .     S
C361   C478    1.347   1_455 S
C361   O519    1.399   1_455 S
C362   C365    1.453   .     S
C362   C9      1.344   1_565 S
C362   H33     1.088   1_565 S
C363   C364    1.433   .     S
C364   O402    1.274   .     A
C364   O408    1.270   .     A
C365   O409    1.281   .     A
C365   O403    1.270   .     A
C366   C371    1.387   .     A
C366   H393    1.083   .     S
C366   C904    1.391   .     S
C367   O399    1.282   .     A
C367   C370    1.449   .     S
C367   O397    1.272   .     A
C368   O398    1.284   .     A
C368   O400    1.285   .     A
C369   H389    1.084   .     S
C369   C908    1.400   1_554 S
C371   H391    1.083   .     S
C372   H384    1.109   .     S
C372   O401    1.412   .     S
C372   H441    1.113   .     S
C372   H442    1.112   .     S
C373   H392    1.076   .     S
C373   C897    1.391   1_554 S
C373   C905    1.417   1_554 S
C374   C375    1.423   .     A
C374   C904    1.417   .     S
C374   C907    1.426   .     S
C375   C379    1.410   .     A
C376   C905    1.426   1_554 S
C376   C908    1.424   1_554 S
C377   C378    1.390   .     A
C377   C907    1.424   .     S
C377   C900    1.400   .     S
C378   C379    1.382   .     A
C378   H388    1.084   .     S
C379   H394    1.080   .     S
H381   C478    1.088   1_455 S
H382   C490    1.113   1_455 S
H383   C490    1.112   1_455 S
H386   N395    1.046   .     S
N395   H31     1.046   1_565 S
N395   C9      1.440   1_565 S
O396   Zn413   1.935   .     S
O396   Zn412   1.953   .     S
O396   Zn411   1.938   .     S
O396   Zn410   1.961   .     S
O397   Zn411   1.938   .     S
O398   Zn413   1.941   .     S
O399   Zn412   1.930   .     S
O400   Zn410   1.928   .     S
O401   C420    1.399   .     S
O402   Zn410   1.934   .     S
O403   Zn413   1.944   .     S
O404   Zn411   1.934   .     S
O405   Zn412   1.938   .     S
O406   Zn413   1.935   .     S
O407   Zn410   1.934   .     S
O408   Zn411   1.945   .     S
O409   Zn412   1.935   .     S
C414   O465    1.268   .     A
C414   O463    1.264   .     A
C414   C420    1.444   .     S
C415   C435    1.410   .     A
C415   C429    1.392   .     A
C415   H449    1.077   .     S
C416   C428    1.387   .     A
C416   H439    1.084   .     S
C416   C429    1.396   .     A
C417   O466    1.277   .     A
C417   C419    1.457   .     S
C417   O464    1.293   .     A
C418   C427    1.474   .     S
C418   C430    1.402   .     A
C418   C434    1.418   .     A
C419   C479    1.347   .     S
C419   H499    1.088   .     S
C421   C424    1.453   .     S
C421   C68     1.344   1_565 S
C421   H92     1.088   1_565 S
C422   C423    1.433   .     S
C423   O461    1.274   .     A
C423   O467    1.270   .     A
C424   O468    1.281   .     A
C424   O462    1.270   .     A
C425   C430    1.387   .     A
C425   H452    1.083   .     S
C425   C963    1.391   .     S
C426   O458    1.282   .     A
C426   C429    1.449   .     S
C426   O456    1.272   .     A
C427   O457    1.284   .     A
C427   O459    1.285   .     A
C428   H448    1.084   .     S
C428   C967    1.400   1_554 S
C430   H450    1.083   .     S
C431   H443    1.109   .     S
C431   O460    1.412   .     S
C431   H500    1.113   .     S
C431   H501    1.112   .     S
C432   H451    1.076   .     S
C432   C956    1.391   1_554 S
C432   C964    1.417   1_554 S
C433   C434    1.423   .     A
C433   C963    1.417   .     S
C433   C966    1.426   .     S
C434   C438    1.410   .     A
C435   C964    1.426   1_554 S
C435   C967    1.424   1_554 S
C436   C437    1.390   .     A
C436   C966    1.424   .     S
C436   C959    1.400   .     S
C437   C438    1.382   .     A
C437   H447    1.084   .     S
C438   H453    1.080   .     S
H445   N454    1.046   .     S
N454   H90     1.046   1_565 S
N454   C68     1.440   1_565 S
O455   Zn472   1.935   .     S
O455   Zn471   1.953   .     S
O455   Zn470   1.938   .     S
O455   Zn469   1.961   .     S
O456   Zn470   1.938   .     S
O457   Zn472   1.941   .     S
O458   Zn471   1.930   .     S
O459   Zn469   1.928   .     S
O460   C479    1.399   .     S
O461   Zn469   1.934   .     S
O462   Zn472   1.944   .     S
O463   Zn470   1.934   .     S
O464   Zn471   1.938   .     S
O465   Zn472   1.935   .     S
O466   Zn469   1.934   .     S
O467   Zn470   1.945   .     S
O468   Zn471   1.935   .     S
C473   O524    1.268   .     A
C473   O522    1.264   .     A
C473   C479    1.444   .     S
C474   C494    1.410   .     A
C474   C488    1.392   .     A
C474   H508    1.077   .     S
C475   C487    1.387   .     A
C475   H498    1.084   .     S
C475   C488    1.396   .     A
C476   O525    1.277   .     A
C476   C478    1.457   .     S
C476   O523    1.293   .     A
C477   C486    1.474   .     S
C477   C489    1.402   .     A
C477   C493    1.418   .     A
C478   C361    1.347   1_655 S
C478   H381    1.088   1_655 S
C480   C483    1.453   .     S
C480   C127    1.344   1_565 S
C480   H151    1.088   1_565 S
C481   C482    1.433   .     S
C482   O520    1.274   .     A
C482   O526    1.270   .     A
C483   O527    1.281   .     A
C483   O521    1.270   .     A
C484   C489    1.387   .     A
C484   H511    1.083   .     S
C484   C1022   1.391   .     S
C485   O517    1.282   .     A
C485   C488    1.449   .     S
C485   O515    1.272   .     A
C486   O516    1.284   .     A
C486   O518    1.285   .     A
C487   H507    1.084   .     S
C487   C1026   1.400   1_554 S
C489   H509    1.083   .     S
C490   H502    1.109   .     S
C490   O519    1.412   .     S
C490   H382    1.113   1_655 S
C490   H383    1.112   1_655 S
C491   H510    1.076   .     S
C491   C1015   1.391   1_554 S
C491   C1023   1.417   1_554 S
C492   C493    1.423   .     A
C492   C1022   1.417   .     S
C492   C1025   1.426   .     S
C493   C497    1.410   .     A
C494   C1023   1.426   1_554 S
C494   C1026   1.424   1_554 S
C495   C496    1.390   .     A
C495   C1025   1.424   .     S
C495   C1018   1.400   .     S
C496   C497    1.382   .     A
C496   H506    1.084   .     S
C497   H512    1.080   .     S
H504   N513    1.046   .     S
N513   H149    1.046   1_565 S
N513   C127    1.440   1_565 S
O514   Zn531   1.935   .     S
O514   Zn530   1.953   .     S
O514   Zn529   1.938   .     S
O514   Zn528   1.961   .     S
O515   Zn529   1.938   .     S
O516   Zn531   1.941   .     S
O517   Zn530   1.930   .     S
O518   Zn528   1.928   .     S
O519   C361    1.399   1_655 S
O520   Zn528   1.934   .     S
O521   Zn531   1.944   .     S
O522   Zn529   1.934   .     S
O523   Zn530   1.938   .     S
O524   Zn531   1.935   .     S
O525   Zn528   1.934   .     S
O526   Zn529   1.945   .     S
O527   Zn530   1.935   .     S
C532   O583    1.268   .     A
C532   O581    1.264   .     A
C532   C538    1.444   .     S
C533   C553    1.410   .     A
C533   C547    1.392   .     A
C533   H567    1.077   .     S
C534   C546    1.387   .     A
C534   H557    1.084   .     S
C534   C547    1.396   .     A
C535   O584    1.277   .     A
C535   C537    1.457   .     S
C535   O582    1.293   .     A
C536   C545    1.474   .     S
C536   C548    1.402   .     A
C536   C552    1.418   .     A
C537   C597    1.347   .     S
C537   H617    1.088   .     S
C538   C655    1.347   1_455 S
C538   O696    1.399   1_455 S
C539   C542    1.453   .     S
C539   C717    1.344   .     S
C539   H741    1.088   .     S
C540   C541    1.433   .     S
C540   C893    1.344   1_545 S
C540   N926    1.440   1_545 S
C541   O579    1.274   .     A
C541   O585    1.270   .     A
C542   O586    1.281   .     A
C542   O580    1.270   .     A
C543   C548    1.387   .     A
C543   H570    1.083   .     S
C543   C19     1.391   1_556 S
C544   O576    1.282   .     A
C544   C547    1.449   .     S
C544   O574    1.272   .     A
C545   O575    1.284   .     A
C545   O577    1.285   .     A
C546   H566    1.084   .     S
C548   H568    1.083   .     S
C549   H561    1.109   .     S
C549   O578    1.412   .     S
C549   H618    1.113   .     S
C549   H619    1.112   .     S
C550   H569    1.076   .     S
C551   C552    1.423   .     A
C551   C19     1.417   1_556 S
C551   C22     1.426   1_556 S
C552   C556    1.410   .     A
C554   C555    1.390   .     A
C554   C22     1.424   1_556 S
C554   C15     1.400   1_556 S
C555   C556    1.382   .     A
C555   H565    1.084   .     S
C556   H571    1.080   .     S
H558   C655    1.088   1_455 S
H559   C667    1.113   1_455 S
H560   C667    1.112   1_455 S
H562   N926    1.046   1_545 S
H563   N572    1.046   .     S
H564   C893    1.088   1_545 S
N572   H739    1.046   .     S
N572   C717    1.440   .     S
O573   Zn590   1.935   .     S
O573   Zn589   1.953   .     S
O573   Zn588   1.938   .     S
O573   Zn587   1.961   .     S
O574   Zn588   1.938   .     S
O575   Zn590   1.941   .     S
O576   Zn589   1.930   .     S
O577   Zn587   1.928   .     S
O578   C597    1.399   .     S
O579   Zn587   1.934   .     S
O580   Zn590   1.944   .     S
O581   Zn588   1.934   .     S
O582   Zn589   1.938   .     S
O583   Zn590   1.935   .     S
O584   Zn587   1.934   .     S
O585   Zn588   1.945   .     S
O586   Zn589   1.935   .     S
C591   O642    1.268   .     A
C591   O640    1.264   .     A
C591   C597    1.444   .     S
C592   C612    1.410   .     A
C592   C606    1.392   .     A
C592   H626    1.077   .     S
C593   C605    1.387   .     A
C593   H616    1.084   .     S
C593   C606    1.396   .     A
C594   O643    1.277   .     A
C594   C596    1.457   .     S
C594   O641    1.293   .     A
C595   C604    1.474   .     S
C595   C607    1.402   .     A
C595   C611    1.418   .     A
C596   C656    1.347   .     S
C596   H676    1.088   .     S
C598   C601    1.453   .     S
C598   C776    1.344   .     S
C598   H800    1.088   .     S
C599   C600    1.433   .     S
C599   C952    1.344   1_545 S
C599   N985    1.440   1_545 S
C600   O638    1.274   .     A
C600   O644    1.270   .     A
C601   O645    1.281   .     A
C601   O639    1.270   .     A
C602   C607    1.387   .     A
C602   H629    1.083   .     S
C602   C78     1.391   1_556 S
C603   O635    1.282   .     A
C603   C606    1.449   .     S
C603   O633    1.272   .     A
C604   O634    1.284   .     A
C604   O636    1.285   .     A
C605   H625    1.084   .     S
C607   H627    1.083   .     S
C608   H620    1.109   .     S
C608   O637    1.412   .     S
C608   H677    1.113   .     S
C608   H678    1.112   .     S
C609   H628    1.076   .     S
C610   C611    1.423   .     A
C610   C78     1.417   1_556 S
C610   C81     1.426   1_556 S
C611   C615    1.410   .     A
C613   C614    1.390   .     A
C613   C81     1.424   1_556 S
C613   C74     1.400   1_556 S
C614   C615    1.382   .     A
C614   H624    1.084   .     S
C615   H630    1.080   .     S
H621   N985    1.046   1_545 S
H622   N631    1.046   .     S
H623   C952    1.088   1_545 S
N631   H798    1.046   .     S
N631   C776    1.440   .     S
O632   Zn649   1.935   .     S
O632   Zn648   1.953   .     S
O632   Zn647   1.938   .     S
O632   Zn646   1.961   .     S
O633   Zn647   1.938   .     S
O634   Zn649   1.941   .     S
O635   Zn648   1.930   .     S
O636   Zn646   1.928   .     S
O637   C656    1.399   .     S
O638   Zn646   1.934   .     S
O639   Zn649   1.944   .     S
O640   Zn647   1.934   .     S
O641   Zn648   1.938   .     S
O642   Zn649   1.935   .     S
O643   Zn646   1.934   .     S
O644   Zn647   1.945   .     S
O645   Zn648   1.935   .     S
C650   O701    1.268   .     A
C650   O699    1.264   .     A
C650   C656    1.444   .     S
C651   C671    1.410   .     A
C651   C665    1.392   .     A
C651   H685    1.077   .     S
C652   C664    1.387   .     A
C652   H675    1.084   .     S
C652   C665    1.396   .     A
C653   O702    1.277   .     A
C653   C655    1.457   .     S
C653   O700    1.293   .     A
C654   C663    1.474   .     S
C654   C666    1.402   .     A
C654   C670    1.418   .     A
C655   C538    1.347   1_655 S
C655   H558    1.088   1_655 S
C657   C660    1.453   .     S
C657   C835    1.344   .     S
C657   H859    1.088   .     S
C658   C659    1.433   .     S
C658   C1011   1.344   1_545 S
C658   N1044   1.440   1_545 S
C659   O697    1.274   .     A
C659   O703    1.270   .     A
C660   O704    1.281   .     A
C660   O698    1.270   .     A
C661   C666    1.387   .     A
C661   H688    1.083   .     S
C661   C137    1.391   1_556 S
C662   O694    1.282   .     A
C662   C665    1.449   .     S
C662   O692    1.272   .     A
C663   O693    1.284   .     A
C663   O695    1.285   .     A
C664   H684    1.084   .     S
C666   H686    1.083   .     S
C667   H679    1.109   .     S
C667   O696    1.412   .     S
C667   H559    1.113   1_655 S
C667   H560    1.112   1_655 S
C668   H687    1.076   .     S
C669   C670    1.423   .     A
C669   C137    1.417   1_556 S
C669   C140    1.426   1_556 S
C670   C674    1.410   .     A
C672   C673    1.390   .     A
C672   C140    1.424   1_556 S
C672   C133    1.400   1_556 S
C673   C674    1.382   .     A
C673   H683    1.084   .     S
C674   H689    1.080   .     S
H680   N1044   1.046   1_545 S
H681   N690    1.046   .     S
H682   C1011   1.088   1_545 S
N690   H857    1.046   .     S
N690   C835    1.440   .     S
O691   Zn708   1.935   .     S
O691   Zn707   1.953   .     S
O691   Zn706   1.938   .     S
O691   Zn705   1.961   .     S
O692   Zn706   1.938   .     S
O693   Zn708   1.941   .     S
O694   Zn707   1.930   .     S
O695   Zn705   1.928   .     S
O696   C538    1.399   1_655 S
O697   Zn705   1.934   .     S
O698   Zn708   1.944   .     S
O699   Zn706   1.934   .     S
O700   Zn707   1.938   .     S
O701   Zn708   1.935   .     S
O702   Zn705   1.934   .     S
O703   Zn706   1.945   .     S
O704   Zn707   1.935   .     S
C709   O760    1.268   .     A
C709   O758    1.264   .     A
C709   C715    1.444   .     S
C710   C730    1.410   .     A
C710   C724    1.392   .     A
C710   H744    1.077   .     S
C711   C723    1.387   .     A
C711   H734    1.084   .     S
C711   C724    1.396   .     A
C712   O761    1.277   .     A
C712   C714    1.457   .     S
C712   O759    1.293   .     A
C713   C722    1.474   .     S
C713   C725    1.402   .     A
C713   C729    1.418   .     A
C714   C774    1.347   .     S
C714   H794    1.088   .     S
C715   C832    1.347   1_455 S
C715   O873    1.399   1_455 S
C716   C719    1.453   .     S
C716   C894    1.344   .     S
C716   H918    1.088   .     S
C717   C718    1.433   .     S
C718   O756    1.274   .     A
C718   O762    1.270   .     A
C719   O763    1.281   .     A
C719   O757    1.270   .     A
C720   C725    1.387   .     A
C720   H747    1.083   .     S
C720   C196    1.391   1_556 S
C721   O753    1.282   .     A
C721   C724    1.449   .     S
C721   O751    1.272   .     A
C722   O752    1.284   .     A
C722   O754    1.285   .     A
C723   H743    1.084   .     S
C725   H745    1.083   .     S
C726   H738    1.109   .     S
C726   O755    1.412   .     S
C726   H795    1.113   .     S
C726   H796    1.112   .     S
C727   H746    1.076   .     S
C728   C729    1.423   .     A
C728   C196    1.417   1_556 S
C728   C199    1.426   1_556 S
C729   C733    1.410   .     A
C731   C732    1.390   .     A
C731   C199    1.424   1_556 S
C731   C192    1.400   1_556 S
C732   C733    1.382   .     A
C732   H742    1.084   .     S
C733   H748    1.080   .     S
H735   C832    1.088   1_455 S
H736   C844    1.113   1_455 S
H737   C844    1.112   1_455 S
H740   N749    1.046   .     S
N749   H916    1.046   .     S
N749   C894    1.440   .     S
O750   Zn767   1.935   .     S
O750   Zn766   1.953   .     S
O750   Zn765   1.938   .     S
O750   Zn764   1.961   .     S
O751   Zn765   1.938   .     S
O752   Zn767   1.941   .     S
O753   Zn766   1.930   .     S
O754   Zn764   1.928   .     S
O755   C774    1.399   .     S
O756   Zn764   1.934   .     S
O757   Zn767   1.944   .     S
O758   Zn765   1.934   .     S
O759   Zn766   1.938   .     S
O760   Zn767   1.935   .     S
O761   Zn764   1.934   .     S
O762   Zn765   1.945   .     S
O763   Zn766   1.935   .     S
C768   O819    1.268   .     A
C768   O817    1.264   .     A
C768   C774    1.444   .     S
C769   C789    1.410   .     A
C769   C783    1.392   .     A
C769   H803    1.077   .     S
C770   C782    1.387   .     A
C770   H793    1.084   .     S
C770   C783    1.396   .     A
C771   O820    1.277   .     A
C771   C773    1.457   .     S
C771   O818    1.293   .     A
C772   C781    1.474   .     S
C772   C784    1.402   .     A
C772   C788    1.418   .     A
C773   C833    1.347   .     S
C773   H853    1.088   .     S
C775   C778    1.453   .     S
C775   C953    1.344   .     S
C775   H977    1.088   .     S
C776   C777    1.433   .     S
C777   O815    1.274   .     A
C777   O821    1.270   .     A
C778   O822    1.281   .     A
C778   O816    1.270   .     A
C779   C784    1.387   .     A
C779   H806    1.083   .     S
C779   C255    1.391   1_556 S
C780   O812    1.282   .     A
C780   C783    1.449   .     S
C780   O810    1.272   .     A
C781   O811    1.284   .     A
C781   O813    1.285   .     A
C782   H802    1.084   .     S
C784   H804    1.083   .     S
C785   H797    1.109   .     S
C785   O814    1.412   .     S
C785   H854    1.113   .     S
C785   H855    1.112   .     S
C786   H805    1.076   .     S
C787   C788    1.423   .     A
C787   C255    1.417   1_556 S
C787   C258    1.426   1_556 S
C788   C792    1.410   .     A
C790   C791    1.390   .     A
C790   C258    1.424   1_556 S
C790   C251    1.400   1_556 S
C791   C792    1.382   .     A
C791   H801    1.084   .     S
C792   H807    1.080   .     S
H799   N808    1.046   .     S
N808   H975    1.046   .     S
N808   C953    1.440   .     S
O809   Zn826   1.935   .     S
O809   Zn825   1.953   .     S
O809   Zn824   1.938   .     S
O809   Zn823   1.961   .     S
O810   Zn824   1.938   .     S
O811   Zn826   1.941   .     S
O812   Zn825   1.930   .     S
O813   Zn823   1.928   .     S
O814   C833    1.399   .     S
O815   Zn823   1.934   .     S
O816   Zn826   1.944   .     S
O817   Zn824   1.934   .     S
O818   Zn825   1.938   .     S
O819   Zn826   1.935   .     S
O820   Zn823   1.934   .     S
O821   Zn824   1.945   .     S
O822   Zn825   1.935   .     S
C827   O878    1.268   .     A
C827   O876    1.264   .     A
C827   C833    1.444   .     S
C828   C848    1.410   .     A
C828   C842    1.392   .     A
C828   H862    1.077   .     S
C829   C841    1.387   .     A
C829   H852    1.084   .     S
C829   C842    1.396   .     A
C830   O879    1.277   .     A
C830   C832    1.457   .     S
C830   O877    1.293   .     A
C831   C840    1.474   .     S
C831   C843    1.402   .     A
C831   C847    1.418   .     A
C832   C715    1.347   1_655 S
C832   H735    1.088   1_655 S
C834   C837    1.453   .     S
C834   C1012   1.344   .     S
C834   H1036   1.088   .     S
C835   C836    1.433   .     S
C836   O874    1.274   .     A
C836   O880    1.270   .     A
C837   O881    1.281   .     A
C837   O875    1.270   .     A
C838   C843    1.387   .     A
C838   H865    1.083   .     S
C838   C314    1.391   1_556 S
C839   O871    1.282   .     A
C839   C842    1.449   .     S
C839   O869    1.272   .     A
C840   O870    1.284   .     A
C840   O872    1.285   .     A
C841   H861    1.084   .     S
C843   H863    1.083   .     S
C844   H856    1.109   .     S
C844   O873    1.412   .     S
C844   H736    1.113   1_655 S
C844   H737    1.112   1_655 S
C845   H864    1.076   .     S
C846   C847    1.423   .     A
C846   C314    1.417   1_556 S
C846   C317    1.426   1_556 S
C847   C851    1.410   .     A
C849   C850    1.390   .     A
C849   C317    1.424   1_556 S
C849   C310    1.400   1_556 S
C850   C851    1.382   .     A
C850   H860    1.084   .     S
C851   H866    1.080   .     S
H858   N867    1.046   .     S
N867   H1034   1.046   .     S
N867   C1012   1.440   .     S
O868   Zn885   1.935   .     S
O868   Zn884   1.953   .     S
O868   Zn883   1.938   .     S
O868   Zn882   1.961   .     S
O869   Zn883   1.938   .     S
O870   Zn885   1.941   .     S
O871   Zn884   1.930   .     S
O872   Zn882   1.928   .     S
O873   C715    1.399   1_655 S
O874   Zn882   1.934   .     S
O875   Zn885   1.944   .     S
O876   Zn883   1.934   .     S
O877   Zn884   1.938   .     S
O878   Zn885   1.935   .     S
O879   Zn882   1.934   .     S
O880   Zn883   1.945   .     S
O881   Zn884   1.935   .     S
C886   O937    1.268   .     A
C886   O935    1.264   .     A
C886   C892    1.444   .     S
C887   C907    1.410   .     A
C887   C901    1.392   .     A
C887   H921    1.077   .     S
C888   C900    1.387   .     A
C888   H911    1.084   .     S
C888   C901    1.396   .     A
C889   O938    1.277   .     A
C889   C891    1.457   .     S
C889   O936    1.293   .     A
C890   C899    1.474   .     S
C890   C902    1.402   .     A
C890   C906    1.418   .     A
C891   C951    1.347   .     S
C891   H971    1.088   .     S
C892   C1009   1.347   1_455 S
C892   O1050   1.399   1_455 S
C893   C896    1.453   .     S
C893   C540    1.344   1_565 S
C893   H564    1.088   1_565 S
C894   C895    1.433   .     S
C895   O933    1.274   .     A
C895   O939    1.270   .     A
C896   O940    1.281   .     A
C896   O934    1.270   .     A
C897   C902    1.387   .     A
C897   H924    1.083   .     S
C897   C373    1.391   1_556 S
C898   O930    1.282   .     A
C898   C901    1.449   .     S
C898   O928    1.272   .     A
C899   O929    1.284   .     A
C899   O931    1.285   .     A
C900   H920    1.084   .     S
C902   H922    1.083   .     S
C903   H915    1.109   .     S
C903   O932    1.412   .     S
C903   H972    1.113   .     S
C903   H973    1.112   .     S
C904   H923    1.076   .     S
C905   C906    1.423   .     A
C905   C373    1.417   1_556 S
C905   C376    1.426   1_556 S
C906   C910    1.410   .     A
C908   C909    1.390   .     A
C908   C376    1.424   1_556 S
C908   C369    1.400   1_556 S
C909   C910    1.382   .     A
C909   H919    1.084   .     S
C910   H925    1.080   .     S
H912   C1009   1.088   1_455 S
H913   C1021   1.113   1_455 S
H914   C1021   1.112   1_455 S
H917   N926    1.046   .     S
N926   H562    1.046   1_565 S
N926   C540    1.440   1_565 S
O927   Zn944   1.935   .     S
O927   Zn943   1.953   .     S
O927   Zn942   1.938   .     S
O927   Zn941   1.961   .     S
O928   Zn942   1.938   .     S
O929   Zn944   1.941   .     S
O930   Zn943   1.930   .     S
O931   Zn941   1.928   .     S
O932   C951    1.399   .     S
O933   Zn941   1.934   .     S
O934   Zn944   1.944   .     S
O935   Zn942   1.934   .     S
O936   Zn943   1.938   .     S
O937   Zn944   1.935   .     S
O938   Zn941   1.934   .     S
O939   Zn942   1.945   .     S
O940   Zn943   1.935   .     S
C945   O996    1.268   .     A
C945   O994    1.264   .     A
C945   C951    1.444   .     S
C946   C966    1.410   .     A
C946   C960    1.392   .     A
C946   H980    1.077   .     S
C947   C959    1.387   .     A
C947   H970    1.084   .     S
C947   C960    1.396   .     A
C948   O997    1.277   .     A
C948   C950    1.457   .     S
C948   O995    1.293   .     A
C949   C958    1.474   .     S
C949   C961    1.402   .     A
C949   C965    1.418   .     A
C950   C1010   1.347   .     S
C950   H1030   1.088   .     S
C952   C955    1.453   .     S
C952   C599    1.344   1_565 S
C952   H623    1.088   1_565 S
C953   C954    1.433   .     S
C954   O992    1.274   .     A
C954   O998    1.270   .     A
C955   O999    1.281   .     A
C955   O993    1.270   .     A
C956   C961    1.387   .     A
C956   H983    1.083   .     S
C956   C432    1.391   1_556 S
C957   O989    1.282   .     A
C957   C960    1.449   .     S
C957   O987    1.272   .     A
C958   O988    1.284   .     A
C958   O990    1.285   .     A
C959   H979    1.084   .     S
C961   H981    1.083   .     S
C962   H974    1.109   .     S
C962   O991    1.412   .     S
C962   H1031   1.113   .     S
C962   H1032   1.112   .     S
C963   H982    1.076   .     S
C964   C965    1.423   .     A
C964   C432    1.417   1_556 S
C964   C435    1.426   1_556 S
C965   C969    1.410   .     A
C967   C968    1.390   .     A
C967   C435    1.424   1_556 S
C967   C428    1.400   1_556 S
C968   C969    1.382   .     A
C968   H978    1.084   .     S
C969   H984    1.080   .     S
H976   N985    1.046   .     S
N985   H621    1.046   1_565 S
N985   C599    1.440   1_565 S
O986   Zn1003  1.935   .     S
O986   Zn1002  1.953   .     S
O986   Zn1001  1.938   .     S
O986   Zn1000  1.961   .     S
O987   Zn1001  1.938   .     S
O988   Zn1003  1.941   .     S
O989   Zn1002  1.930   .     S
O990   Zn1000  1.928   .     S
O991   C1010   1.399   .     S
O992   Zn1000  1.934   .     S
O993   Zn1003  1.944   .     S
O994   Zn1001  1.934   .     S
O995   Zn1002  1.938   .     S
O996   Zn1003  1.935   .     S
O997   Zn1000  1.934   .     S
O998   Zn1001  1.945   .     S
O999   Zn1002  1.935   .     S
C1004  O1055   1.268   .     A
C1004  O1053   1.264   .     A
C1004  C1010   1.444   .     S
C1005  C1025   1.410   .     A
C1005  C1019   1.392   .     A
C1005  H1039   1.077   .     S
C1006  C1018   1.387   .     A
C1006  H1029   1.084   .     S
C1006  C1019   1.396   .     A
C1007  O1056   1.277   .     A
C1007  C1009   1.457   .     S
C1007  O1054   1.293   .     A
C1008  C1017   1.474   .     S
C1008  C1020   1.402   .     A
C1008  C1024   1.418   .     A
C1009  C892    1.347   1_655 S
C1009  H912    1.088   1_655 S
C1011  C1014   1.453   .     S
C1011  C658    1.344   1_565 S
C1011  H682    1.088   1_565 S
C1012  C1013   1.433   .     S
C1013  O1051   1.274   .     A
C1013  O1057   1.270   .     A
C1014  O1058   1.281   .     A
C1014  O1052   1.270   .     A
C1015  C1020   1.387   .     A
C1015  H1042   1.083   .     S
C1015  C491    1.391   1_556 S
C1016  O1048   1.282   .     A
C1016  C1019   1.449   .     S
C1016  O1046   1.272   .     A
C1017  O1047   1.284   .     A
C1017  O1049   1.285   .     A
C1018  H1038   1.084   .     S
C1020  H1040   1.083   .     S
C1021  H1033   1.109   .     S
C1021  O1050   1.412   .     S
C1021  H913    1.113   1_655 S
C1021  H914    1.112   1_655 S
C1022  H1041   1.076   .     S
C1023  C1024   1.423   .     A
C1023  C491    1.417   1_556 S
C1023  C494    1.426   1_556 S
C1024  C1028   1.410   .     A
C1026  C1027   1.390   .     A
C1026  C494    1.424   1_556 S
C1026  C487    1.400   1_556 S
C1027  C1028   1.382   .     A
C1027  H1037   1.084   .     S
C1028  H1043   1.080   .     S
H1035  N1044   1.046   .     S
N1044  H680    1.046   1_565 S
N1044  C658    1.440   1_565 S
O1045  Zn1062  1.935   .     S
O1045  Zn1061  1.953   .     S
O1045  Zn1060  1.938   .     S
O1045  Zn1059  1.961   .     S
O1046  Zn1060  1.938   .     S
O1047  Zn1062  1.941   .     S
O1048  Zn1061  1.930   .     S
O1049  Zn1059  1.928   .     S
O1050  C892    1.399   1_655 S
O1051  Zn1059  1.934   .     S
O1052  Zn1062  1.944   .     S
O1053  Zn1060  1.934   .     S
O1054  Zn1061  1.938   .     S
O1055  Zn1062  1.935   .     S
O1056  Zn1059  1.934   .     S
O1057  Zn1060  1.945   .     S
O1058  Zn1061  1.935   .     S
