data_str_m1_o1_o2_pcu_sym.12
_audit_creation_date              2020-01-03
_audit_creation_method            'Materials Studio'
_symmetry_space_group_name_H-M    'P1'
_symmetry_Int_Tables_number       1
_symmetry_cell_setting            triclinic
loop_
_symmetry_equiv_pos_as_xyz
  x,y,z
_cell_length_a                    36.6979
_cell_length_b                    36.6979
_cell_length_c                    34.4921
_cell_angle_alpha                 90.0000
_cell_angle_beta                  90.0000
_cell_angle_gamma                 90.0000
loop_
_atom_site_label
_atom_site_type_symbol
_atom_site_fract_x
_atom_site_fract_y
_atom_site_fract_z
_atom_site_U_iso_or_equiv
_atom_site_adp_type
_atom_site_occupancy
C1     C     0.22275   0.01955   0.04202   0.00000  Uiso   1.00
C2     C     0.02725   0.26955   0.45798   0.00000  Uiso   1.00
C3     C     0.34814   0.40186   0.75000   0.00000  Uiso   1.00
C4     C     0.40186   0.15186   0.25000   0.00000  Uiso   1.00
C5     C     0.09814   0.34814   0.75000   0.00000  Uiso   1.00
C6     C     0.34814   0.40186   0.25000   0.00000  Uiso   1.00
C7     C     0.15186   0.09814   0.75000   0.00000  Uiso   1.00
C8     C     0.09814   0.15186   0.75000   0.00000  Uiso   1.00
C9     C     0.40186   0.34814   0.25000   0.00000  Uiso   1.00
C10    C     0.15186   0.40186   0.75000   0.00000  Uiso   1.00
C11    C     0.34814   0.09814   0.25000   0.00000  Uiso   1.00
C12    C     0.40186   0.34814   0.75000   0.00000  Uiso   1.00
C13    C     0.23045   0.47275   0.54202   0.00000  Uiso   1.00
C14    C     0.09814   0.15186   0.25000   0.00000  Uiso   1.00
C15    C     0.34814   0.09814   0.75000   0.00000  Uiso   1.00
C16    C     0.15186   0.40186   0.25000   0.00000  Uiso   1.00
C17    C     0.25000   0.00000   0.10255   0.00000  Uiso   1.00
C18    C     0.25000   0.00000   0.89745   0.00000  Uiso   1.00
C19    C     0.00000   0.25000   0.10255   0.00000  Uiso   1.00
C20    C     0.00000   0.25000   0.89745   0.00000  Uiso   1.00
C21    C     0.00000   0.25000   0.60255   0.00000  Uiso   1.00
C22    C     0.00000   0.25000   0.39745   0.00000  Uiso   1.00
C23    C     0.25000   0.00000   0.60255   0.00000  Uiso   1.00
C24    C     0.23045   0.02725   0.45798   0.00000  Uiso   1.00
C25    C     0.25000   0.00000   0.39745   0.00000  Uiso   1.00
C26    C     0.02725   0.23045   0.54202   0.00000  Uiso   1.00
C27    C     0.47275   0.23045   0.45798   0.00000  Uiso   1.00
C28    C     0.26955   0.02725   0.54202   0.00000  Uiso   1.00
C29    C     0.26955   0.47275   0.45798   0.00000  Uiso   1.00
C30    C     0.22265   0.01843   0.08235   0.00000  Uiso   1.00
C31    C     0.27736   0.01843   0.91765   0.00000  Uiso   1.00
C32    C     0.48158   0.22264   0.08235   0.00000  Uiso   1.00
C33    C     0.27725   0.01955   0.95798   0.00000  Uiso   1.00
C34    C     0.48157   0.27736   0.91765   0.00000  Uiso   1.00
C35    C     0.27736   0.48157   0.08235   0.00000  Uiso   1.00
C36    C     0.22264   0.48158   0.91765   0.00000  Uiso   1.00
C37    C     0.01843   0.27736   0.08235   0.00000  Uiso   1.00
C38    C     0.01843   0.22265   0.91765   0.00000  Uiso   1.00
C39    C     0.47265   0.26843   0.58235   0.00000  Uiso   1.00
C40    C     0.02736   0.26843   0.41765   0.00000  Uiso   1.00
C41    C     0.23158   0.47264   0.58235   0.00000  Uiso   1.00
C42    C     0.23157   0.02736   0.41765   0.00000  Uiso   1.00
C43    C     0.02736   0.23157   0.58235   0.00000  Uiso   1.00
C44    C     0.48045   0.22275   0.04202   0.00000  Uiso   1.00
C45    C     0.47264   0.23158   0.41765   0.00000  Uiso   1.00
C46    C     0.26843   0.02736   0.58235   0.00000  Uiso   1.00
C47    C     0.26843   0.47265   0.41765   0.00000  Uiso   1.00
C48    C     0.25000   0.00000   0.02136   0.00000  Uiso   1.00
C49    C     0.25000   0.00000   0.97864   0.00000  Uiso   1.00
C50    C     0.00000   0.25000   0.02136   0.00000  Uiso   1.00
C51    C     0.00000   0.25000   0.97864   0.00000  Uiso   1.00
C52    C     0.00000   0.25000   0.52136   0.00000  Uiso   1.00
C53    C     0.00000   0.25000   0.47864   0.00000  Uiso   1.00
C54    C     0.25000   0.00000   0.52136   0.00000  Uiso   1.00
C55    C     0.48045   0.27725   0.95798   0.00000  Uiso   1.00
C56    C     0.25000   0.00000   0.47864   0.00000  Uiso   1.00
C57    C     0.25000   0.00000   0.35516   0.00000  Uiso   1.00
C58    C     0.25000   0.00000   0.64484   0.00000  Uiso   1.00
C59    C     0.00000   0.25000   0.35516   0.00000  Uiso   1.00
C60    C     0.00000   0.25000   0.64484   0.00000  Uiso   1.00
C61    C     0.00000   0.25000   0.85516   0.00000  Uiso   1.00
C62    C     0.00000   0.25000   0.14484   0.00000  Uiso   1.00
C63    C     0.25000   0.00000   0.85516   0.00000  Uiso   1.00
C64    C     0.25000   0.00000   0.14484   0.00000  Uiso   1.00
C65    C     0.17992   0.07008   0.25000   0.00000  Uiso   1.00
C66    C     0.27725   0.48045   0.04202   0.00000  Uiso   1.00
C67    C     0.32008   0.42992   0.75000   0.00000  Uiso   1.00
C68    C     0.42992   0.17992   0.25000   0.00000  Uiso   1.00
C69    C     0.07008   0.32008   0.75000   0.00000  Uiso   1.00
C70    C     0.32008   0.42992   0.25000   0.00000  Uiso   1.00
C71    C     0.17992   0.07008   0.75000   0.00000  Uiso   1.00
C72    C     0.07008   0.32008   0.25000   0.00000  Uiso   1.00
C73    C     0.42992   0.17992   0.75000   0.00000  Uiso   1.00
C74    C     0.17992   0.42992   0.75000   0.00000  Uiso   1.00
C75    C     0.32008   0.07008   0.25000   0.00000  Uiso   1.00
C76    C     0.42992   0.32008   0.75000   0.00000  Uiso   1.00
C77    C     0.22275   0.48045   0.95798   0.00000  Uiso   1.00
C78    C     0.07008   0.17992   0.25000   0.00000  Uiso   1.00
C79    C     0.32008   0.07008   0.75000   0.00000  Uiso   1.00
C80    C     0.17992   0.42992   0.25000   0.00000  Uiso   1.00
C81    C     0.07008   0.17992   0.75000   0.00000  Uiso   1.00
C82    C     0.42992   0.32008   0.25000   0.00000  Uiso   1.00
C83    C     0.12184   0.40488   0.22508   0.00000  Uiso   1.00
C84    C     0.37816   0.09512   0.77492   0.00000  Uiso   1.00
C85    C     0.09512   0.12184   0.22508   0.00000  Uiso   1.00
C86    C     0.40488   0.37816   0.77492   0.00000  Uiso   1.00
C87    C     0.37816   0.09512   0.22508   0.00000  Uiso   1.00
C88    C     0.01955   0.27725   0.04202   0.00000  Uiso   1.00
C89    C     0.12184   0.40488   0.77492   0.00000  Uiso   1.00
C90    C     0.40488   0.37816   0.22508   0.00000  Uiso   1.00
C91    C     0.09512   0.12184   0.77492   0.00000  Uiso   1.00
C92    C     0.12184   0.09512   0.77492   0.00000  Uiso   1.00
C93    C     0.37816   0.40488   0.22508   0.00000  Uiso   1.00
C94    C     0.09512   0.37816   0.77492   0.00000  Uiso   1.00
C95    C     0.40488   0.12184   0.22508   0.00000  Uiso   1.00
C96    C     0.37816   0.40488   0.77492   0.00000  Uiso   1.00
C97    C     0.12184   0.09512   0.22508   0.00000  Uiso   1.00
C98    C     0.40488   0.12184   0.77492   0.00000  Uiso   1.00
C99    C     0.01955   0.22275   0.95798   0.00000  Uiso   1.00
C100   C     0.09512   0.37816   0.22508   0.00000  Uiso   1.00
C101   C     0.37184   0.15488   0.72508   0.00000  Uiso   1.00
C102   C     0.12816   0.34512   0.27492   0.00000  Uiso   1.00
C103   C     0.34512   0.37184   0.72508   0.00000  Uiso   1.00
C104   C     0.15488   0.12816   0.27492   0.00000  Uiso   1.00
C105   C     0.12816   0.34512   0.72508   0.00000  Uiso   1.00
C106   C     0.37184   0.15488   0.27492   0.00000  Uiso   1.00
C107   C     0.15488   0.12816   0.72508   0.00000  Uiso   1.00
C108   C     0.34512   0.37184   0.27492   0.00000  Uiso   1.00
C109   C     0.37184   0.34512   0.27492   0.00000  Uiso   1.00
C110   C     0.47275   0.26955   0.54202   0.00000  Uiso   1.00
C111   C     0.12816   0.15488   0.72508   0.00000  Uiso   1.00
C112   C     0.34512   0.12816   0.27492   0.00000  Uiso   1.00
C113   C     0.15488   0.37184   0.72508   0.00000  Uiso   1.00
C114   C     0.12816   0.15488   0.27492   0.00000  Uiso   1.00
C115   C     0.37184   0.34512   0.72508   0.00000  Uiso   1.00
C116   C     0.15488   0.37184   0.27492   0.00000  Uiso   1.00
C117   C     0.34512   0.12816   0.72508   0.00000  Uiso   1.00
C118   C     0.09814   0.34814   0.25000   0.00000  Uiso   1.00
C119   C     0.40186   0.15186   0.75000   0.00000  Uiso   1.00
C120   C     0.15186   0.09814   0.25000   0.00000  Uiso   1.00
H121   H     0.11895   0.42784   0.20559   0.00000  Uiso   1.00
H122   H     0.38104   0.42784   0.20558   0.00000  Uiso   1.00
H123   H     0.07216   0.38105   0.79442   0.00000  Uiso   1.00
H124   H     0.42784   0.11896   0.20558   0.00000  Uiso   1.00
H125   H     0.38105   0.42784   0.79442   0.00000  Uiso   1.00
H126   H     0.11896   0.07216   0.20558   0.00000  Uiso   1.00
H127   H     0.42784   0.11895   0.79442   0.00000  Uiso   1.00
H128   H     0.07216   0.38104   0.20558   0.00000  Uiso   1.00
H129   H     0.36895   0.17784   0.70559   0.00000  Uiso   1.00
H130   H     0.13104   0.32216   0.29442   0.00000  Uiso   1.00
H131   H     0.32216   0.36895   0.70559   0.00000  Uiso   1.00
H132   H     0.38104   0.07216   0.79442   0.00000  Uiso   1.00
H133   H     0.17784   0.13104   0.29442   0.00000  Uiso   1.00
H134   H     0.13105   0.32216   0.70559   0.00000  Uiso   1.00
H135   H     0.36896   0.17784   0.29442   0.00000  Uiso   1.00
H136   H     0.17784   0.13105   0.70559   0.00000  Uiso   1.00
H137   H     0.32216   0.36896   0.29442   0.00000  Uiso   1.00
H138   H     0.36895   0.32216   0.29442   0.00000  Uiso   1.00
H139   H     0.13104   0.17784   0.70558   0.00000  Uiso   1.00
H140   H     0.32216   0.13105   0.29442   0.00000  Uiso   1.00
H141   H     0.17784   0.36896   0.70558   0.00000  Uiso   1.00
H142   H     0.13105   0.17784   0.29442   0.00000  Uiso   1.00
H143   H     0.07216   0.11895   0.20559   0.00000  Uiso   1.00
H144   H     0.36896   0.32216   0.70558   0.00000  Uiso   1.00
H145   H     0.17784   0.36895   0.29442   0.00000  Uiso   1.00
H146   H     0.32216   0.13104   0.70558   0.00000  Uiso   1.00
H147   H     0.20162   0.03303   0.09803   0.00000  Uiso   1.00
H148   H     0.29838   0.03303   0.90197   0.00000  Uiso   1.00
H149   H     0.46697   0.20162   0.09803   0.00000  Uiso   1.00
H150   H     0.46697   0.29838   0.90197   0.00000  Uiso   1.00
H151   H     0.29838   0.46697   0.09803   0.00000  Uiso   1.00
H152   H     0.20162   0.46697   0.90197   0.00000  Uiso   1.00
H153   H     0.03303   0.29838   0.09803   0.00000  Uiso   1.00
H154   H     0.42784   0.38104   0.79442   0.00000  Uiso   1.00
H155   H     0.03303   0.20162   0.90197   0.00000  Uiso   1.00
H156   H     0.45162   0.28303   0.59803   0.00000  Uiso   1.00
H157   H     0.04838   0.28303   0.40197   0.00000  Uiso   1.00
H158   H     0.21697   0.45162   0.59803   0.00000  Uiso   1.00
H159   H     0.21697   0.04838   0.40197   0.00000  Uiso   1.00
H160   H     0.04838   0.21697   0.59803   0.00000  Uiso   1.00
H161   H     0.45162   0.21697   0.40197   0.00000  Uiso   1.00
H162   H     0.28303   0.04838   0.59803   0.00000  Uiso   1.00
H163   H     0.28303   0.45162   0.40197   0.00000  Uiso   1.00
H164   H     0.20110   0.04277   0.99640   0.00000  Uiso   1.00
H165   H     0.38105   0.07216   0.20559   0.00000  Uiso   1.00
H166   H     0.29890   0.04277   0.00360   0.00000  Uiso   1.00
H167   H     0.45723   0.20110   0.99640   0.00000  Uiso   1.00
H168   H     0.45723   0.29890   0.00360   0.00000  Uiso   1.00
H169   H     0.29890   0.45723   0.99640   0.00000  Uiso   1.00
H170   H     0.20110   0.45723   0.00360   0.00000  Uiso   1.00
H171   H     0.04277   0.29890   0.99640   0.00000  Uiso   1.00
H172   H     0.04277   0.20110   0.00360   0.00000  Uiso   1.00
H173   H     0.45110   0.29277   0.49640   0.00000  Uiso   1.00
H174   H     0.04890   0.29277   0.50360   0.00000  Uiso   1.00
H175   H     0.20723   0.45110   0.49640   0.00000  Uiso   1.00
H176   H     0.11896   0.42784   0.79442   0.00000  Uiso   1.00
H177   H     0.20723   0.04890   0.50360   0.00000  Uiso   1.00
H178   H     0.04890   0.20723   0.49640   0.00000  Uiso   1.00
H179   H     0.45110   0.20723   0.50360   0.00000  Uiso   1.00
H180   H     0.29277   0.04890   0.49640   0.00000  Uiso   1.00
H181   H     0.29277   0.45110   0.50360   0.00000  Uiso   1.00
H182   H     0.42784   0.38105   0.20559   0.00000  Uiso   1.00
H183   H     0.07216   0.11896   0.79442   0.00000  Uiso   1.00
H184   H     0.11895   0.07216   0.79442   0.00000  Uiso   1.00
O185   O     0.25000   0.00000   0.25000   0.00000  Uiso   1.00
O186   O     0.25000   0.46964   0.66317   0.00000  Uiso   1.00
O187   O     0.46964   0.25000   0.33683   0.00000  Uiso   1.00
O188   O     0.03036   0.25000   0.66317   0.00000  Uiso   1.00
O189   O     0.00000   0.21964   0.83683   0.00000  Uiso   1.00
O190   O     0.00000   0.28036   0.16317   0.00000  Uiso   1.00
O191   O     0.28036   0.00000   0.83683   0.00000  Uiso   1.00
O192   O     0.21964   0.00000   0.16317   0.00000  Uiso   1.00
O193   O     0.00000   0.28036   0.83683   0.00000  Uiso   1.00
O194   O     0.00000   0.21964   0.16317   0.00000  Uiso   1.00
O195   O     0.21964   0.00000   0.83683   0.00000  Uiso   1.00
O196   O     0.25000   0.00000   0.75000   0.00000  Uiso   1.00
O197   O     0.28036   0.00000   0.16317   0.00000  Uiso   1.00
O198   O     0.20726   0.07307   0.27282   0.00000  Uiso   1.00
O199   O     0.29275   0.42693   0.72718   0.00000  Uiso   1.00
O200   O     0.42693   0.20726   0.27282   0.00000  Uiso   1.00
O201   O     0.07307   0.29275   0.72718   0.00000  Uiso   1.00
O202   O     0.29275   0.42693   0.27282   0.00000  Uiso   1.00
O203   O     0.20726   0.07307   0.72718   0.00000  Uiso   1.00
O204   O     0.07307   0.29275   0.27282   0.00000  Uiso   1.00
O205   O     0.42693   0.20726   0.72718   0.00000  Uiso   1.00
O206   O     0.20726   0.42693   0.72718   0.00000  Uiso   1.00
O207   O     0.00000   0.25000   0.25000   0.00000  Uiso   1.00
O208   O     0.29275   0.07307   0.27282   0.00000  Uiso   1.00
O209   O     0.42693   0.29275   0.72718   0.00000  Uiso   1.00
O210   O     0.07307   0.20726   0.27282   0.00000  Uiso   1.00
O211   O     0.29275   0.07307   0.72718   0.00000  Uiso   1.00
O212   O     0.20726   0.42693   0.27282   0.00000  Uiso   1.00
O213   O     0.07307   0.20726   0.72718   0.00000  Uiso   1.00
O214   O     0.42693   0.29275   0.27282   0.00000  Uiso   1.00
O215   O     0.45726   0.32307   0.77282   0.00000  Uiso   1.00
O216   O     0.04275   0.17693   0.22718   0.00000  Uiso   1.00
O217   O     0.17693   0.45726   0.77282   0.00000  Uiso   1.00
O218   O     0.00000   0.25000   0.75000   0.00000  Uiso   1.00
O219   O     0.32307   0.04275   0.22718   0.00000  Uiso   1.00
O220   O     0.04275   0.17693   0.77282   0.00000  Uiso   1.00
O221   O     0.45726   0.32307   0.22718   0.00000  Uiso   1.00
O222   O     0.32307   0.04275   0.77282   0.00000  Uiso   1.00
O223   O     0.17693   0.45726   0.22718   0.00000  Uiso   1.00
O224   O     0.45726   0.17693   0.22718   0.00000  Uiso   1.00
O225   O     0.04275   0.32307   0.77282   0.00000  Uiso   1.00
O226   O     0.17693   0.04275   0.22718   0.00000  Uiso   1.00
O227   O     0.32307   0.45726   0.77282   0.00000  Uiso   1.00
O228   O     0.04275   0.32307   0.22718   0.00000  Uiso   1.00
O229   O     0.25000   0.46964   0.33683   0.00000  Uiso   1.00
O230   O     0.45726   0.17693   0.77282   0.00000  Uiso   1.00
O231   O     0.32307   0.45726   0.22718   0.00000  Uiso   1.00
O232   O     0.17693   0.04275   0.77282   0.00000  Uiso   1.00
O233   O     0.19582   0.04000   0.02434   0.00000  Uiso   1.00
O234   O     0.30418   0.03999   0.97566   0.00000  Uiso   1.00
O235   O     0.46001   0.19582   0.02434   0.00000  Uiso   1.00
O236   O     0.46000   0.30418   0.97566   0.00000  Uiso   1.00
O237   O     0.30418   0.46000   0.02434   0.00000  Uiso   1.00
O238   O     0.19582   0.46001   0.97566   0.00000  Uiso   1.00
O239   O     0.03999   0.30418   0.02434   0.00000  Uiso   1.00
O240   O     0.25000   0.03036   0.66317   0.00000  Uiso   1.00
O241   O     0.04000   0.19582   0.97566   0.00000  Uiso   1.00
O242   O     0.44582   0.29000   0.52434   0.00000  Uiso   1.00
O243   O     0.05418   0.28999   0.47566   0.00000  Uiso   1.00
O244   O     0.21001   0.44582   0.52434   0.00000  Uiso   1.00
O245   O     0.21000   0.05418   0.47566   0.00000  Uiso   1.00
O246   O     0.05418   0.21000   0.52434   0.00000  Uiso   1.00
O247   O     0.44582   0.21001   0.47566   0.00000  Uiso   1.00
O248   O     0.28999   0.05418   0.52434   0.00000  Uiso   1.00
O249   O     0.29000   0.44582   0.47566   0.00000  Uiso   1.00
O250   O     0.03036   0.25000   0.33683   0.00000  Uiso   1.00
O251   O     0.46964   0.25000   0.66317   0.00000  Uiso   1.00
O252   O     0.25000   0.03036   0.33683   0.00000  Uiso   1.00
Zn253  Zn    0.20660   0.00000   0.21760   0.00000  Uiso   1.00
Zn254  Zn    0.04340   0.25000   0.28240   0.00000  Uiso   1.00
Zn255  Zn    0.25000   0.45660   0.71760   0.00000  Uiso   1.00
Zn256  Zn    0.25000   0.04340   0.28240   0.00000  Uiso   1.00
Zn257  Zn    0.04340   0.25000   0.71760   0.00000  Uiso   1.00
Zn258  Zn    0.45660   0.25000   0.28240   0.00000  Uiso   1.00
Zn259  Zn    0.25000   0.04340   0.71760   0.00000  Uiso   1.00
Zn260  Zn    0.25000   0.45660   0.28240   0.00000  Uiso   1.00
Zn261  Zn    0.29340   0.00000   0.78240   0.00000  Uiso   1.00
Zn262  Zn    0.00000   0.20660   0.21760   0.00000  Uiso   1.00
Zn263  Zn    0.00000   0.29340   0.78240   0.00000  Uiso   1.00
Zn264  Zn    0.29340   0.00000   0.21760   0.00000  Uiso   1.00
Zn265  Zn    0.20660   0.00000   0.78240   0.00000  Uiso   1.00
Zn266  Zn    0.00000   0.29340   0.21760   0.00000  Uiso   1.00
Zn267  Zn    0.00000   0.20660   0.78240   0.00000  Uiso   1.00
Zn268  Zn    0.45660   0.25000   0.71760   0.00000  Uiso   1.00
C269   C     0.72275   0.01955   0.04202   0.00000  Uiso   1.00
C270   C     0.52725   0.26955   0.45798   0.00000  Uiso   1.00
C271   C     0.84814   0.40186   0.75000   0.00000  Uiso   1.00
C272   C     0.90186   0.15186   0.25000   0.00000  Uiso   1.00
C273   C     0.59814   0.34814   0.75000   0.00000  Uiso   1.00
C274   C     0.84814   0.40186   0.25000   0.00000  Uiso   1.00
C275   C     0.65186   0.09814   0.75000   0.00000  Uiso   1.00
C276   C     0.59814   0.15186   0.75000   0.00000  Uiso   1.00
C277   C     0.90186   0.34814   0.25000   0.00000  Uiso   1.00
C278   C     0.65186   0.40186   0.75000   0.00000  Uiso   1.00
C279   C     0.84814   0.09814   0.25000   0.00000  Uiso   1.00
C280   C     0.90186   0.34814   0.75000   0.00000  Uiso   1.00
C281   C     0.73045   0.47275   0.54202   0.00000  Uiso   1.00
C282   C     0.59814   0.15186   0.25000   0.00000  Uiso   1.00
C283   C     0.84814   0.09814   0.75000   0.00000  Uiso   1.00
C284   C     0.65186   0.40186   0.25000   0.00000  Uiso   1.00
C285   C     0.75000   0.00000   0.10255   0.00000  Uiso   1.00
C286   C     0.75000   0.00000   0.89745   0.00000  Uiso   1.00
C287   C     0.50000   0.25000   0.10255   0.00000  Uiso   1.00
C288   C     0.50000   0.25000   0.89745   0.00000  Uiso   1.00
C289   C     0.50000   0.25000   0.60255   0.00000  Uiso   1.00
C290   C     0.50000   0.25000   0.39745   0.00000  Uiso   1.00
C291   C     0.75000   0.00000   0.60255   0.00000  Uiso   1.00
C292   C     0.73045   0.02725   0.45798   0.00000  Uiso   1.00
C293   C     0.75000   0.00000   0.39745   0.00000  Uiso   1.00
C294   C     0.52725   0.23045   0.54202   0.00000  Uiso   1.00
C295   C     0.97275   0.23045   0.45798   0.00000  Uiso   1.00
C296   C     0.76955   0.02725   0.54202   0.00000  Uiso   1.00
C297   C     0.76955   0.47275   0.45798   0.00000  Uiso   1.00
C298   C     0.72265   0.01843   0.08235   0.00000  Uiso   1.00
C299   C     0.77736   0.01843   0.91765   0.00000  Uiso   1.00
C300   C     0.98158   0.22264   0.08235   0.00000  Uiso   1.00
C301   C     0.77725   0.01955   0.95798   0.00000  Uiso   1.00
C302   C     0.98157   0.27736   0.91765   0.00000  Uiso   1.00
C303   C     0.77736   0.48157   0.08235   0.00000  Uiso   1.00
C304   C     0.72264   0.48158   0.91765   0.00000  Uiso   1.00
C305   C     0.51843   0.27736   0.08235   0.00000  Uiso   1.00
C306   C     0.51843   0.22265   0.91765   0.00000  Uiso   1.00
C307   C     0.97265   0.26843   0.58235   0.00000  Uiso   1.00
C308   C     0.52736   0.26843   0.41765   0.00000  Uiso   1.00
C309   C     0.73158   0.47264   0.58235   0.00000  Uiso   1.00
C310   C     0.73157   0.02736   0.41765   0.00000  Uiso   1.00
C311   C     0.52736   0.23157   0.58235   0.00000  Uiso   1.00
C312   C     0.98045   0.22275   0.04202   0.00000  Uiso   1.00
C313   C     0.97264   0.23158   0.41765   0.00000  Uiso   1.00
C314   C     0.76843   0.02736   0.58235   0.00000  Uiso   1.00
C315   C     0.76843   0.47265   0.41765   0.00000  Uiso   1.00
C316   C     0.75000   0.00000   0.02136   0.00000  Uiso   1.00
C317   C     0.75000   0.00000   0.97864   0.00000  Uiso   1.00
C318   C     0.50000   0.25000   0.02136   0.00000  Uiso   1.00
C319   C     0.50000   0.25000   0.97864   0.00000  Uiso   1.00
C320   C     0.50000   0.25000   0.52136   0.00000  Uiso   1.00
C321   C     0.50000   0.25000   0.47864   0.00000  Uiso   1.00
C322   C     0.75000   0.00000   0.52136   0.00000  Uiso   1.00
C323   C     0.98045   0.27725   0.95798   0.00000  Uiso   1.00
C324   C     0.75000   0.00000   0.47864   0.00000  Uiso   1.00
C325   C     0.75000   0.00000   0.35516   0.00000  Uiso   1.00
C326   C     0.75000   0.00000   0.64484   0.00000  Uiso   1.00
C327   C     0.50000   0.25000   0.35516   0.00000  Uiso   1.00
C328   C     0.50000   0.25000   0.64484   0.00000  Uiso   1.00
C329   C     0.50000   0.25000   0.85516   0.00000  Uiso   1.00
C330   C     0.50000   0.25000   0.14484   0.00000  Uiso   1.00
C331   C     0.75000   0.00000   0.85516   0.00000  Uiso   1.00
C332   C     0.75000   0.00000   0.14484   0.00000  Uiso   1.00
C333   C     0.67992   0.07008   0.25000   0.00000  Uiso   1.00
C334   C     0.77725   0.48045   0.04202   0.00000  Uiso   1.00
C335   C     0.82008   0.42992   0.75000   0.00000  Uiso   1.00
C336   C     0.92992   0.17992   0.25000   0.00000  Uiso   1.00
C337   C     0.57008   0.32008   0.75000   0.00000  Uiso   1.00
C338   C     0.82008   0.42992   0.25000   0.00000  Uiso   1.00
C339   C     0.67992   0.07008   0.75000   0.00000  Uiso   1.00
C340   C     0.57008   0.32008   0.25000   0.00000  Uiso   1.00
C341   C     0.92992   0.17992   0.75000   0.00000  Uiso   1.00
C342   C     0.67992   0.42992   0.75000   0.00000  Uiso   1.00
C343   C     0.82008   0.07008   0.25000   0.00000  Uiso   1.00
C344   C     0.92992   0.32008   0.75000   0.00000  Uiso   1.00
C345   C     0.72275   0.48045   0.95798   0.00000  Uiso   1.00
C346   C     0.57008   0.17992   0.25000   0.00000  Uiso   1.00
C347   C     0.82008   0.07008   0.75000   0.00000  Uiso   1.00
C348   C     0.67992   0.42992   0.25000   0.00000  Uiso   1.00
C349   C     0.57008   0.17992   0.75000   0.00000  Uiso   1.00
C350   C     0.92992   0.32008   0.25000   0.00000  Uiso   1.00
C351   C     0.62184   0.40488   0.22508   0.00000  Uiso   1.00
C352   C     0.87816   0.09512   0.77492   0.00000  Uiso   1.00
C353   C     0.59512   0.12184   0.22508   0.00000  Uiso   1.00
C354   C     0.90488   0.37816   0.77492   0.00000  Uiso   1.00
C355   C     0.87816   0.09512   0.22508   0.00000  Uiso   1.00
C356   C     0.51955   0.27725   0.04202   0.00000  Uiso   1.00
C357   C     0.62184   0.40488   0.77492   0.00000  Uiso   1.00
C358   C     0.90488   0.37816   0.22508   0.00000  Uiso   1.00
C359   C     0.59512   0.12184   0.77492   0.00000  Uiso   1.00
C360   C     0.62184   0.09512   0.77492   0.00000  Uiso   1.00
C361   C     0.87816   0.40488   0.22508   0.00000  Uiso   1.00
C362   C     0.59512   0.37816   0.77492   0.00000  Uiso   1.00
C363   C     0.90488   0.12184   0.22508   0.00000  Uiso   1.00
C364   C     0.87816   0.40488   0.77492   0.00000  Uiso   1.00
C365   C     0.62184   0.09512   0.22508   0.00000  Uiso   1.00
C366   C     0.90488   0.12184   0.77492   0.00000  Uiso   1.00
C367   C     0.51955   0.22275   0.95798   0.00000  Uiso   1.00
C368   C     0.59512   0.37816   0.22508   0.00000  Uiso   1.00
C369   C     0.87184   0.15488   0.72508   0.00000  Uiso   1.00
C370   C     0.62816   0.34512   0.27492   0.00000  Uiso   1.00
C371   C     0.84512   0.37184   0.72508   0.00000  Uiso   1.00
C372   C     0.65488   0.12816   0.27492   0.00000  Uiso   1.00
C373   C     0.62816   0.34512   0.72508   0.00000  Uiso   1.00
C374   C     0.87184   0.15488   0.27492   0.00000  Uiso   1.00
C375   C     0.65488   0.12816   0.72508   0.00000  Uiso   1.00
C376   C     0.84512   0.37184   0.27492   0.00000  Uiso   1.00
C377   C     0.87184   0.34512   0.27492   0.00000  Uiso   1.00
C378   C     0.97275   0.26955   0.54202   0.00000  Uiso   1.00
C379   C     0.62816   0.15488   0.72508   0.00000  Uiso   1.00
C380   C     0.84512   0.12816   0.27492   0.00000  Uiso   1.00
C381   C     0.65488   0.37184   0.72508   0.00000  Uiso   1.00
C382   C     0.62816   0.15488   0.27492   0.00000  Uiso   1.00
C383   C     0.87184   0.34512   0.72508   0.00000  Uiso   1.00
C384   C     0.65488   0.37184   0.27492   0.00000  Uiso   1.00
C385   C     0.84512   0.12816   0.72508   0.00000  Uiso   1.00
C386   C     0.59814   0.34814   0.25000   0.00000  Uiso   1.00
C387   C     0.90186   0.15186   0.75000   0.00000  Uiso   1.00
C388   C     0.65186   0.09814   0.25000   0.00000  Uiso   1.00
H389   H     0.61895   0.42784   0.20559   0.00000  Uiso   1.00
H390   H     0.88104   0.42784   0.20558   0.00000  Uiso   1.00
H391   H     0.57216   0.38105   0.79442   0.00000  Uiso   1.00
H392   H     0.92784   0.11896   0.20558   0.00000  Uiso   1.00
H393   H     0.88105   0.42784   0.79442   0.00000  Uiso   1.00
H394   H     0.61896   0.07216   0.20558   0.00000  Uiso   1.00
H395   H     0.92784   0.11895   0.79442   0.00000  Uiso   1.00
H396   H     0.57216   0.38104   0.20558   0.00000  Uiso   1.00
H397   H     0.86895   0.17784   0.70559   0.00000  Uiso   1.00
H398   H     0.63104   0.32216   0.29442   0.00000  Uiso   1.00
H399   H     0.82216   0.36895   0.70559   0.00000  Uiso   1.00
H400   H     0.88104   0.07216   0.79442   0.00000  Uiso   1.00
H401   H     0.67784   0.13104   0.29442   0.00000  Uiso   1.00
H402   H     0.63105   0.32216   0.70559   0.00000  Uiso   1.00
H403   H     0.86896   0.17784   0.29442   0.00000  Uiso   1.00
H404   H     0.67784   0.13105   0.70559   0.00000  Uiso   1.00
H405   H     0.82216   0.36896   0.29442   0.00000  Uiso   1.00
H406   H     0.86895   0.32216   0.29442   0.00000  Uiso   1.00
H407   H     0.63104   0.17784   0.70558   0.00000  Uiso   1.00
H408   H     0.82216   0.13105   0.29442   0.00000  Uiso   1.00
H409   H     0.67784   0.36896   0.70558   0.00000  Uiso   1.00
H410   H     0.63105   0.17784   0.29442   0.00000  Uiso   1.00
H411   H     0.57216   0.11895   0.20559   0.00000  Uiso   1.00
H412   H     0.86896   0.32216   0.70558   0.00000  Uiso   1.00
H413   H     0.67784   0.36895   0.29442   0.00000  Uiso   1.00
H414   H     0.82216   0.13104   0.70558   0.00000  Uiso   1.00
H415   H     0.70162   0.03303   0.09803   0.00000  Uiso   1.00
H416   H     0.79838   0.03303   0.90197   0.00000  Uiso   1.00
H417   H     0.96697   0.20162   0.09803   0.00000  Uiso   1.00
H418   H     0.96697   0.29838   0.90197   0.00000  Uiso   1.00
H419   H     0.79838   0.46697   0.09803   0.00000  Uiso   1.00
H420   H     0.70162   0.46697   0.90197   0.00000  Uiso   1.00
H421   H     0.53303   0.29838   0.09803   0.00000  Uiso   1.00
H422   H     0.92784   0.38104   0.79442   0.00000  Uiso   1.00
H423   H     0.53303   0.20162   0.90197   0.00000  Uiso   1.00
H424   H     0.95162   0.28303   0.59803   0.00000  Uiso   1.00
H425   H     0.54838   0.28303   0.40197   0.00000  Uiso   1.00
H426   H     0.71697   0.45162   0.59803   0.00000  Uiso   1.00
H427   H     0.71697   0.04838   0.40197   0.00000  Uiso   1.00
H428   H     0.54838   0.21697   0.59803   0.00000  Uiso   1.00
H429   H     0.95162   0.21697   0.40197   0.00000  Uiso   1.00
H430   H     0.78303   0.04838   0.59803   0.00000  Uiso   1.00
H431   H     0.78303   0.45162   0.40197   0.00000  Uiso   1.00
H432   H     0.70110   0.04277   0.99640   0.00000  Uiso   1.00
H433   H     0.88105   0.07216   0.20559   0.00000  Uiso   1.00
H434   H     0.79890   0.04277   0.00360   0.00000  Uiso   1.00
H435   H     0.95723   0.20110   0.99640   0.00000  Uiso   1.00
H436   H     0.95723   0.29890   0.00360   0.00000  Uiso   1.00
H437   H     0.79890   0.45723   0.99640   0.00000  Uiso   1.00
H438   H     0.70110   0.45723   0.00360   0.00000  Uiso   1.00
H439   H     0.54277   0.29890   0.99640   0.00000  Uiso   1.00
H440   H     0.54277   0.20110   0.00360   0.00000  Uiso   1.00
H441   H     0.95110   0.29277   0.49640   0.00000  Uiso   1.00
H442   H     0.54890   0.29277   0.50360   0.00000  Uiso   1.00
H443   H     0.70723   0.45110   0.49640   0.00000  Uiso   1.00
H444   H     0.61896   0.42784   0.79442   0.00000  Uiso   1.00
H445   H     0.70723   0.04890   0.50360   0.00000  Uiso   1.00
H446   H     0.54890   0.20723   0.49640   0.00000  Uiso   1.00
H447   H     0.95110   0.20723   0.50360   0.00000  Uiso   1.00
H448   H     0.79277   0.04890   0.49640   0.00000  Uiso   1.00
H449   H     0.79277   0.45110   0.50360   0.00000  Uiso   1.00
H450   H     0.92784   0.38105   0.20559   0.00000  Uiso   1.00
H451   H     0.57216   0.11896   0.79442   0.00000  Uiso   1.00
H452   H     0.61895   0.07216   0.79442   0.00000  Uiso   1.00
O453   O     0.75000   0.00000   0.25000   0.00000  Uiso   1.00
O454   O     0.75000   0.46964   0.66317   0.00000  Uiso   1.00
O455   O     0.96964   0.25000   0.33683   0.00000  Uiso   1.00
O456   O     0.53036   0.25000   0.66317   0.00000  Uiso   1.00
O457   O     0.50000   0.21964   0.83683   0.00000  Uiso   1.00
O458   O     0.50000   0.28036   0.16317   0.00000  Uiso   1.00
O459   O     0.78036   0.00000   0.83683   0.00000  Uiso   1.00
O460   O     0.71964   0.00000   0.16317   0.00000  Uiso   1.00
O461   O     0.50000   0.28036   0.83683   0.00000  Uiso   1.00
O462   O     0.50000   0.21964   0.16317   0.00000  Uiso   1.00
O463   O     0.71964   0.00000   0.83683   0.00000  Uiso   1.00
O464   O     0.75000   0.00000   0.75000   0.00000  Uiso   1.00
O465   O     0.78036   0.00000   0.16317   0.00000  Uiso   1.00
O466   O     0.70726   0.07307   0.27282   0.00000  Uiso   1.00
O467   O     0.79275   0.42693   0.72718   0.00000  Uiso   1.00
O468   O     0.92693   0.20726   0.27282   0.00000  Uiso   1.00
O469   O     0.57307   0.29275   0.72718   0.00000  Uiso   1.00
O470   O     0.79275   0.42693   0.27282   0.00000  Uiso   1.00
O471   O     0.70726   0.07307   0.72718   0.00000  Uiso   1.00
O472   O     0.57307   0.29275   0.27282   0.00000  Uiso   1.00
O473   O     0.92693   0.20726   0.72718   0.00000  Uiso   1.00
O474   O     0.70726   0.42693   0.72718   0.00000  Uiso   1.00
O475   O     0.50000   0.25000   0.25000   0.00000  Uiso   1.00
O476   O     0.79275   0.07307   0.27282   0.00000  Uiso   1.00
O477   O     0.92693   0.29275   0.72718   0.00000  Uiso   1.00
O478   O     0.57307   0.20726   0.27282   0.00000  Uiso   1.00
O479   O     0.79275   0.07307   0.72718   0.00000  Uiso   1.00
O480   O     0.70726   0.42693   0.27282   0.00000  Uiso   1.00
O481   O     0.57307   0.20726   0.72718   0.00000  Uiso   1.00
O482   O     0.92693   0.29275   0.27282   0.00000  Uiso   1.00
O483   O     0.95726   0.32307   0.77282   0.00000  Uiso   1.00
O484   O     0.54275   0.17693   0.22718   0.00000  Uiso   1.00
O485   O     0.67693   0.45726   0.77282   0.00000  Uiso   1.00
O486   O     0.50000   0.25000   0.75000   0.00000  Uiso   1.00
O487   O     0.82307   0.04275   0.22718   0.00000  Uiso   1.00
O488   O     0.54275   0.17693   0.77282   0.00000  Uiso   1.00
O489   O     0.95726   0.32307   0.22718   0.00000  Uiso   1.00
O490   O     0.82307   0.04275   0.77282   0.00000  Uiso   1.00
O491   O     0.67693   0.45726   0.22718   0.00000  Uiso   1.00
O492   O     0.95726   0.17693   0.22718   0.00000  Uiso   1.00
O493   O     0.54275   0.32307   0.77282   0.00000  Uiso   1.00
O494   O     0.67693   0.04275   0.22718   0.00000  Uiso   1.00
O495   O     0.82307   0.45726   0.77282   0.00000  Uiso   1.00
O496   O     0.54275   0.32307   0.22718   0.00000  Uiso   1.00
O497   O     0.75000   0.46964   0.33683   0.00000  Uiso   1.00
O498   O     0.95726   0.17693   0.77282   0.00000  Uiso   1.00
O499   O     0.82307   0.45726   0.22718   0.00000  Uiso   1.00
O500   O     0.67693   0.04275   0.77282   0.00000  Uiso   1.00
O501   O     0.69582   0.04000   0.02434   0.00000  Uiso   1.00
O502   O     0.80418   0.03999   0.97566   0.00000  Uiso   1.00
O503   O     0.96001   0.19582   0.02434   0.00000  Uiso   1.00
O504   O     0.96000   0.30418   0.97566   0.00000  Uiso   1.00
O505   O     0.80418   0.46000   0.02434   0.00000  Uiso   1.00
O506   O     0.69582   0.46001   0.97566   0.00000  Uiso   1.00
O507   O     0.53999   0.30418   0.02434   0.00000  Uiso   1.00
O508   O     0.75000   0.03036   0.66317   0.00000  Uiso   1.00
O509   O     0.54000   0.19582   0.97566   0.00000  Uiso   1.00
O510   O     0.94582   0.29000   0.52434   0.00000  Uiso   1.00
O511   O     0.55418   0.28999   0.47566   0.00000  Uiso   1.00
O512   O     0.71001   0.44582   0.52434   0.00000  Uiso   1.00
O513   O     0.71000   0.05418   0.47566   0.00000  Uiso   1.00
O514   O     0.55418   0.21000   0.52434   0.00000  Uiso   1.00
O515   O     0.94582   0.21001   0.47566   0.00000  Uiso   1.00
O516   O     0.78999   0.05418   0.52434   0.00000  Uiso   1.00
O517   O     0.79000   0.44582   0.47566   0.00000  Uiso   1.00
O518   O     0.53036   0.25000   0.33683   0.00000  Uiso   1.00
O519   O     0.96964   0.25000   0.66317   0.00000  Uiso   1.00
O520   O     0.75000   0.03036   0.33683   0.00000  Uiso   1.00
Zn521  Zn    0.70660   0.00000   0.21760   0.00000  Uiso   1.00
Zn522  Zn    0.54340   0.25000   0.28240   0.00000  Uiso   1.00
Zn523  Zn    0.75000   0.45660   0.71760   0.00000  Uiso   1.00
Zn524  Zn    0.75000   0.04340   0.28240   0.00000  Uiso   1.00
Zn525  Zn    0.54340   0.25000   0.71760   0.00000  Uiso   1.00
Zn526  Zn    0.95660   0.25000   0.28240   0.00000  Uiso   1.00
Zn527  Zn    0.75000   0.04340   0.71760   0.00000  Uiso   1.00
Zn528  Zn    0.75000   0.45660   0.28240   0.00000  Uiso   1.00
Zn529  Zn    0.79340   0.00000   0.78240   0.00000  Uiso   1.00
Zn530  Zn    0.50000   0.20660   0.21760   0.00000  Uiso   1.00
Zn531  Zn    0.50000   0.29340   0.78240   0.00000  Uiso   1.00
Zn532  Zn    0.79340   0.00000   0.21760   0.00000  Uiso   1.00
Zn533  Zn    0.70660   0.00000   0.78240   0.00000  Uiso   1.00
Zn534  Zn    0.50000   0.29340   0.21760   0.00000  Uiso   1.00
Zn535  Zn    0.50000   0.20660   0.78240   0.00000  Uiso   1.00
Zn536  Zn    0.95660   0.25000   0.71760   0.00000  Uiso   1.00
C537   C     0.22275   0.51955   0.04202   0.00000  Uiso   1.00
C538   C     0.02725   0.76955   0.45798   0.00000  Uiso   1.00
C539   C     0.34814   0.90186   0.75000   0.00000  Uiso   1.00
C540   C     0.40186   0.65186   0.25000   0.00000  Uiso   1.00
C541   C     0.09814   0.84814   0.75000   0.00000  Uiso   1.00
C542   C     0.34814   0.90186   0.25000   0.00000  Uiso   1.00
C543   C     0.15186   0.59814   0.75000   0.00000  Uiso   1.00
C544   C     0.09814   0.65186   0.75000   0.00000  Uiso   1.00
C545   C     0.40186   0.84814   0.25000   0.00000  Uiso   1.00
C546   C     0.15186   0.90186   0.75000   0.00000  Uiso   1.00
C547   C     0.34814   0.59814   0.25000   0.00000  Uiso   1.00
C548   C     0.40186   0.84814   0.75000   0.00000  Uiso   1.00
C549   C     0.23045   0.97275   0.54202   0.00000  Uiso   1.00
C550   C     0.09814   0.65186   0.25000   0.00000  Uiso   1.00
C551   C     0.34814   0.59814   0.75000   0.00000  Uiso   1.00
C552   C     0.15186   0.90186   0.25000   0.00000  Uiso   1.00
C553   C     0.25000   0.50000   0.10255   0.00000  Uiso   1.00
C554   C     0.25000   0.50000   0.89745   0.00000  Uiso   1.00
C555   C     0.00000   0.75000   0.10255   0.00000  Uiso   1.00
C556   C     0.00000   0.75000   0.89745   0.00000  Uiso   1.00
C557   C     0.00000   0.75000   0.60255   0.00000  Uiso   1.00
C558   C     0.00000   0.75000   0.39745   0.00000  Uiso   1.00
C559   C     0.25000   0.50000   0.60255   0.00000  Uiso   1.00
C560   C     0.23045   0.52725   0.45798   0.00000  Uiso   1.00
C561   C     0.25000   0.50000   0.39745   0.00000  Uiso   1.00
C562   C     0.02725   0.73045   0.54202   0.00000  Uiso   1.00
C563   C     0.47275   0.73045   0.45798   0.00000  Uiso   1.00
C564   C     0.26955   0.52725   0.54202   0.00000  Uiso   1.00
C565   C     0.26955   0.97275   0.45798   0.00000  Uiso   1.00
C566   C     0.22265   0.51843   0.08235   0.00000  Uiso   1.00
C567   C     0.27736   0.51843   0.91765   0.00000  Uiso   1.00
C568   C     0.48158   0.72264   0.08235   0.00000  Uiso   1.00
C569   C     0.27725   0.51955   0.95798   0.00000  Uiso   1.00
C570   C     0.48157   0.77736   0.91765   0.00000  Uiso   1.00
C571   C     0.27736   0.98157   0.08235   0.00000  Uiso   1.00
C572   C     0.22264   0.98158   0.91765   0.00000  Uiso   1.00
C573   C     0.01843   0.77736   0.08235   0.00000  Uiso   1.00
C574   C     0.01843   0.72265   0.91765   0.00000  Uiso   1.00
C575   C     0.47265   0.76843   0.58235   0.00000  Uiso   1.00
C576   C     0.02736   0.76843   0.41765   0.00000  Uiso   1.00
C577   C     0.23158   0.97264   0.58235   0.00000  Uiso   1.00
C578   C     0.23157   0.52736   0.41765   0.00000  Uiso   1.00
C579   C     0.02736   0.73157   0.58235   0.00000  Uiso   1.00
C580   C     0.48045   0.72275   0.04202   0.00000  Uiso   1.00
C581   C     0.47264   0.73158   0.41765   0.00000  Uiso   1.00
C582   C     0.26843   0.52736   0.58235   0.00000  Uiso   1.00
C583   C     0.26843   0.97265   0.41765   0.00000  Uiso   1.00
C584   C     0.25000   0.50000   0.02136   0.00000  Uiso   1.00
C585   C     0.25000   0.50000   0.97864   0.00000  Uiso   1.00
C586   C     0.00000   0.75000   0.02136   0.00000  Uiso   1.00
C587   C     0.00000   0.75000   0.97864   0.00000  Uiso   1.00
C588   C     0.00000   0.75000   0.52136   0.00000  Uiso   1.00
C589   C     0.00000   0.75000   0.47864   0.00000  Uiso   1.00
C590   C     0.25000   0.50000   0.52136   0.00000  Uiso   1.00
C591   C     0.48045   0.77725   0.95798   0.00000  Uiso   1.00
C592   C     0.25000   0.50000   0.47864   0.00000  Uiso   1.00
C593   C     0.25000   0.50000   0.35516   0.00000  Uiso   1.00
C594   C     0.25000   0.50000   0.64484   0.00000  Uiso   1.00
C595   C     0.00000   0.75000   0.35516   0.00000  Uiso   1.00
C596   C     0.00000   0.75000   0.64484   0.00000  Uiso   1.00
C597   C     0.00000   0.75000   0.85516   0.00000  Uiso   1.00
C598   C     0.00000   0.75000   0.14484   0.00000  Uiso   1.00
C599   C     0.25000   0.50000   0.85516   0.00000  Uiso   1.00
C600   C     0.25000   0.50000   0.14484   0.00000  Uiso   1.00
C601   C     0.17992   0.57008   0.25000   0.00000  Uiso   1.00
C602   C     0.27725   0.98045   0.04202   0.00000  Uiso   1.00
C603   C     0.32008   0.92992   0.75000   0.00000  Uiso   1.00
C604   C     0.42992   0.67992   0.25000   0.00000  Uiso   1.00
C605   C     0.07008   0.82008   0.75000   0.00000  Uiso   1.00
C606   C     0.32008   0.92992   0.25000   0.00000  Uiso   1.00
C607   C     0.17992   0.57008   0.75000   0.00000  Uiso   1.00
C608   C     0.07008   0.82008   0.25000   0.00000  Uiso   1.00
C609   C     0.42992   0.67992   0.75000   0.00000  Uiso   1.00
C610   C     0.17992   0.92992   0.75000   0.00000  Uiso   1.00
C611   C     0.32008   0.57008   0.25000   0.00000  Uiso   1.00
C612   C     0.42992   0.82008   0.75000   0.00000  Uiso   1.00
C613   C     0.22275   0.98045   0.95798   0.00000  Uiso   1.00
C614   C     0.07008   0.67992   0.25000   0.00000  Uiso   1.00
C615   C     0.32008   0.57008   0.75000   0.00000  Uiso   1.00
C616   C     0.17992   0.92992   0.25000   0.00000  Uiso   1.00
C617   C     0.07008   0.67992   0.75000   0.00000  Uiso   1.00
C618   C     0.42992   0.82008   0.25000   0.00000  Uiso   1.00
C619   C     0.12184   0.90488   0.22508   0.00000  Uiso   1.00
C620   C     0.37816   0.59512   0.77492   0.00000  Uiso   1.00
C621   C     0.09512   0.62184   0.22508   0.00000  Uiso   1.00
C622   C     0.40488   0.87816   0.77492   0.00000  Uiso   1.00
C623   C     0.37816   0.59512   0.22508   0.00000  Uiso   1.00
C624   C     0.01955   0.77725   0.04202   0.00000  Uiso   1.00
C625   C     0.12184   0.90488   0.77492   0.00000  Uiso   1.00
C626   C     0.40488   0.87816   0.22508   0.00000  Uiso   1.00
C627   C     0.09512   0.62184   0.77492   0.00000  Uiso   1.00
C628   C     0.12184   0.59512   0.77492   0.00000  Uiso   1.00
C629   C     0.37816   0.90488   0.22508   0.00000  Uiso   1.00
C630   C     0.09512   0.87816   0.77492   0.00000  Uiso   1.00
C631   C     0.40488   0.62184   0.22508   0.00000  Uiso   1.00
C632   C     0.37816   0.90488   0.77492   0.00000  Uiso   1.00
C633   C     0.12184   0.59512   0.22508   0.00000  Uiso   1.00
C634   C     0.40488   0.62184   0.77492   0.00000  Uiso   1.00
C635   C     0.01955   0.72275   0.95798   0.00000  Uiso   1.00
C636   C     0.09512   0.87816   0.22508   0.00000  Uiso   1.00
C637   C     0.37184   0.65488   0.72508   0.00000  Uiso   1.00
C638   C     0.12816   0.84512   0.27492   0.00000  Uiso   1.00
C639   C     0.34512   0.87184   0.72508   0.00000  Uiso   1.00
C640   C     0.15488   0.62816   0.27492   0.00000  Uiso   1.00
C641   C     0.12816   0.84512   0.72508   0.00000  Uiso   1.00
C642   C     0.37184   0.65488   0.27492   0.00000  Uiso   1.00
C643   C     0.15488   0.62816   0.72508   0.00000  Uiso   1.00
C644   C     0.34512   0.87184   0.27492   0.00000  Uiso   1.00
C645   C     0.37184   0.84512   0.27492   0.00000  Uiso   1.00
C646   C     0.47275   0.76955   0.54202   0.00000  Uiso   1.00
C647   C     0.12816   0.65488   0.72508   0.00000  Uiso   1.00
C648   C     0.34512   0.62816   0.27492   0.00000  Uiso   1.00
C649   C     0.15488   0.87184   0.72508   0.00000  Uiso   1.00
C650   C     0.12816   0.65488   0.27492   0.00000  Uiso   1.00
C651   C     0.37184   0.84512   0.72508   0.00000  Uiso   1.00
C652   C     0.15488   0.87184   0.27492   0.00000  Uiso   1.00
C653   C     0.34512   0.62816   0.72508   0.00000  Uiso   1.00
C654   C     0.09814   0.84814   0.25000   0.00000  Uiso   1.00
C655   C     0.40186   0.65186   0.75000   0.00000  Uiso   1.00
C656   C     0.15186   0.59814   0.25000   0.00000  Uiso   1.00
H657   H     0.11895   0.92784   0.20559   0.00000  Uiso   1.00
H658   H     0.38104   0.92784   0.20558   0.00000  Uiso   1.00
H659   H     0.07216   0.88105   0.79442   0.00000  Uiso   1.00
H660   H     0.42784   0.61896   0.20558   0.00000  Uiso   1.00
H661   H     0.38105   0.92784   0.79442   0.00000  Uiso   1.00
H662   H     0.11896   0.57216   0.20558   0.00000  Uiso   1.00
H663   H     0.42784   0.61895   0.79442   0.00000  Uiso   1.00
H664   H     0.07216   0.88104   0.20558   0.00000  Uiso   1.00
H665   H     0.36895   0.67784   0.70559   0.00000  Uiso   1.00
H666   H     0.13104   0.82216   0.29442   0.00000  Uiso   1.00
H667   H     0.32216   0.86895   0.70559   0.00000  Uiso   1.00
H668   H     0.38104   0.57216   0.79442   0.00000  Uiso   1.00
H669   H     0.17784   0.63104   0.29442   0.00000  Uiso   1.00
H670   H     0.13105   0.82216   0.70559   0.00000  Uiso   1.00
H671   H     0.36896   0.67784   0.29442   0.00000  Uiso   1.00
H672   H     0.17784   0.63105   0.70559   0.00000  Uiso   1.00
H673   H     0.32216   0.86896   0.29442   0.00000  Uiso   1.00
H674   H     0.36895   0.82216   0.29442   0.00000  Uiso   1.00
H675   H     0.13104   0.67784   0.70558   0.00000  Uiso   1.00
H676   H     0.32216   0.63105   0.29442   0.00000  Uiso   1.00
H677   H     0.17784   0.86896   0.70558   0.00000  Uiso   1.00
H678   H     0.13105   0.67784   0.29442   0.00000  Uiso   1.00
H679   H     0.07216   0.61895   0.20559   0.00000  Uiso   1.00
H680   H     0.36896   0.82216   0.70558   0.00000  Uiso   1.00
H681   H     0.17784   0.86895   0.29442   0.00000  Uiso   1.00
H682   H     0.32216   0.63104   0.70558   0.00000  Uiso   1.00
H683   H     0.20162   0.53303   0.09803   0.00000  Uiso   1.00
H684   H     0.29838   0.53303   0.90197   0.00000  Uiso   1.00
H685   H     0.46697   0.70162   0.09803   0.00000  Uiso   1.00
H686   H     0.46697   0.79838   0.90197   0.00000  Uiso   1.00
H687   H     0.29838   0.96697   0.09803   0.00000  Uiso   1.00
H688   H     0.20162   0.96697   0.90197   0.00000  Uiso   1.00
H689   H     0.03303   0.79838   0.09803   0.00000  Uiso   1.00
H690   H     0.42784   0.88104   0.79442   0.00000  Uiso   1.00
H691   H     0.03303   0.70162   0.90197   0.00000  Uiso   1.00
H692   H     0.45162   0.78303   0.59803   0.00000  Uiso   1.00
H693   H     0.04838   0.78303   0.40197   0.00000  Uiso   1.00
H694   H     0.21697   0.95162   0.59803   0.00000  Uiso   1.00
H695   H     0.21697   0.54838   0.40197   0.00000  Uiso   1.00
H696   H     0.04838   0.71697   0.59803   0.00000  Uiso   1.00
H697   H     0.45162   0.71697   0.40197   0.00000  Uiso   1.00
H698   H     0.28303   0.54838   0.59803   0.00000  Uiso   1.00
H699   H     0.28303   0.95162   0.40197   0.00000  Uiso   1.00
H700   H     0.20110   0.54277   0.99640   0.00000  Uiso   1.00
H701   H     0.38105   0.57216   0.20559   0.00000  Uiso   1.00
H702   H     0.29890   0.54277   0.00360   0.00000  Uiso   1.00
H703   H     0.45723   0.70110   0.99640   0.00000  Uiso   1.00
H704   H     0.45723   0.79890   0.00360   0.00000  Uiso   1.00
H705   H     0.29890   0.95723   0.99640   0.00000  Uiso   1.00
H706   H     0.20110   0.95723   0.00360   0.00000  Uiso   1.00
H707   H     0.04277   0.79890   0.99640   0.00000  Uiso   1.00
H708   H     0.04277   0.70110   0.00360   0.00000  Uiso   1.00
H709   H     0.45110   0.79277   0.49640   0.00000  Uiso   1.00
H710   H     0.04890   0.79277   0.50360   0.00000  Uiso   1.00
H711   H     0.20723   0.95110   0.49640   0.00000  Uiso   1.00
H712   H     0.11896   0.92784   0.79442   0.00000  Uiso   1.00
H713   H     0.20723   0.54890   0.50360   0.00000  Uiso   1.00
H714   H     0.04890   0.70723   0.49640   0.00000  Uiso   1.00
H715   H     0.45110   0.70723   0.50360   0.00000  Uiso   1.00
H716   H     0.29277   0.54890   0.49640   0.00000  Uiso   1.00
H717   H     0.29277   0.95110   0.50360   0.00000  Uiso   1.00
H718   H     0.42784   0.88105   0.20559   0.00000  Uiso   1.00
H719   H     0.07216   0.61896   0.79442   0.00000  Uiso   1.00
H720   H     0.11895   0.57216   0.79442   0.00000  Uiso   1.00
O721   O     0.25000   0.50000   0.25000   0.00000  Uiso   1.00
O722   O     0.25000   0.96964   0.66317   0.00000  Uiso   1.00
O723   O     0.46964   0.75000   0.33683   0.00000  Uiso   1.00
O724   O     0.03036   0.75000   0.66317   0.00000  Uiso   1.00
O725   O     0.00000   0.71964   0.83683   0.00000  Uiso   1.00
O726   O     0.00000   0.78036   0.16317   0.00000  Uiso   1.00
O727   O     0.28036   0.50000   0.83683   0.00000  Uiso   1.00
O728   O     0.21964   0.50000   0.16317   0.00000  Uiso   1.00
O729   O     0.00000   0.78036   0.83683   0.00000  Uiso   1.00
O730   O     0.00000   0.71964   0.16317   0.00000  Uiso   1.00
O731   O     0.21964   0.50000   0.83683   0.00000  Uiso   1.00
O732   O     0.25000   0.50000   0.75000   0.00000  Uiso   1.00
O733   O     0.28036   0.50000   0.16317   0.00000  Uiso   1.00
O734   O     0.20726   0.57307   0.27282   0.00000  Uiso   1.00
O735   O     0.29275   0.92693   0.72718   0.00000  Uiso   1.00
O736   O     0.42693   0.70726   0.27282   0.00000  Uiso   1.00
O737   O     0.07307   0.79275   0.72718   0.00000  Uiso   1.00
O738   O     0.29275   0.92693   0.27282   0.00000  Uiso   1.00
O739   O     0.20726   0.57307   0.72718   0.00000  Uiso   1.00
O740   O     0.07307   0.79275   0.27282   0.00000  Uiso   1.00
O741   O     0.42693   0.70726   0.72718   0.00000  Uiso   1.00
O742   O     0.20726   0.92693   0.72718   0.00000  Uiso   1.00
O743   O     0.00000   0.75000   0.25000   0.00000  Uiso   1.00
O744   O     0.29275   0.57307   0.27282   0.00000  Uiso   1.00
O745   O     0.42693   0.79275   0.72718   0.00000  Uiso   1.00
O746   O     0.07307   0.70726   0.27282   0.00000  Uiso   1.00
O747   O     0.29275   0.57307   0.72718   0.00000  Uiso   1.00
O748   O     0.20726   0.92693   0.27282   0.00000  Uiso   1.00
O749   O     0.07307   0.70726   0.72718   0.00000  Uiso   1.00
O750   O     0.42693   0.79275   0.27282   0.00000  Uiso   1.00
O751   O     0.45726   0.82307   0.77282   0.00000  Uiso   1.00
O752   O     0.04275   0.67693   0.22718   0.00000  Uiso   1.00
O753   O     0.17693   0.95726   0.77282   0.00000  Uiso   1.00
O754   O     0.00000   0.75000   0.75000   0.00000  Uiso   1.00
O755   O     0.32307   0.54275   0.22718   0.00000  Uiso   1.00
O756   O     0.04275   0.67693   0.77282   0.00000  Uiso   1.00
O757   O     0.45726   0.82307   0.22718   0.00000  Uiso   1.00
O758   O     0.32307   0.54275   0.77282   0.00000  Uiso   1.00
O759   O     0.17693   0.95726   0.22718   0.00000  Uiso   1.00
O760   O     0.45726   0.67693   0.22718   0.00000  Uiso   1.00
O761   O     0.04275   0.82307   0.77282   0.00000  Uiso   1.00
O762   O     0.17693   0.54275   0.22718   0.00000  Uiso   1.00
O763   O     0.32307   0.95726   0.77282   0.00000  Uiso   1.00
O764   O     0.04275   0.82307   0.22718   0.00000  Uiso   1.00
O765   O     0.25000   0.96964   0.33683   0.00000  Uiso   1.00
O766   O     0.45726   0.67693   0.77282   0.00000  Uiso   1.00
O767   O     0.32307   0.95726   0.22718   0.00000  Uiso   1.00
O768   O     0.17693   0.54275   0.77282   0.00000  Uiso   1.00
O769   O     0.19582   0.54000   0.02434   0.00000  Uiso   1.00
O770   O     0.30418   0.53999   0.97566   0.00000  Uiso   1.00
O771   O     0.46001   0.69582   0.02434   0.00000  Uiso   1.00
O772   O     0.46000   0.80418   0.97566   0.00000  Uiso   1.00
O773   O     0.30418   0.96000   0.02434   0.00000  Uiso   1.00
O774   O     0.19582   0.96001   0.97566   0.00000  Uiso   1.00
O775   O     0.03999   0.80418   0.02434   0.00000  Uiso   1.00
O776   O     0.25000   0.53036   0.66317   0.00000  Uiso   1.00
O777   O     0.04000   0.69582   0.97566   0.00000  Uiso   1.00
O778   O     0.44582   0.79000   0.52434   0.00000  Uiso   1.00
O779   O     0.05418   0.78999   0.47566   0.00000  Uiso   1.00
O780   O     0.21001   0.94582   0.52434   0.00000  Uiso   1.00
O781   O     0.21000   0.55418   0.47566   0.00000  Uiso   1.00
O782   O     0.05418   0.71000   0.52434   0.00000  Uiso   1.00
O783   O     0.44582   0.71001   0.47566   0.00000  Uiso   1.00
O784   O     0.28999   0.55418   0.52434   0.00000  Uiso   1.00
O785   O     0.29000   0.94582   0.47566   0.00000  Uiso   1.00
O786   O     0.03036   0.75000   0.33683   0.00000  Uiso   1.00
O787   O     0.46964   0.75000   0.66317   0.00000  Uiso   1.00
O788   O     0.25000   0.53036   0.33683   0.00000  Uiso   1.00
Zn789  Zn    0.20660   0.50000   0.21760   0.00000  Uiso   1.00
Zn790  Zn    0.04340   0.75000   0.28240   0.00000  Uiso   1.00
Zn791  Zn    0.25000   0.95660   0.71760   0.00000  Uiso   1.00
Zn792  Zn    0.25000   0.54340   0.28240   0.00000  Uiso   1.00
Zn793  Zn    0.04340   0.75000   0.71760   0.00000  Uiso   1.00
Zn794  Zn    0.45660   0.75000   0.28240   0.00000  Uiso   1.00
Zn795  Zn    0.25000   0.54340   0.71760   0.00000  Uiso   1.00
Zn796  Zn    0.25000   0.95660   0.28240   0.00000  Uiso   1.00
Zn797  Zn    0.29340   0.50000   0.78240   0.00000  Uiso   1.00
Zn798  Zn    0.00000   0.70660   0.21760   0.00000  Uiso   1.00
Zn799  Zn    0.00000   0.79340   0.78240   0.00000  Uiso   1.00
Zn800  Zn    0.29340   0.50000   0.21760   0.00000  Uiso   1.00
Zn801  Zn    0.20660   0.50000   0.78240   0.00000  Uiso   1.00
Zn802  Zn    0.00000   0.79340   0.21760   0.00000  Uiso   1.00
Zn803  Zn    0.00000   0.70660   0.78240   0.00000  Uiso   1.00
Zn804  Zn    0.45660   0.75000   0.71760   0.00000  Uiso   1.00
C805   C     0.72275   0.51955   0.04202   0.00000  Uiso   1.00
C806   C     0.52725   0.76955   0.45798   0.00000  Uiso   1.00
C807   C     0.84814   0.90186   0.75000   0.00000  Uiso   1.00
C808   C     0.90186   0.65186   0.25000   0.00000  Uiso   1.00
C809   C     0.59814   0.84814   0.75000   0.00000  Uiso   1.00
C810   C     0.84814   0.90186   0.25000   0.00000  Uiso   1.00
C811   C     0.65186   0.59814   0.75000   0.00000  Uiso   1.00
C812   C     0.59814   0.65186   0.75000   0.00000  Uiso   1.00
C813   C     0.90186   0.84814   0.25000   0.00000  Uiso   1.00
C814   C     0.65186   0.90186   0.75000   0.00000  Uiso   1.00
C815   C     0.84814   0.59814   0.25000   0.00000  Uiso   1.00
C816   C     0.90186   0.84814   0.75000   0.00000  Uiso   1.00
C817   C     0.73045   0.97275   0.54202   0.00000  Uiso   1.00
C818   C     0.59814   0.65186   0.25000   0.00000  Uiso   1.00
C819   C     0.84814   0.59814   0.75000   0.00000  Uiso   1.00
C820   C     0.65186   0.90186   0.25000   0.00000  Uiso   1.00
C821   C     0.75000   0.50000   0.10255   0.00000  Uiso   1.00
C822   C     0.75000   0.50000   0.89745   0.00000  Uiso   1.00
C823   C     0.50000   0.75000   0.10255   0.00000  Uiso   1.00
C824   C     0.50000   0.75000   0.89745   0.00000  Uiso   1.00
C825   C     0.50000   0.75000   0.60255   0.00000  Uiso   1.00
C826   C     0.50000   0.75000   0.39745   0.00000  Uiso   1.00
C827   C     0.75000   0.50000   0.60255   0.00000  Uiso   1.00
C828   C     0.73045   0.52725   0.45798   0.00000  Uiso   1.00
C829   C     0.75000   0.50000   0.39745   0.00000  Uiso   1.00
C830   C     0.52725   0.73045   0.54202   0.00000  Uiso   1.00
C831   C     0.97275   0.73045   0.45798   0.00000  Uiso   1.00
C832   C     0.76955   0.52725   0.54202   0.00000  Uiso   1.00
C833   C     0.76955   0.97275   0.45798   0.00000  Uiso   1.00
C834   C     0.72265   0.51843   0.08235   0.00000  Uiso   1.00
C835   C     0.77736   0.51843   0.91765   0.00000  Uiso   1.00
C836   C     0.98158   0.72264   0.08235   0.00000  Uiso   1.00
C837   C     0.77725   0.51955   0.95798   0.00000  Uiso   1.00
C838   C     0.98157   0.77736   0.91765   0.00000  Uiso   1.00
C839   C     0.77736   0.98157   0.08235   0.00000  Uiso   1.00
C840   C     0.72264   0.98158   0.91765   0.00000  Uiso   1.00
C841   C     0.51843   0.77736   0.08235   0.00000  Uiso   1.00
C842   C     0.51843   0.72265   0.91765   0.00000  Uiso   1.00
C843   C     0.97265   0.76843   0.58235   0.00000  Uiso   1.00
C844   C     0.52736   0.76843   0.41765   0.00000  Uiso   1.00
C845   C     0.73158   0.97264   0.58235   0.00000  Uiso   1.00
C846   C     0.73157   0.52736   0.41765   0.00000  Uiso   1.00
C847   C     0.52736   0.73157   0.58235   0.00000  Uiso   1.00
C848   C     0.98045   0.72275   0.04202   0.00000  Uiso   1.00
C849   C     0.97264   0.73158   0.41765   0.00000  Uiso   1.00
C850   C     0.76843   0.52736   0.58235   0.00000  Uiso   1.00
C851   C     0.76843   0.97265   0.41765   0.00000  Uiso   1.00
C852   C     0.75000   0.50000   0.02136   0.00000  Uiso   1.00
C853   C     0.75000   0.50000   0.97864   0.00000  Uiso   1.00
C854   C     0.50000   0.75000   0.02136   0.00000  Uiso   1.00
C855   C     0.50000   0.75000   0.97864   0.00000  Uiso   1.00
C856   C     0.50000   0.75000   0.52136   0.00000  Uiso   1.00
C857   C     0.50000   0.75000   0.47864   0.00000  Uiso   1.00
C858   C     0.75000   0.50000   0.52136   0.00000  Uiso   1.00
C859   C     0.98045   0.77725   0.95798   0.00000  Uiso   1.00
C860   C     0.75000   0.50000   0.47864   0.00000  Uiso   1.00
C861   C     0.75000   0.50000   0.35516   0.00000  Uiso   1.00
C862   C     0.75000   0.50000   0.64484   0.00000  Uiso   1.00
C863   C     0.50000   0.75000   0.35516   0.00000  Uiso   1.00
C864   C     0.50000   0.75000   0.64484   0.00000  Uiso   1.00
C865   C     0.50000   0.75000   0.85516   0.00000  Uiso   1.00
C866   C     0.50000   0.75000   0.14484   0.00000  Uiso   1.00
C867   C     0.75000   0.50000   0.85516   0.00000  Uiso   1.00
C868   C     0.75000   0.50000   0.14484   0.00000  Uiso   1.00
C869   C     0.67992   0.57008   0.25000   0.00000  Uiso   1.00
C870   C     0.77725   0.98045   0.04202   0.00000  Uiso   1.00
C871   C     0.82008   0.92992   0.75000   0.00000  Uiso   1.00
C872   C     0.92992   0.67992   0.25000   0.00000  Uiso   1.00
C873   C     0.57008   0.82008   0.75000   0.00000  Uiso   1.00
C874   C     0.82008   0.92992   0.25000   0.00000  Uiso   1.00
C875   C     0.67992   0.57008   0.75000   0.00000  Uiso   1.00
C876   C     0.57008   0.82008   0.25000   0.00000  Uiso   1.00
C877   C     0.92992   0.67992   0.75000   0.00000  Uiso   1.00
C878   C     0.67992   0.92992   0.75000   0.00000  Uiso   1.00
C879   C     0.82008   0.57008   0.25000   0.00000  Uiso   1.00
C880   C     0.92992   0.82008   0.75000   0.00000  Uiso   1.00
C881   C     0.72275   0.98045   0.95798   0.00000  Uiso   1.00
C882   C     0.57008   0.67992   0.25000   0.00000  Uiso   1.00
C883   C     0.82008   0.57008   0.75000   0.00000  Uiso   1.00
C884   C     0.67992   0.92992   0.25000   0.00000  Uiso   1.00
C885   C     0.57008   0.67992   0.75000   0.00000  Uiso   1.00
C886   C     0.92992   0.82008   0.25000   0.00000  Uiso   1.00
C887   C     0.62184   0.90488   0.22508   0.00000  Uiso   1.00
C888   C     0.87816   0.59512   0.77492   0.00000  Uiso   1.00
C889   C     0.59512   0.62184   0.22508   0.00000  Uiso   1.00
C890   C     0.90488   0.87816   0.77492   0.00000  Uiso   1.00
C891   C     0.87816   0.59512   0.22508   0.00000  Uiso   1.00
C892   C     0.51955   0.77725   0.04202   0.00000  Uiso   1.00
C893   C     0.62184   0.90488   0.77492   0.00000  Uiso   1.00
C894   C     0.90488   0.87816   0.22508   0.00000  Uiso   1.00
C895   C     0.59512   0.62184   0.77492   0.00000  Uiso   1.00
C896   C     0.62184   0.59512   0.77492   0.00000  Uiso   1.00
C897   C     0.87816   0.90488   0.22508   0.00000  Uiso   1.00
C898   C     0.59512   0.87816   0.77492   0.00000  Uiso   1.00
C899   C     0.90488   0.62184   0.22508   0.00000  Uiso   1.00
C900   C     0.87816   0.90488   0.77492   0.00000  Uiso   1.00
C901   C     0.62184   0.59512   0.22508   0.00000  Uiso   1.00
C902   C     0.90488   0.62184   0.77492   0.00000  Uiso   1.00
C903   C     0.51955   0.72275   0.95798   0.00000  Uiso   1.00
C904   C     0.59512   0.87816   0.22508   0.00000  Uiso   1.00
C905   C     0.87184   0.65488   0.72508   0.00000  Uiso   1.00
C906   C     0.62816   0.84512   0.27492   0.00000  Uiso   1.00
C907   C     0.84512   0.87184   0.72508   0.00000  Uiso   1.00
C908   C     0.65488   0.62816   0.27492   0.00000  Uiso   1.00
C909   C     0.62816   0.84512   0.72508   0.00000  Uiso   1.00
C910   C     0.87184   0.65488   0.27492   0.00000  Uiso   1.00
C911   C     0.65488   0.62816   0.72508   0.00000  Uiso   1.00
C912   C     0.84512   0.87184   0.27492   0.00000  Uiso   1.00
C913   C     0.87184   0.84512   0.27492   0.00000  Uiso   1.00
C914   C     0.97275   0.76955   0.54202   0.00000  Uiso   1.00
C915   C     0.62816   0.65488   0.72508   0.00000  Uiso   1.00
C916   C     0.84512   0.62816   0.27492   0.00000  Uiso   1.00
C917   C     0.65488   0.87184   0.72508   0.00000  Uiso   1.00
C918   C     0.62816   0.65488   0.27492   0.00000  Uiso   1.00
C919   C     0.87184   0.84512   0.72508   0.00000  Uiso   1.00
C920   C     0.65488   0.87184   0.27492   0.00000  Uiso   1.00
C921   C     0.84512   0.62816   0.72508   0.00000  Uiso   1.00
C922   C     0.59814   0.84814   0.25000   0.00000  Uiso   1.00
C923   C     0.90186   0.65186   0.75000   0.00000  Uiso   1.00
C924   C     0.65186   0.59814   0.25000   0.00000  Uiso   1.00
H925   H     0.61895   0.92784   0.20559   0.00000  Uiso   1.00
H926   H     0.88104   0.92784   0.20558   0.00000  Uiso   1.00
H927   H     0.57216   0.88105   0.79442   0.00000  Uiso   1.00
H928   H     0.92784   0.61896   0.20558   0.00000  Uiso   1.00
H929   H     0.88105   0.92784   0.79442   0.00000  Uiso   1.00
H930   H     0.61896   0.57216   0.20558   0.00000  Uiso   1.00
H931   H     0.92784   0.61895   0.79442   0.00000  Uiso   1.00
H932   H     0.57216   0.88104   0.20558   0.00000  Uiso   1.00
H933   H     0.86895   0.67784   0.70559   0.00000  Uiso   1.00
H934   H     0.63104   0.82216   0.29442   0.00000  Uiso   1.00
H935   H     0.82216   0.86895   0.70559   0.00000  Uiso   1.00
H936   H     0.88104   0.57216   0.79442   0.00000  Uiso   1.00
H937   H     0.67784   0.63104   0.29442   0.00000  Uiso   1.00
H938   H     0.63105   0.82216   0.70559   0.00000  Uiso   1.00
H939   H     0.86896   0.67784   0.29442   0.00000  Uiso   1.00
H940   H     0.67784   0.63105   0.70559   0.00000  Uiso   1.00
H941   H     0.82216   0.86896   0.29442   0.00000  Uiso   1.00
H942   H     0.86895   0.82216   0.29442   0.00000  Uiso   1.00
H943   H     0.63104   0.67784   0.70558   0.00000  Uiso   1.00
H944   H     0.82216   0.63105   0.29442   0.00000  Uiso   1.00
H945   H     0.67784   0.86896   0.70558   0.00000  Uiso   1.00
H946   H     0.63105   0.67784   0.29442   0.00000  Uiso   1.00
H947   H     0.57216   0.61895   0.20559   0.00000  Uiso   1.00
H948   H     0.86896   0.82216   0.70558   0.00000  Uiso   1.00
H949   H     0.67784   0.86895   0.29442   0.00000  Uiso   1.00
H950   H     0.82216   0.63104   0.70558   0.00000  Uiso   1.00
H951   H     0.70162   0.53303   0.09803   0.00000  Uiso   1.00
H952   H     0.79838   0.53303   0.90197   0.00000  Uiso   1.00
H953   H     0.96697   0.70162   0.09803   0.00000  Uiso   1.00
H954   H     0.96697   0.79838   0.90197   0.00000  Uiso   1.00
H955   H     0.79838   0.96697   0.09803   0.00000  Uiso   1.00
H956   H     0.70162   0.96697   0.90197   0.00000  Uiso   1.00
H957   H     0.53303   0.79838   0.09803   0.00000  Uiso   1.00
H958   H     0.92784   0.88104   0.79442   0.00000  Uiso   1.00
H959   H     0.53303   0.70162   0.90197   0.00000  Uiso   1.00
H960   H     0.95162   0.78303   0.59803   0.00000  Uiso   1.00
H961   H     0.54838   0.78303   0.40197   0.00000  Uiso   1.00
H962   H     0.71697   0.95162   0.59803   0.00000  Uiso   1.00
H963   H     0.71697   0.54838   0.40197   0.00000  Uiso   1.00
H964   H     0.54838   0.71697   0.59803   0.00000  Uiso   1.00
H965   H     0.95162   0.71697   0.40197   0.00000  Uiso   1.00
H966   H     0.78303   0.54838   0.59803   0.00000  Uiso   1.00
H967   H     0.78303   0.95162   0.40197   0.00000  Uiso   1.00
H968   H     0.70110   0.54277   0.99640   0.00000  Uiso   1.00
H969   H     0.88105   0.57216   0.20559   0.00000  Uiso   1.00
H970   H     0.79890   0.54277   0.00360   0.00000  Uiso   1.00
H971   H     0.95723   0.70110   0.99640   0.00000  Uiso   1.00
H972   H     0.95723   0.79890   0.00360   0.00000  Uiso   1.00
H973   H     0.79890   0.95723   0.99640   0.00000  Uiso   1.00
H974   H     0.70110   0.95723   0.00360   0.00000  Uiso   1.00
H975   H     0.54277   0.79890   0.99640   0.00000  Uiso   1.00
H976   H     0.54277   0.70110   0.00360   0.00000  Uiso   1.00
H977   H     0.95110   0.79277   0.49640   0.00000  Uiso   1.00
H978   H     0.54890   0.79277   0.50360   0.00000  Uiso   1.00
H979   H     0.70723   0.95110   0.49640   0.00000  Uiso   1.00
H980   H     0.61896   0.92784   0.79442   0.00000  Uiso   1.00
H981   H     0.70723   0.54890   0.50360   0.00000  Uiso   1.00
H982   H     0.54890   0.70723   0.49640   0.00000  Uiso   1.00
H983   H     0.95110   0.70723   0.50360   0.00000  Uiso   1.00
H984   H     0.79277   0.54890   0.49640   0.00000  Uiso   1.00
H985   H     0.79277   0.95110   0.50360   0.00000  Uiso   1.00
H986   H     0.92784   0.88105   0.20559   0.00000  Uiso   1.00
H987   H     0.57216   0.61896   0.79442   0.00000  Uiso   1.00
H988   H     0.61895   0.57216   0.79442   0.00000  Uiso   1.00
O989   O     0.75000   0.50000   0.25000   0.00000  Uiso   1.00
O990   O     0.75000   0.96964   0.66317   0.00000  Uiso   1.00
O991   O     0.96964   0.75000   0.33683   0.00000  Uiso   1.00
O992   O     0.53036   0.75000   0.66317   0.00000  Uiso   1.00
O993   O     0.50000   0.71964   0.83683   0.00000  Uiso   1.00
O994   O     0.50000   0.78036   0.16317   0.00000  Uiso   1.00
O995   O     0.78036   0.50000   0.83683   0.00000  Uiso   1.00
O996   O     0.71964   0.50000   0.16317   0.00000  Uiso   1.00
O997   O     0.50000   0.78036   0.83683   0.00000  Uiso   1.00
O998   O     0.50000   0.71964   0.16317   0.00000  Uiso   1.00
O999   O     0.71964   0.50000   0.83683   0.00000  Uiso   1.00
O1000  O     0.75000   0.50000   0.75000   0.00000  Uiso   1.00
O1001  O     0.78036   0.50000   0.16317   0.00000  Uiso   1.00
O1002  O     0.70726   0.57307   0.27282   0.00000  Uiso   1.00
O1003  O     0.79275   0.92693   0.72718   0.00000  Uiso   1.00
O1004  O     0.92693   0.70726   0.27282   0.00000  Uiso   1.00
O1005  O     0.57307   0.79275   0.72718   0.00000  Uiso   1.00
O1006  O     0.79275   0.92693   0.27282   0.00000  Uiso   1.00
O1007  O     0.70726   0.57307   0.72718   0.00000  Uiso   1.00
O1008  O     0.57307   0.79275   0.27282   0.00000  Uiso   1.00
O1009  O     0.92693   0.70726   0.72718   0.00000  Uiso   1.00
O1010  O     0.70726   0.92693   0.72718   0.00000  Uiso   1.00
O1011  O     0.50000   0.75000   0.25000   0.00000  Uiso   1.00
O1012  O     0.79275   0.57307   0.27282   0.00000  Uiso   1.00
O1013  O     0.92693   0.79275   0.72718   0.00000  Uiso   1.00
O1014  O     0.57307   0.70726   0.27282   0.00000  Uiso   1.00
O1015  O     0.79275   0.57307   0.72718   0.00000  Uiso   1.00
O1016  O     0.70726   0.92693   0.27282   0.00000  Uiso   1.00
O1017  O     0.57307   0.70726   0.72718   0.00000  Uiso   1.00
O1018  O     0.92693   0.79275   0.27282   0.00000  Uiso   1.00
O1019  O     0.95726   0.82307   0.77282   0.00000  Uiso   1.00
O1020  O     0.54275   0.67693   0.22718   0.00000  Uiso   1.00
O1021  O     0.67693   0.95726   0.77282   0.00000  Uiso   1.00
O1022  O     0.50000   0.75000   0.75000   0.00000  Uiso   1.00
O1023  O     0.82307   0.54275   0.22718   0.00000  Uiso   1.00
O1024  O     0.54275   0.67693   0.77282   0.00000  Uiso   1.00
O1025  O     0.95726   0.82307   0.22718   0.00000  Uiso   1.00
O1026  O     0.82307   0.54275   0.77282   0.00000  Uiso   1.00
O1027  O     0.67693   0.95726   0.22718   0.00000  Uiso   1.00
O1028  O     0.95726   0.67693   0.22718   0.00000  Uiso   1.00
O1029  O     0.54275   0.82307   0.77282   0.00000  Uiso   1.00
O1030  O     0.67693   0.54275   0.22718   0.00000  Uiso   1.00
O1031  O     0.82307   0.95726   0.77282   0.00000  Uiso   1.00
O1032  O     0.54275   0.82307   0.22718   0.00000  Uiso   1.00
O1033  O     0.75000   0.96964   0.33683   0.00000  Uiso   1.00
O1034  O     0.95726   0.67693   0.77282   0.00000  Uiso   1.00
O1035  O     0.82307   0.95726   0.22718   0.00000  Uiso   1.00
O1036  O     0.67693   0.54275   0.77282   0.00000  Uiso   1.00
O1037  O     0.69582   0.54000   0.02434   0.00000  Uiso   1.00
O1038  O     0.80418   0.53999   0.97566   0.00000  Uiso   1.00
O1039  O     0.96001   0.69582   0.02434   0.00000  Uiso   1.00
O1040  O     0.96000   0.80418   0.97566   0.00000  Uiso   1.00
O1041  O     0.80418   0.96000   0.02434   0.00000  Uiso   1.00
O1042  O     0.69582   0.96001   0.97566   0.00000  Uiso   1.00
O1043  O     0.53999   0.80418   0.02434   0.00000  Uiso   1.00
O1044  O     0.75000   0.53036   0.66317   0.00000  Uiso   1.00
O1045  O     0.54000   0.69582   0.97566   0.00000  Uiso   1.00
O1046  O     0.94582   0.79000   0.52434   0.00000  Uiso   1.00
O1047  O     0.55418   0.78999   0.47566   0.00000  Uiso   1.00
O1048  O     0.71001   0.94582   0.52434   0.00000  Uiso   1.00
O1049  O     0.71000   0.55418   0.47566   0.00000  Uiso   1.00
O1050  O     0.55418   0.71000   0.52434   0.00000  Uiso   1.00
O1051  O     0.94582   0.71001   0.47566   0.00000  Uiso   1.00
O1052  O     0.78999   0.55418   0.52434   0.00000  Uiso   1.00
O1053  O     0.79000   0.94582   0.47566   0.00000  Uiso   1.00
O1054  O     0.53036   0.75000   0.33683   0.00000  Uiso   1.00
O1055  O     0.96964   0.75000   0.66317   0.00000  Uiso   1.00
O1056  O     0.75000   0.53036   0.33683   0.00000  Uiso   1.00
Zn1057 Zn    0.70660   0.50000   0.21760   0.00000  Uiso   1.00
Zn1058 Zn    0.54340   0.75000   0.28240   0.00000  Uiso   1.00
Zn1059 Zn    0.75000   0.95660   0.71760   0.00000  Uiso   1.00
Zn1060 Zn    0.75000   0.54340   0.28240   0.00000  Uiso   1.00
Zn1061 Zn    0.54340   0.75000   0.71760   0.00000  Uiso   1.00
Zn1062 Zn    0.95660   0.75000   0.28240   0.00000  Uiso   1.00
Zn1063 Zn    0.75000   0.54340   0.71760   0.00000  Uiso   1.00
Zn1064 Zn    0.75000   0.95660   0.28240   0.00000  Uiso   1.00
Zn1065 Zn    0.79340   0.50000   0.78240   0.00000  Uiso   1.00
Zn1066 Zn    0.50000   0.70660   0.21760   0.00000  Uiso   1.00
Zn1067 Zn    0.50000   0.79340   0.78240   0.00000  Uiso   1.00
Zn1068 Zn    0.79340   0.50000   0.21760   0.00000  Uiso   1.00
Zn1069 Zn    0.70660   0.50000   0.78240   0.00000  Uiso   1.00
Zn1070 Zn    0.50000   0.79340   0.21760   0.00000  Uiso   1.00
Zn1071 Zn    0.50000   0.70660   0.78240   0.00000  Uiso   1.00
Zn1072 Zn    0.95660   0.75000   0.71760   0.00000  Uiso   1.00
loop_
_geom_bond_atom_site_label_1
_geom_bond_atom_site_label_2
_geom_bond_distance
_geom_bond_site_symmetry_2
_ccdc_geom_bond_type
C1     O233    1.383   .     S
C1     C48     1.422   .     A
C1     C30     1.392   .     A
C2     O243    1.383   .     S
C2     C53     1.422   .     A
C2     C40     1.392   .     A
C3     C96     1.402   .     A
C3     C103    1.402   .     A
C3     C67     1.456   .     S
C4     C68     1.456   .     S
C4     C106    1.402   .     A
C4     C95     1.402   .     A
C5     C94     1.402   .     A
C5     C69     1.456   .     S
C5     C105    1.402   .     A
C6     C93     1.402   .     A
C6     C70     1.456   .     S
C6     C108    1.402   .     A
C7     C71     1.456   .     S
C7     C92     1.402   .     A
C7     C107    1.402   .     A
C8     C81     1.456   .     S
C8     C91     1.402   .     A
C8     C111    1.402   .     A
C9     C109    1.402   .     A
C9     C90     1.402   .     A
C9     C82     1.456   .     S
C10    C89     1.402   .     A
C10    C113    1.402   .     A
C10    C74     1.456   .     S
C11    C87     1.402   .     A
C11    C75     1.456   .     S
C11    C112    1.402   .     A
C12    C115    1.402   .     A
C12    C76     1.456   .     S
C12    C86     1.402   .     A
C13    C41     1.392   .     A
C13    O244    1.383   .     S
C13    C590    1.422   .     A
C14    C114    1.402   .     A
C14    C85     1.402   .     A
C14    C78     1.456   .     S
C15    C79     1.456   .     S
C15    C117    1.402   .     A
C15    C84     1.402   .     A
C16    C116    1.402   .     A
C16    C83     1.402   .     A
C16    C80     1.456   .     S
C17    C571    1.397   1_545 A
C17    C30     1.397   .     S
C17    C64     1.459   .     S
C18    C63     1.459   .     S
C18    C31     1.397   .     A
C18    C572    1.397   1_545 S
C19    C300    1.397   1_455 A
C19    C37     1.397   .     S
C19    C62     1.459   .     S
C20    C38     1.397   .     A
C20    C302    1.397   1_455 S
C20    C61     1.459   .     S
C21    C43     1.397   .     A
C21    C60     1.459   .     S
C21    C307    1.397   1_455 S
C22    C40     1.397   .     A
C22    C313    1.397   1_455 S
C22    C59     1.459   .     S
C23    C577    1.397   1_545 A
C23    C58     1.459   .     S
C23    C46     1.397   .     S
C24    C42     1.392   .     A
C24    O245    1.383   .     S
C24    C56     1.422   .     S
C25    C583    1.397   1_545 A
C25    C42     1.397   .     S
C25    C57     1.459   .     S
C26    C43     1.392   .     A
C26    C52     1.422   .     A
C26    O246    1.383   .     S
C27    O247    1.383   .     S
C27    C45     1.392   .     A
C27    C321    1.422   .     S
C28    C46     1.392   .     A
C28    O248    1.383   .     S
C28    C54     1.422   .     S
C29    C47     1.392   .     A
C29    O249    1.383   .     S
C29    C592    1.422   .     A
C30    H147    1.084   .     S
C31    C33     1.392   .     A
C31    H148    1.084   .     S
C32    H149    1.084   .     S
C32    C44     1.392   .     A
C32    C287    1.397   .     A
C33    O234    1.383   .     S
C33    C49     1.422   .     S
C34    H150    1.084   .     S
C34    C55     1.392   .     A
C34    C288    1.397   .     S
C35    H151    1.084   .     S
C35    C66     1.392   .     A
C35    C553    1.397   .     A
C36    C77     1.392   .     A
C36    H152    1.084   .     S
C36    C554    1.397   .     S
C37    C88     1.392   .     A
C37    H153    1.084   .     S
C38    H155    1.084   .     S
C38    C99     1.392   .     A
C39    C110    1.392   .     A
C39    H156    1.084   .     S
C39    C289    1.397   .     S
C40    H157    1.084   .     S
C41    C559    1.397   .     A
C41    H158    1.084   .     S
C42    H159    1.084   .     S
C43    H160    1.084   .     S
C44    C318    1.422   .     A
C44    O235    1.383   .     S
C45    H161    1.084   .     S
C45    C290    1.397   .     S
C46    H162    1.084   .     S
C47    H163    1.084   .     S
C47    C561    1.397   .     A
C48    C49     1.473   1_554 S
C48    C602    1.422   1_545 S
C49    C613    1.422   1_545 A
C49    C48     1.473   1_556 S
C50    C312    1.422   1_455 A
C50    C51     1.473   1_554 S
C50    C88     1.422   .     S
C51    C99     1.422   .     A
C51    C50     1.473   1_556 S
C51    C323    1.422   1_455 S
C52    C53     1.473   .     S
C52    C378    1.422   1_455 S
C53    C295    1.422   1_455 S
C54    C56     1.473   .     S
C54    C549    1.422   1_545 A
C55    O236    1.383   .     S
C55    C319    1.422   .     S
C56    C565    1.422   1_545 A
C57    O252    1.281   .     A
C57    O765    1.281   1_545 S
C58    O722    1.281   1_545 A
C58    O240    1.281   .     S
C59    O455    1.281   1_455 A
C59    O250    1.281   .     S
C60    O188    1.281   .     A
C60    O519    1.281   1_455 S
C61    O189    1.281   .     S
C61    O193    1.281   .     S
C62    O190    1.281   .     A
C62    O194    1.281   .     A
C63    O195    1.281   .     A
C63    O191    1.281   .     A
C64    O192    1.281   .     A
C64    O197    1.281   .     A
C65    O198    1.280   .     A
C65    C120    1.456   .     S
C65    O226    1.280   .     A
C66    O237    1.383   .     S
C66    C584    1.422   .     S
C67    O227    1.280   .     A
C67    O199    1.280   .     A
C68    O224    1.280   .     A
C68    O200    1.280   .     A
C69    O201    1.280   .     A
C69    O225    1.280   .     A
C70    O231    1.280   .     A
C70    O202    1.280   .     A
C71    O203    1.280   .     A
C71    O232    1.280   .     A
C72    O228    1.280   .     A
C72    O204    1.280   .     A
C72    C118    1.456   .     S
C73    C119    1.456   .     S
C73    O230    1.280   .     A
C73    O205    1.280   .     A
C74    O206    1.280   .     A
C74    O217    1.280   .     A
C75    O219    1.280   .     A
C75    O208    1.280   .     A
C76    O215    1.280   .     A
C76    O209    1.280   .     A
C77    O238    1.383   .     S
C77    C585    1.422   .     A
C78    O210    1.280   .     A
C78    O216    1.280   .     A
C79    O222    1.280   .     A
C79    O211    1.280   .     A
C80    O212    1.280   .     A
C80    O223    1.280   .     A
C81    O220    1.280   .     A
C81    O213    1.280   .     A
C82    O221    1.280   .     A
C82    O214    1.280   .     A
C83    H121    1.083   .     S
C83    C100    1.387   .     A
C84    C98     1.387   .     A
C84    H132    1.083   .     S
C85    H143    1.083   .     S
C85    C97     1.387   .     A
C86    C96     1.387   .     A
C86    H154    1.083   .     S
C87    C95     1.387   .     A
C87    H165    1.083   .     S
C88    O239    1.383   .     S
C89    C94     1.387   .     A
C89    H176    1.083   .     S
C90    H182    1.083   .     S
C90    C93     1.387   .     A
C91    H183    1.083   .     S
C91    C92     1.387   .     A
C92    H184    1.083   .     S
C93    H122    1.083   .     S
C94    H123    1.083   .     S
C95    H124    1.083   .     S
C96    H125    1.083   .     S
C97    H126    1.083   .     S
C97    C120    1.402   .     A
C98    C119    1.402   .     A
C98    H127    1.083   .     S
C99    O241    1.383   .     S
C100   H128    1.083   .     S
C100   C118    1.402   .     A
C101   C119    1.402   .     A
C101   C117    1.387   .     A
C101   H129    1.083   .     S
C102   C118    1.402   .     A
C102   C116    1.387   .     A
C102   H130    1.083   .     S
C103   C115    1.387   .     A
C103   H131    1.083   .     S
C104   C120    1.402   .     A
C104   H133    1.083   .     S
C104   C114    1.387   .     A
C105   C113    1.387   .     A
C105   H134    1.083   .     S
C106   C112    1.387   .     A
C106   H135    1.083   .     S
C107   H136    1.083   .     S
C107   C111    1.387   .     A
C108   C109    1.387   .     A
C108   H137    1.083   .     S
C109   H138    1.083   .     S
C110   O242    1.383   .     S
C110   C320    1.422   .     S
C111   H139    1.083   .     S
C112   H140    1.083   .     S
C113   H141    1.083   .     S
C114   H142    1.083   .     S
C115   H144    1.083   .     S
C116   H145    1.083   .     S
C117   H146    1.083   .     S
H164   O233    0.988   1_556 S
H166   O234    0.988   1_554 S
H167   O235    0.988   1_556 S
H168   O236    0.988   1_554 S
H169   O237    0.988   1_556 S
H170   O238    0.988   1_554 S
H171   O239    0.988   1_556 S
H172   O241    0.988   1_554 S
H173   O242    0.988   .     S
H174   O243    0.988   .     S
H175   O244    0.988   .     S
H177   O245    0.988   .     S
H178   O246    0.988   .     S
H179   O247    0.988   .     S
H180   O248    0.988   .     S
H181   O249    0.988   .     S
O185   Zn256   1.946   .     S
O185   Zn253   1.946   .     S
O185   Zn264   1.946   .     S
O185   Zn796   1.946   1_545 S
O186   C594    1.281   .     A
O186   Zn255   1.937   .     S
O187   Zn258   1.937   .     S
O187   C327    1.281   .     A
O188   Zn257   1.937   .     S
O189   Zn267   1.937   .     S
O190   Zn266   1.937   .     S
O191   Zn261   1.937   .     S
O192   Zn253   1.937   .     S
O193   Zn263   1.937   .     S
O194   Zn262   1.937   .     S
O195   Zn265   1.937   .     S
O196   Zn261   1.946   .     S
O196   Zn265   1.946   .     S
O196   Zn259   1.946   .     S
O196   Zn791   1.946   1_545 S
O197   Zn264   1.937   .     S
O198   Zn256   1.938   .     S
O199   Zn255   1.938   .     S
O200   Zn258   1.938   .     S
O201   Zn257   1.938   .     S
O202   Zn260   1.938   .     S
O203   Zn259   1.938   .     S
O204   Zn254   1.938   .     S
O205   Zn268   1.938   .     S
O206   Zn255   1.938   .     S
O207   Zn254   1.946   .     S
O207   Zn266   1.946   .     S
O207   Zn262   1.946   .     S
O207   Zn526   1.946   1_455 S
O208   Zn256   1.938   .     S
O209   Zn268   1.938   .     S
O210   Zn254   1.938   .     S
O211   Zn259   1.938   .     S
O212   Zn260   1.938   .     S
O213   Zn257   1.938   .     S
O214   Zn258   1.938   .     S
O215   Zn531   1.938   .     S
O216   Zn262   1.938   .     S
O217   Zn801   1.938   .     S
O218   Zn263   1.946   .     S
O218   Zn267   1.946   .     S
O218   Zn257   1.946   .     S
O218   Zn536   1.946   1_455 S
O219   Zn264   1.938   .     S
O220   Zn267   1.938   .     S
O221   Zn534   1.938   .     S
O222   Zn261   1.938   .     S
O223   Zn789   1.938   .     S
O224   Zn530   1.938   .     S
O225   Zn263   1.938   .     S
O226   Zn253   1.938   .     S
O227   Zn797   1.938   .     S
O228   Zn266   1.938   .     S
O229   Zn260   1.937   .     S
O229   C593    1.281   .     S
O230   Zn535   1.938   .     S
O231   Zn800   1.938   .     S
O232   Zn265   1.938   .     S
O233   H164    0.988   1_554 S
O234   H166    0.988   1_556 S
O235   H167    0.988   1_554 S
O236   H168    0.988   1_556 S
O237   H169    0.988   1_554 S
O238   H170    0.988   1_556 S
O239   H171    0.988   1_554 S
O240   Zn259   1.937   .     S
O241   H172    0.988   1_556 S
O250   Zn254   1.937   .     S
O251   Zn268   1.937   .     S
O251   C328    1.281   .     S
O252   Zn256   1.937   .     S
Zn253  O759    1.938   1_545 S
Zn255  O732    1.946   .     S
Zn258  O475    1.946   .     S
Zn260  O721    1.946   .     S
Zn261  O763    1.938   1_545 S
Zn262  O492    1.938   1_455 S
Zn263  O483    1.938   1_455 S
Zn264  O767    1.938   1_545 S
Zn265  O753    1.938   1_545 S
Zn266  O489    1.938   1_455 S
Zn267  O498    1.938   1_455 S
Zn268  O486    1.946   .     S
C269   O501    1.383   .     S
C269   C316    1.422   .     A
C269   C298    1.392   .     A
C270   O511    1.383   .     S
C270   C321    1.422   .     A
C270   C308    1.392   .     A
C271   C364    1.402   .     A
C271   C371    1.402   .     A
C271   C335    1.456   .     S
C272   C336    1.456   .     S
C272   C374    1.402   .     A
C272   C363    1.402   .     A
C273   C362    1.402   .     A
C273   C337    1.456   .     S
C273   C373    1.402   .     A
C274   C361    1.402   .     A
C274   C338    1.456   .     S
C274   C376    1.402   .     A
C275   C339    1.456   .     S
C275   C360    1.402   .     A
C275   C375    1.402   .     A
C276   C349    1.456   .     S
C276   C359    1.402   .     A
C276   C379    1.402   .     A
C277   C377    1.402   .     A
C277   C358    1.402   .     A
C277   C350    1.456   .     S
C278   C357    1.402   .     A
C278   C381    1.402   .     A
C278   C342    1.456   .     S
C279   C355    1.402   .     A
C279   C343    1.456   .     S
C279   C380    1.402   .     A
C280   C383    1.402   .     A
C280   C344    1.456   .     S
C280   C354    1.402   .     A
C281   C309    1.392   .     A
C281   O512    1.383   .     S
C281   C858    1.422   .     A
C282   C382    1.402   .     A
C282   C353    1.402   .     A
C282   C346    1.456   .     S
C283   C347    1.456   .     S
C283   C385    1.402   .     A
C283   C352    1.402   .     A
C284   C384    1.402   .     A
C284   C351    1.402   .     A
C284   C348    1.456   .     S
C285   C839    1.397   1_545 A
C285   C298    1.397   .     S
C285   C332    1.459   .     S
C286   C331    1.459   .     S
C286   C299    1.397   .     A
C286   C840    1.397   1_545 S
C287   C305    1.397   .     S
C287   C330    1.459   .     S
C288   C306    1.397   .     A
C288   C329    1.459   .     S
C289   C311    1.397   .     A
C289   C328    1.459   .     S
C290   C308    1.397   .     A
C290   C327    1.459   .     S
C291   C845    1.397   1_545 A
C291   C326    1.459   .     S
C291   C314    1.397   .     S
C292   C310    1.392   .     A
C292   O513    1.383   .     S
C292   C324    1.422   .     S
C293   C851    1.397   1_545 A
C293   C310    1.397   .     S
C293   C325    1.459   .     S
C294   C311    1.392   .     A
C294   C320    1.422   .     A
C294   O514    1.383   .     S
C295   O515    1.383   .     S
C295   C313    1.392   .     A
C295   C53     1.422   1_655 S
C296   C314    1.392   .     A
C296   O516    1.383   .     S
C296   C322    1.422   .     S
C297   C315    1.392   .     A
C297   O517    1.383   .     S
C297   C860    1.422   .     A
C298   H415    1.084   .     S
C299   C301    1.392   .     A
C299   H416    1.084   .     S
C300   H417    1.084   .     S
C300   C312    1.392   .     A
C300   C19     1.397   1_655 A
C301   O502    1.383   .     S
C301   C317    1.422   .     S
C302   H418    1.084   .     S
C302   C323    1.392   .     A
C302   C20     1.397   1_655 S
C303   H419    1.084   .     S
C303   C334    1.392   .     A
C303   C821    1.397   .     A
C304   C345    1.392   .     A
C304   H420    1.084   .     S
C304   C822    1.397   .     S
C305   C356    1.392   .     A
C305   H421    1.084   .     S
C306   H423    1.084   .     S
C306   C367    1.392   .     A
C307   C378    1.392   .     A
C307   H424    1.084   .     S
C307   C21     1.397   1_655 S
C308   H425    1.084   .     S
C309   C827    1.397   .     A
C309   H426    1.084   .     S
C310   H427    1.084   .     S
C311   H428    1.084   .     S
C312   C50     1.422   1_655 A
C312   O503    1.383   .     S
C313   H429    1.084   .     S
C313   C22     1.397   1_655 S
C314   H430    1.084   .     S
C315   H431    1.084   .     S
C315   C829    1.397   .     A
C316   C317    1.473   1_554 S
C316   C870    1.422   1_545 S
C317   C881    1.422   1_545 A
C317   C316    1.473   1_556 S
C318   C319    1.473   1_554 S
C318   C356    1.422   .     S
C319   C367    1.422   .     A
C319   C318    1.473   1_556 S
C320   C321    1.473   .     S
C322   C324    1.473   .     S
C322   C817    1.422   1_545 A
C323   O504    1.383   .     S
C323   C51     1.422   1_655 S
C324   C833    1.422   1_545 A
C325   O520    1.281   .     A
C325   O1033   1.281   1_545 S
C326   O990    1.281   1_545 A
C326   O508    1.281   .     S
C327   O518    1.281   .     S
C328   O456    1.281   .     A
C329   O457    1.281   .     S
C329   O461    1.281   .     S
C330   O458    1.281   .     A
C330   O462    1.281   .     A
C331   O463    1.281   .     A
C331   O459    1.281   .     A
C332   O460    1.281   .     A
C332   O465    1.281   .     A
C333   O466    1.280   .     A
C333   C388    1.456   .     S
C333   O494    1.280   .     A
C334   O505    1.383   .     S
C334   C852    1.422   .     S
C335   O495    1.280   .     A
C335   O467    1.280   .     A
C336   O492    1.280   .     A
C336   O468    1.280   .     A
C337   O469    1.280   .     A
C337   O493    1.280   .     A
C338   O499    1.280   .     A
C338   O470    1.280   .     A
C339   O471    1.280   .     A
C339   O500    1.280   .     A
C340   O496    1.280   .     A
C340   O472    1.280   .     A
C340   C386    1.456   .     S
C341   C387    1.456   .     S
C341   O498    1.280   .     A
C341   O473    1.280   .     A
C342   O474    1.280   .     A
C342   O485    1.280   .     A
C343   O487    1.280   .     A
C343   O476    1.280   .     A
C344   O483    1.280   .     A
C344   O477    1.280   .     A
C345   O506    1.383   .     S
C345   C853    1.422   .     A
C346   O478    1.280   .     A
C346   O484    1.280   .     A
C347   O490    1.280   .     A
C347   O479    1.280   .     A
C348   O480    1.280   .     A
C348   O491    1.280   .     A
C349   O488    1.280   .     A
C349   O481    1.280   .     A
C350   O489    1.280   .     A
C350   O482    1.280   .     A
C351   H389    1.083   .     S
C351   C368    1.387   .     A
C352   C366    1.387   .     A
C352   H400    1.083   .     S
C353   H411    1.083   .     S
C353   C365    1.387   .     A
C354   C364    1.387   .     A
C354   H422    1.083   .     S
C355   C363    1.387   .     A
C355   H433    1.083   .     S
C356   O507    1.383   .     S
C357   C362    1.387   .     A
C357   H444    1.083   .     S
C358   H450    1.083   .     S
C358   C361    1.387   .     A
C359   H451    1.083   .     S
C359   C360    1.387   .     A
C360   H452    1.083   .     S
C361   H390    1.083   .     S
C362   H391    1.083   .     S
C363   H392    1.083   .     S
C364   H393    1.083   .     S
C365   H394    1.083   .     S
C365   C388    1.402   .     A
C366   C387    1.402   .     A
C366   H395    1.083   .     S
C367   O509    1.383   .     S
C368   H396    1.083   .     S
C368   C386    1.402   .     A
C369   C387    1.402   .     A
C369   C385    1.387   .     A
C369   H397    1.083   .     S
C370   C386    1.402   .     A
C370   C384    1.387   .     A
C370   H398    1.083   .     S
C371   C383    1.387   .     A
C371   H399    1.083   .     S
C372   C388    1.402   .     A
C372   H401    1.083   .     S
C372   C382    1.387   .     A
C373   C381    1.387   .     A
C373   H402    1.083   .     S
C374   C380    1.387   .     A
C374   H403    1.083   .     S
C375   H404    1.083   .     S
C375   C379    1.387   .     A
C376   C377    1.387   .     A
C376   H405    1.083   .     S
C377   H406    1.083   .     S
C378   O510    1.383   .     S
C378   C52     1.422   1_655 S
C379   H407    1.083   .     S
C380   H408    1.083   .     S
C381   H409    1.083   .     S
C382   H410    1.083   .     S
C383   H412    1.083   .     S
C384   H413    1.083   .     S
C385   H414    1.083   .     S
H432   O501    0.988   1_556 S
H434   O502    0.988   1_554 S
H435   O503    0.988   1_556 S
H436   O504    0.988   1_554 S
H437   O505    0.988   1_556 S
H438   O506    0.988   1_554 S
H439   O507    0.988   1_556 S
H440   O509    0.988   1_554 S
H441   O510    0.988   .     S
H442   O511    0.988   .     S
H443   O512    0.988   .     S
H445   O513    0.988   .     S
H446   O514    0.988   .     S
H447   O515    0.988   .     S
H448   O516    0.988   .     S
H449   O517    0.988   .     S
O453   Zn524   1.946   .     S
O453   Zn521   1.946   .     S
O453   Zn532   1.946   .     S
O453   Zn1064  1.946   1_545 S
O454   C862    1.281   .     A
O454   Zn523   1.937   .     S
O455   Zn526   1.937   .     S
O455   C59     1.281   1_655 A
O456   Zn525   1.937   .     S
O457   Zn535   1.937   .     S
O458   Zn534   1.937   .     S
O459   Zn529   1.937   .     S
O460   Zn521   1.937   .     S
O461   Zn531   1.937   .     S
O462   Zn530   1.937   .     S
O463   Zn533   1.937   .     S
O464   Zn529   1.946   .     S
O464   Zn533   1.946   .     S
O464   Zn527   1.946   .     S
O464   Zn1059  1.946   1_545 S
O465   Zn532   1.937   .     S
O466   Zn524   1.938   .     S
O467   Zn523   1.938   .     S
O468   Zn526   1.938   .     S
O469   Zn525   1.938   .     S
O470   Zn528   1.938   .     S
O471   Zn527   1.938   .     S
O472   Zn522   1.938   .     S
O473   Zn536   1.938   .     S
O474   Zn523   1.938   .     S
O475   Zn522   1.946   .     S
O475   Zn534   1.946   .     S
O475   Zn530   1.946   .     S
O476   Zn524   1.938   .     S
O477   Zn536   1.938   .     S
O478   Zn522   1.938   .     S
O479   Zn527   1.938   .     S
O480   Zn528   1.938   .     S
O481   Zn525   1.938   .     S
O482   Zn526   1.938   .     S
O483   Zn263   1.938   1_655 S
O484   Zn530   1.938   .     S
O485   Zn1069  1.938   .     S
O486   Zn531   1.946   .     S
O486   Zn535   1.946   .     S
O486   Zn525   1.946   .     S
O487   Zn532   1.938   .     S
O488   Zn535   1.938   .     S
O489   Zn266   1.938   1_655 S
O490   Zn529   1.938   .     S
O491   Zn1057  1.938   .     S
O492   Zn262   1.938   1_655 S
O493   Zn531   1.938   .     S
O494   Zn521   1.938   .     S
O495   Zn1065  1.938   .     S
O496   Zn534   1.938   .     S
O497   Zn528   1.937   .     S
O497   C861    1.281   .     S
O498   Zn267   1.938   1_655 S
O499   Zn1068  1.938   .     S
O500   Zn533   1.938   .     S
O501   H432    0.988   1_554 S
O502   H434    0.988   1_556 S
O503   H435    0.988   1_554 S
O504   H436    0.988   1_556 S
O505   H437    0.988   1_554 S
O506   H438    0.988   1_556 S
O507   H439    0.988   1_554 S
O508   Zn527   1.937   .     S
O509   H440    0.988   1_556 S
O518   Zn522   1.937   .     S
O519   Zn536   1.937   .     S
O519   C60     1.281   1_655 S
O520   Zn524   1.937   .     S
Zn521  O1027   1.938   1_545 S
Zn523  O1000   1.946   .     S
Zn526  O207    1.946   1_655 S
Zn528  O989    1.946   .     S
Zn529  O1031   1.938   1_545 S
Zn532  O1035   1.938   1_545 S
Zn533  O1021   1.938   1_545 S
Zn536  O218    1.946   1_655 S
C537   O769    1.383   .     S
C537   C584    1.422   .     A
C537   C566    1.392   .     A
C538   O779    1.383   .     S
C538   C589    1.422   .     A
C538   C576    1.392   .     A
C539   C632    1.402   .     A
C539   C639    1.402   .     A
C539   C603    1.456   .     S
C540   C604    1.456   .     S
C540   C642    1.402   .     A
C540   C631    1.402   .     A
C541   C630    1.402   .     A
C541   C605    1.456   .     S
C541   C641    1.402   .     A
C542   C629    1.402   .     A
C542   C606    1.456   .     S
C542   C644    1.402   .     A
C543   C607    1.456   .     S
C543   C628    1.402   .     A
C543   C643    1.402   .     A
C544   C617    1.456   .     S
C544   C627    1.402   .     A
C544   C647    1.402   .     A
C545   C645    1.402   .     A
C545   C626    1.402   .     A
C545   C618    1.456   .     S
C546   C625    1.402   .     A
C546   C649    1.402   .     A
C546   C610    1.456   .     S
C547   C623    1.402   .     A
C547   C611    1.456   .     S
C547   C648    1.402   .     A
C548   C651    1.402   .     A
C548   C612    1.456   .     S
C548   C622    1.402   .     A
C549   C577    1.392   .     A
C549   O780    1.383   .     S
C549   C54     1.422   1_565 A
C550   C650    1.402   .     A
C550   C621    1.402   .     A
C550   C614    1.456   .     S
C551   C615    1.456   .     S
C551   C653    1.402   .     A
C551   C620    1.402   .     A
C552   C652    1.402   .     A
C552   C619    1.402   .     A
C552   C616    1.456   .     S
C553   C566    1.397   .     S
C553   C600    1.459   .     S
C554   C599    1.459   .     S
C554   C567    1.397   .     A
C555   C836    1.397   1_455 A
C555   C573    1.397   .     S
C555   C598    1.459   .     S
C556   C574    1.397   .     A
C556   C838    1.397   1_455 S
C556   C597    1.459   .     S
C557   C579    1.397   .     A
C557   C596    1.459   .     S
C557   C843    1.397   1_455 S
C558   C576    1.397   .     A
C558   C849    1.397   1_455 S
C558   C595    1.459   .     S
C559   C594    1.459   .     S
C559   C582    1.397   .     S
C560   C578    1.392   .     A
C560   O781    1.383   .     S
C560   C592    1.422   .     S
C561   C578    1.397   .     S
C561   C593    1.459   .     S
C562   C579    1.392   .     A
C562   C588    1.422   .     A
C562   O782    1.383   .     S
C563   O783    1.383   .     S
C563   C581    1.392   .     A
C563   C857    1.422   .     S
C564   C582    1.392   .     A
C564   O784    1.383   .     S
C564   C590    1.422   .     S
C565   C583    1.392   .     A
C565   O785    1.383   .     S
C565   C56     1.422   1_565 A
C566   H683    1.084   .     S
C567   C569    1.392   .     A
C567   H684    1.084   .     S
C568   H685    1.084   .     S
C568   C580    1.392   .     A
C568   C823    1.397   .     A
C569   O770    1.383   .     S
C569   C585    1.422   .     S
C570   H686    1.084   .     S
C570   C591    1.392   .     A
C570   C824    1.397   .     S
C571   H687    1.084   .     S
C571   C602    1.392   .     A
C571   C17     1.397   1_565 A
C572   C613    1.392   .     A
C572   H688    1.084   .     S
C572   C18     1.397   1_565 S
C573   C624    1.392   .     A
C573   H689    1.084   .     S
C574   H691    1.084   .     S
C574   C635    1.392   .     A
C575   C646    1.392   .     A
C575   H692    1.084   .     S
C575   C825    1.397   .     S
C576   H693    1.084   .     S
C577   C23     1.397   1_565 A
C577   H694    1.084   .     S
C578   H695    1.084   .     S
C579   H696    1.084   .     S
C580   C854    1.422   .     A
C580   O771    1.383   .     S
C581   H697    1.084   .     S
C581   C826    1.397   .     S
C582   H698    1.084   .     S
C583   H699    1.084   .     S
C583   C25     1.397   1_565 A
C584   C585    1.473   1_554 S
C585   C584    1.473   1_556 S
C586   C848    1.422   1_455 A
C586   C587    1.473   1_554 S
C586   C624    1.422   .     S
C587   C635    1.422   .     A
C587   C586    1.473   1_556 S
C587   C859    1.422   1_455 S
C588   C589    1.473   .     S
C588   C914    1.422   1_455 S
C589   C831    1.422   1_455 S
C590   C592    1.473   .     S
C591   O772    1.383   .     S
C591   C855    1.422   .     S
C593   O788    1.281   .     A
C594   O776    1.281   .     S
C595   O991    1.281   1_455 A
C595   O786    1.281   .     S
C596   O724    1.281   .     A
C596   O1055   1.281   1_455 S
C597   O725    1.281   .     S
C597   O729    1.281   .     S
C598   O726    1.281   .     A
C598   O730    1.281   .     A
C599   O731    1.281   .     A
C599   O727    1.281   .     A
C600   O728    1.281   .     A
C600   O733    1.281   .     A
C601   O734    1.280   .     A
C601   C656    1.456   .     S
C601   O762    1.280   .     A
C602   O773    1.383   .     S
C602   C48     1.422   1_565 S
C603   O763    1.280   .     A
C603   O735    1.280   .     A
C604   O760    1.280   .     A
C604   O736    1.280   .     A
C605   O737    1.280   .     A
C605   O761    1.280   .     A
C606   O767    1.280   .     A
C606   O738    1.280   .     A
C607   O739    1.280   .     A
C607   O768    1.280   .     A
C608   O764    1.280   .     A
C608   O740    1.280   .     A
C608   C654    1.456   .     S
C609   C655    1.456   .     S
C609   O766    1.280   .     A
C609   O741    1.280   .     A
C610   O742    1.280   .     A
C610   O753    1.280   .     A
C611   O755    1.280   .     A
C611   O744    1.280   .     A
C612   O751    1.280   .     A
C612   O745    1.280   .     A
C613   O774    1.383   .     S
C613   C49     1.422   1_565 A
C614   O746    1.280   .     A
C614   O752    1.280   .     A
C615   O758    1.280   .     A
C615   O747    1.280   .     A
C616   O748    1.280   .     A
C616   O759    1.280   .     A
C617   O756    1.280   .     A
C617   O749    1.280   .     A
C618   O757    1.280   .     A
C618   O750    1.280   .     A
C619   H657    1.083   .     S
C619   C636    1.387   .     A
C620   C634    1.387   .     A
C620   H668    1.083   .     S
C621   H679    1.083   .     S
C621   C633    1.387   .     A
C622   C632    1.387   .     A
C622   H690    1.083   .     S
C623   C631    1.387   .     A
C623   H701    1.083   .     S
C624   O775    1.383   .     S
C625   C630    1.387   .     A
C625   H712    1.083   .     S
C626   H718    1.083   .     S
C626   C629    1.387   .     A
C627   H719    1.083   .     S
C627   C628    1.387   .     A
C628   H720    1.083   .     S
C629   H658    1.083   .     S
C630   H659    1.083   .     S
C631   H660    1.083   .     S
C632   H661    1.083   .     S
C633   H662    1.083   .     S
C633   C656    1.402   .     A
C634   C655    1.402   .     A
C634   H663    1.083   .     S
C635   O777    1.383   .     S
C636   H664    1.083   .     S
C636   C654    1.402   .     A
C637   C655    1.402   .     A
C637   C653    1.387   .     A
C637   H665    1.083   .     S
C638   C654    1.402   .     A
C638   C652    1.387   .     A
C638   H666    1.083   .     S
C639   C651    1.387   .     A
C639   H667    1.083   .     S
C640   C656    1.402   .     A
C640   H669    1.083   .     S
C640   C650    1.387   .     A
C641   C649    1.387   .     A
C641   H670    1.083   .     S
C642   C648    1.387   .     A
C642   H671    1.083   .     S
C643   H672    1.083   .     S
C643   C647    1.387   .     A
C644   C645    1.387   .     A
C644   H673    1.083   .     S
C645   H674    1.083   .     S
C646   O778    1.383   .     S
C646   C856    1.422   .     S
C647   H675    1.083   .     S
C648   H676    1.083   .     S
C649   H677    1.083   .     S
C650   H678    1.083   .     S
C651   H680    1.083   .     S
C652   H681    1.083   .     S
C653   H682    1.083   .     S
H700   O769    0.988   1_556 S
H702   O770    0.988   1_554 S
H703   O771    0.988   1_556 S
H704   O772    0.988   1_554 S
H705   O773    0.988   1_556 S
H706   O774    0.988   1_554 S
H707   O775    0.988   1_556 S
H708   O777    0.988   1_554 S
H709   O778    0.988   .     S
H710   O779    0.988   .     S
H711   O780    0.988   .     S
H713   O781    0.988   .     S
H714   O782    0.988   .     S
H715   O783    0.988   .     S
H716   O784    0.988   .     S
H717   O785    0.988   .     S
O721   Zn792   1.946   .     S
O721   Zn789   1.946   .     S
O721   Zn800   1.946   .     S
O722   C58     1.281   1_565 A
O722   Zn791   1.937   .     S
O723   Zn794   1.937   .     S
O723   C863    1.281   .     A
O724   Zn793   1.937   .     S
O725   Zn803   1.937   .     S
O726   Zn802   1.937   .     S
O727   Zn797   1.937   .     S
O728   Zn789   1.937   .     S
O729   Zn799   1.937   .     S
O730   Zn798   1.937   .     S
O731   Zn801   1.937   .     S
O732   Zn797   1.946   .     S
O732   Zn801   1.946   .     S
O732   Zn795   1.946   .     S
O733   Zn800   1.937   .     S
O734   Zn792   1.938   .     S
O735   Zn791   1.938   .     S
O736   Zn794   1.938   .     S
O737   Zn793   1.938   .     S
O738   Zn796   1.938   .     S
O739   Zn795   1.938   .     S
O740   Zn790   1.938   .     S
O741   Zn804   1.938   .     S
O742   Zn791   1.938   .     S
O743   Zn790   1.946   .     S
O743   Zn802   1.946   .     S
O743   Zn798   1.946   .     S
O743   Zn1062  1.946   1_455 S
O744   Zn792   1.938   .     S
O745   Zn804   1.938   .     S
O746   Zn790   1.938   .     S
O747   Zn795   1.938   .     S
O748   Zn796   1.938   .     S
O749   Zn793   1.938   .     S
O750   Zn794   1.938   .     S
O751   Zn1067  1.938   .     S
O752   Zn798   1.938   .     S
O753   Zn265   1.938   1_565 S
O754   Zn799   1.946   .     S
O754   Zn803   1.946   .     S
O754   Zn793   1.946   .     S
O754   Zn1072  1.946   1_455 S
O755   Zn800   1.938   .     S
O756   Zn803   1.938   .     S
O757   Zn1070  1.938   .     S
O758   Zn797   1.938   .     S
O759   Zn253   1.938   1_565 S
O760   Zn1066  1.938   .     S
O761   Zn799   1.938   .     S
O762   Zn789   1.938   .     S
O763   Zn261   1.938   1_565 S
O764   Zn802   1.938   .     S
O765   Zn796   1.937   .     S
O765   C57     1.281   1_565 S
O766   Zn1071  1.938   .     S
O767   Zn264   1.938   1_565 S
O768   Zn801   1.938   .     S
O769   H700    0.988   1_554 S
O770   H702    0.988   1_556 S
O771   H703    0.988   1_554 S
O772   H704    0.988   1_556 S
O773   H705    0.988   1_554 S
O774   H706    0.988   1_556 S
O775   H707    0.988   1_554 S
O776   Zn795   1.937   .     S
O777   H708    0.988   1_556 S
O786   Zn790   1.937   .     S
O787   Zn804   1.937   .     S
O787   C864    1.281   .     S
O788   Zn792   1.937   .     S
Zn791  O196    1.946   1_565 S
Zn794  O1011   1.946   .     S
Zn796  O185    1.946   1_565 S
Zn798  O1028   1.938   1_455 S
Zn799  O1019   1.938   1_455 S
Zn802  O1025   1.938   1_455 S
Zn803  O1034   1.938   1_455 S
Zn804  O1022   1.946   .     S
C805   O1037   1.383   .     S
C805   C852    1.422   .     A
C805   C834    1.392   .     A
C806   O1047   1.383   .     S
C806   C857    1.422   .     A
C806   C844    1.392   .     A
C807   C900    1.402   .     A
C807   C907    1.402   .     A
C807   C871    1.456   .     S
C808   C872    1.456   .     S
C808   C910    1.402   .     A
C808   C899    1.402   .     A
C809   C898    1.402   .     A
C809   C873    1.456   .     S
C809   C909    1.402   .     A
C810   C897    1.402   .     A
C810   C874    1.456   .     S
C810   C912    1.402   .     A
C811   C875    1.456   .     S
C811   C896    1.402   .     A
C811   C911    1.402   .     A
C812   C885    1.456   .     S
C812   C895    1.402   .     A
C812   C915    1.402   .     A
C813   C913    1.402   .     A
C813   C894    1.402   .     A
C813   C886    1.456   .     S
C814   C893    1.402   .     A
C814   C917    1.402   .     A
C814   C878    1.456   .     S
C815   C891    1.402   .     A
C815   C879    1.456   .     S
C815   C916    1.402   .     A
C816   C919    1.402   .     A
C816   C880    1.456   .     S
C816   C890    1.402   .     A
C817   C845    1.392   .     A
C817   O1048   1.383   .     S
C817   C322    1.422   1_565 A
C818   C918    1.402   .     A
C818   C889    1.402   .     A
C818   C882    1.456   .     S
C819   C883    1.456   .     S
C819   C921    1.402   .     A
C819   C888    1.402   .     A
C820   C920    1.402   .     A
C820   C887    1.402   .     A
C820   C884    1.456   .     S
C821   C834    1.397   .     S
C821   C868    1.459   .     S
C822   C867    1.459   .     S
C822   C835    1.397   .     A
C823   C841    1.397   .     S
C823   C866    1.459   .     S
C824   C842    1.397   .     A
C824   C865    1.459   .     S
C825   C847    1.397   .     A
C825   C864    1.459   .     S
C826   C844    1.397   .     A
C826   C863    1.459   .     S
C827   C862    1.459   .     S
C827   C850    1.397   .     S
C828   C846    1.392   .     A
C828   O1049   1.383   .     S
C828   C860    1.422   .     S
C829   C846    1.397   .     S
C829   C861    1.459   .     S
C830   C847    1.392   .     A
C830   C856    1.422   .     A
C830   O1050   1.383   .     S
C831   O1051   1.383   .     S
C831   C849    1.392   .     A
C831   C589    1.422   1_655 S
C832   C850    1.392   .     A
C832   O1052   1.383   .     S
C832   C858    1.422   .     S
C833   C851    1.392   .     A
C833   O1053   1.383   .     S
C833   C324    1.422   1_565 A
C834   H951    1.084   .     S
C835   C837    1.392   .     A
C835   H952    1.084   .     S
C836   H953    1.084   .     S
C836   C848    1.392   .     A
C836   C555    1.397   1_655 A
C837   O1038   1.383   .     S
C837   C853    1.422   .     S
C838   H954    1.084   .     S
C838   C859    1.392   .     A
C838   C556    1.397   1_655 S
C839   H955    1.084   .     S
C839   C870    1.392   .     A
C839   C285    1.397   1_565 A
C840   C881    1.392   .     A
C840   H956    1.084   .     S
C840   C286    1.397   1_565 S
C841   C892    1.392   .     A
C841   H957    1.084   .     S
C842   H959    1.084   .     S
C842   C903    1.392   .     A
C843   C914    1.392   .     A
C843   H960    1.084   .     S
C843   C557    1.397   1_655 S
C844   H961    1.084   .     S
C845   C291    1.397   1_565 A
C845   H962    1.084   .     S
C846   H963    1.084   .     S
C847   H964    1.084   .     S
C848   C586    1.422   1_655 A
C848   O1039   1.383   .     S
C849   H965    1.084   .     S
C849   C558    1.397   1_655 S
C850   H966    1.084   .     S
C851   H967    1.084   .     S
C851   C293    1.397   1_565 A
C852   C853    1.473   1_554 S
C853   C852    1.473   1_556 S
C854   C855    1.473   1_554 S
C854   C892    1.422   .     S
C855   C903    1.422   .     A
C855   C854    1.473   1_556 S
C856   C857    1.473   .     S
C858   C860    1.473   .     S
C859   O1040   1.383   .     S
C859   C587    1.422   1_655 S
C861   O1056   1.281   .     A
C862   O1044   1.281   .     S
C863   O1054   1.281   .     S
C864   O992    1.281   .     A
C865   O993    1.281   .     S
C865   O997    1.281   .     S
C866   O994    1.281   .     A
C866   O998    1.281   .     A
C867   O999    1.281   .     A
C867   O995    1.281   .     A
C868   O996    1.281   .     A
C868   O1001   1.281   .     A
C869   O1002   1.280   .     A
C869   C924    1.456   .     S
C869   O1030   1.280   .     A
C870   O1041   1.383   .     S
C870   C316    1.422   1_565 S
C871   O1031   1.280   .     A
C871   O1003   1.280   .     A
C872   O1028   1.280   .     A
C872   O1004   1.280   .     A
C873   O1005   1.280   .     A
C873   O1029   1.280   .     A
C874   O1035   1.280   .     A
C874   O1006   1.280   .     A
C875   O1007   1.280   .     A
C875   O1036   1.280   .     A
C876   O1032   1.280   .     A
C876   O1008   1.280   .     A
C876   C922    1.456   .     S
C877   C923    1.456   .     S
C877   O1034   1.280   .     A
C877   O1009   1.280   .     A
C878   O1010   1.280   .     A
C878   O1021   1.280   .     A
C879   O1023   1.280   .     A
C879   O1012   1.280   .     A
C880   O1019   1.280   .     A
C880   O1013   1.280   .     A
C881   O1042   1.383   .     S
C881   C317    1.422   1_565 A
C882   O1014   1.280   .     A
C882   O1020   1.280   .     A
C883   O1026   1.280   .     A
C883   O1015   1.280   .     A
C884   O1016   1.280   .     A
C884   O1027   1.280   .     A
C885   O1024   1.280   .     A
C885   O1017   1.280   .     A
C886   O1025   1.280   .     A
C886   O1018   1.280   .     A
C887   H925    1.083   .     S
C887   C904    1.387   .     A
C888   C902    1.387   .     A
C888   H936    1.083   .     S
C889   H947    1.083   .     S
C889   C901    1.387   .     A
C890   C900    1.387   .     A
C890   H958    1.083   .     S
C891   C899    1.387   .     A
C891   H969    1.083   .     S
C892   O1043   1.383   .     S
C893   C898    1.387   .     A
C893   H980    1.083   .     S
C894   H986    1.083   .     S
C894   C897    1.387   .     A
C895   H987    1.083   .     S
C895   C896    1.387   .     A
C896   H988    1.083   .     S
C897   H926    1.083   .     S
C898   H927    1.083   .     S
C899   H928    1.083   .     S
C900   H929    1.083   .     S
C901   H930    1.083   .     S
C901   C924    1.402   .     A
C902   C923    1.402   .     A
C902   H931    1.083   .     S
C903   O1045   1.383   .     S
C904   H932    1.083   .     S
C904   C922    1.402   .     A
C905   C923    1.402   .     A
C905   C921    1.387   .     A
C905   H933    1.083   .     S
C906   C922    1.402   .     A
C906   C920    1.387   .     A
C906   H934    1.083   .     S
C907   C919    1.387   .     A
C907   H935    1.083   .     S
C908   C924    1.402   .     A
C908   H937    1.083   .     S
C908   C918    1.387   .     A
C909   C917    1.387   .     A
C909   H938    1.083   .     S
C910   C916    1.387   .     A
C910   H939    1.083   .     S
C911   H940    1.083   .     S
C911   C915    1.387   .     A
C912   C913    1.387   .     A
C912   H941    1.083   .     S
C913   H942    1.083   .     S
C914   O1046   1.383   .     S
C914   C588    1.422   1_655 S
C915   H943    1.083   .     S
C916   H944    1.083   .     S
C917   H945    1.083   .     S
C918   H946    1.083   .     S
C919   H948    1.083   .     S
C920   H949    1.083   .     S
C921   H950    1.083   .     S
H968   O1037   0.988   1_556 S
H970   O1038   0.988   1_554 S
H971   O1039   0.988   1_556 S
H972   O1040   0.988   1_554 S
H973   O1041   0.988   1_556 S
H974   O1042   0.988   1_554 S
H975   O1043   0.988   1_556 S
H976   O1045   0.988   1_554 S
H977   O1046   0.988   .     S
H978   O1047   0.988   .     S
H979   O1048   0.988   .     S
H981   O1049   0.988   .     S
H982   O1050   0.988   .     S
H983   O1051   0.988   .     S
H984   O1052   0.988   .     S
H985   O1053   0.988   .     S
O989   Zn1060  1.946   .     S
O989   Zn1057  1.946   .     S
O989   Zn1068  1.946   .     S
O990   C326    1.281   1_565 A
O990   Zn1059  1.937   .     S
O991   Zn1062  1.937   .     S
O991   C595    1.281   1_655 A
O992   Zn1061  1.937   .     S
O993   Zn1071  1.937   .     S
O994   Zn1070  1.937   .     S
O995   Zn1065  1.937   .     S
O996   Zn1057  1.937   .     S
O997   Zn1067  1.937   .     S
O998   Zn1066  1.937   .     S
O999   Zn1069  1.937   .     S
O1000  Zn1065  1.946   .     S
O1000  Zn1069  1.946   .     S
O1000  Zn1063  1.946   .     S
O1001  Zn1068  1.937   .     S
O1002  Zn1060  1.938   .     S
O1003  Zn1059  1.938   .     S
O1004  Zn1062  1.938   .     S
O1005  Zn1061  1.938   .     S
O1006  Zn1064  1.938   .     S
O1007  Zn1063  1.938   .     S
O1008  Zn1058  1.938   .     S
O1009  Zn1072  1.938   .     S
O1010  Zn1059  1.938   .     S
O1011  Zn1058  1.946   .     S
O1011  Zn1070  1.946   .     S
O1011  Zn1066  1.946   .     S
O1012  Zn1060  1.938   .     S
O1013  Zn1072  1.938   .     S
O1014  Zn1058  1.938   .     S
O1015  Zn1063  1.938   .     S
O1016  Zn1064  1.938   .     S
O1017  Zn1061  1.938   .     S
O1018  Zn1062  1.938   .     S
O1019  Zn799   1.938   1_655 S
O1020  Zn1066  1.938   .     S
O1021  Zn533   1.938   1_565 S
O1022  Zn1067  1.946   .     S
O1022  Zn1071  1.946   .     S
O1022  Zn1061  1.946   .     S
O1023  Zn1068  1.938   .     S
O1024  Zn1071  1.938   .     S
O1025  Zn802   1.938   1_655 S
O1026  Zn1065  1.938   .     S
O1027  Zn521   1.938   1_565 S
O1028  Zn798   1.938   1_655 S
O1029  Zn1067  1.938   .     S
O1030  Zn1057  1.938   .     S
O1031  Zn529   1.938   1_565 S
O1032  Zn1070  1.938   .     S
O1033  Zn1064  1.937   .     S
O1033  C325    1.281   1_565 S
O1034  Zn803   1.938   1_655 S
O1035  Zn532   1.938   1_565 S
O1036  Zn1069  1.938   .     S
O1037  H968    0.988   1_554 S
O1038  H970    0.988   1_556 S
O1039  H971    0.988   1_554 S
O1040  H972    0.988   1_556 S
O1041  H973    0.988   1_554 S
O1042  H974    0.988   1_556 S
O1043  H975    0.988   1_554 S
O1044  Zn1063  1.937   .     S
O1045  H976    0.988   1_556 S
O1054  Zn1058  1.937   .     S
O1055  Zn1072  1.937   .     S
O1055  C596    1.281   1_655 S
O1056  Zn1060  1.937   .     S
Zn1059 O464    1.946   1_565 S
Zn1062 O743    1.946   1_655 S
Zn1064 O453    1.946   1_565 S
Zn1072 O754    1.946   1_655 S
