data_str_m1_o1_o2_pcu_sym.5
_audit_creation_date              2020-01-03
_audit_creation_method            'Materials Studio'
_symmetry_space_group_name_H-M    'P1'
_symmetry_Int_Tables_number       1
_symmetry_cell_setting            triclinic
loop_
_symmetry_equiv_pos_as_xyz
  x,y,z
_cell_length_a                    36.6732
_cell_length_b                    36.6732
_cell_length_c                    34.5458
_cell_angle_alpha                 90.0000
_cell_angle_beta                  90.0000
_cell_angle_gamma                 90.0000
loop_
_atom_site_label
_atom_site_type_symbol
_atom_site_fract_x
_atom_site_fract_y
_atom_site_fract_z
_atom_site_U_iso_or_equiv
_atom_site_adp_type
_atom_site_occupancy
C1     C     0.22284   0.01955   0.04225   0.00000  Uiso   1.00
C2     C     0.02716   0.26955   0.45775   0.00000  Uiso   1.00
C3     C     0.34814   0.40186   0.75000   0.00000  Uiso   1.00
C4     C     0.40186   0.15186   0.25000   0.00000  Uiso   1.00
C5     C     0.09814   0.34814   0.75000   0.00000  Uiso   1.00
C6     C     0.34814   0.40186   0.25000   0.00000  Uiso   1.00
C7     C     0.15186   0.09814   0.75000   0.00000  Uiso   1.00
C8     C     0.09814   0.15186   0.75000   0.00000  Uiso   1.00
C9     C     0.40186   0.34814   0.25000   0.00000  Uiso   1.00
C10    C     0.15186   0.40186   0.75000   0.00000  Uiso   1.00
C11    C     0.34814   0.09814   0.25000   0.00000  Uiso   1.00
C12    C     0.40186   0.34814   0.75000   0.00000  Uiso   1.00
C13    C     0.23931   0.46831   0.54185   0.00000  Uiso   1.00
C14    C     0.09814   0.15186   0.25000   0.00000  Uiso   1.00
C15    C     0.34814   0.09814   0.75000   0.00000  Uiso   1.00
C16    C     0.15186   0.40186   0.25000   0.00000  Uiso   1.00
C17    C     0.25000   0.00000   0.10269   0.00000  Uiso   1.00
C18    C     0.25000   0.00000   0.89758   0.00000  Uiso   1.00
C19    C    -0.00000   0.25000   0.10269   0.00000  Uiso   1.00
C20    C     0.00000   0.25000   0.89758   0.00000  Uiso   1.00
C21    C    -0.00000   0.25000   0.60242   0.00000  Uiso   1.00
C22    C    -0.00000   0.25000   0.39731   0.00000  Uiso   1.00
C23    C     0.25000   0.00000   0.60242   0.00000  Uiso   1.00
C24    C     0.23045   0.02716   0.45775   0.00000  Uiso   1.00
C25    C     0.25000   0.00000   0.39731   0.00000  Uiso   1.00
C26    C     0.20550   0.07162   0.00948   0.00000  Uiso   1.00
C27    C     0.20969   0.09993   0.04193   0.00000  Uiso   1.00
C28    C     0.21599   0.13802   0.02549   0.00000  Uiso   1.00
C29    C     0.31446   0.05484   0.99066   0.00000  Uiso   1.00
C30    C     0.32099   0.08254   0.95808   0.00000  Uiso   1.00
C31    C     0.32887   0.12044   0.97429   0.00000  Uiso   1.00
C32    C     0.42838   0.20550   0.00948   0.00000  Uiso   1.00
C33    C     0.40007   0.20969   0.04193   0.00000  Uiso   1.00
C34    C     0.36198   0.21599   0.02549   0.00000  Uiso   1.00
C35    C     0.03169   0.23931   0.54185   0.00000  Uiso   1.00
C36    C     0.44516   0.31447   0.99066   0.00000  Uiso   1.00
C37    C     0.41746   0.32099   0.95808   0.00000  Uiso   1.00
C38    C     0.37956   0.32887   0.97429   0.00000  Uiso   1.00
C39    C     0.29450   0.42838   0.00948   0.00000  Uiso   1.00
C40    C     0.29031   0.40007   0.04193   0.00000  Uiso   1.00
C41    C     0.28401   0.36198   0.02549   0.00000  Uiso   1.00
C42    C     0.18553   0.44517   0.99066   0.00000  Uiso   1.00
C43    C     0.17901   0.41746   0.95808   0.00000  Uiso   1.00
C44    C     0.17113   0.37957   0.97429   0.00000  Uiso   1.00
C45    C     0.07162   0.29450   0.00948   0.00000  Uiso   1.00
C46    C     0.47284   0.23045   0.45775   0.00000  Uiso   1.00
C47    C     0.09992   0.29031   0.04193   0.00000  Uiso   1.00
C48    C     0.13802   0.28401   0.02549   0.00000  Uiso   1.00
C49    C     0.05483   0.18553   0.99066   0.00000  Uiso   1.00
C50    C     0.08254   0.17901   0.95808   0.00000  Uiso   1.00
C51    C     0.12043   0.17113   0.97429   0.00000  Uiso   1.00
C52    C     0.43553   0.30484   0.50934   0.00000  Uiso   1.00
C53    C     0.42901   0.33254   0.54192   0.00000  Uiso   1.00
C54    C     0.42113   0.37044   0.52572   0.00000  Uiso   1.00
C55    C     0.04450   0.32162   0.49052   0.00000  Uiso   1.00
C56    C     0.04031   0.34993   0.45807   0.00000  Uiso   1.00
C57    C     0.26069   0.03169   0.54185   0.00000  Uiso   1.00
C58    C     0.03401   0.38802   0.47451   0.00000  Uiso   1.00
C59    C     0.19516   0.43553   0.50934   0.00000  Uiso   1.00
C60    C     0.16746   0.42901   0.54192   0.00000  Uiso   1.00
C61    C     0.12956   0.42113   0.52572   0.00000  Uiso   1.00
C62    C     0.17838   0.04450   0.49052   0.00000  Uiso   1.00
C63    C     0.15007   0.04031   0.45807   0.00000  Uiso   1.00
C64    C     0.11198   0.03401   0.47451   0.00000  Uiso   1.00
C65    C     0.06446   0.19517   0.50934   0.00000  Uiso   1.00
C66    C     0.07099   0.16746   0.54192   0.00000  Uiso   1.00
C67    C     0.07887   0.12957   0.52572   0.00000  Uiso   1.00
C68    C     0.26955   0.47284   0.45775   0.00000  Uiso   1.00
C69    C     0.45550   0.17838   0.49052   0.00000  Uiso   1.00
C70    C     0.45969   0.15007   0.45807   0.00000  Uiso   1.00
C71    C     0.46599   0.11198   0.47451   0.00000  Uiso   1.00
C72    C     0.30483   0.06447   0.50934   0.00000  Uiso   1.00
C73    C     0.33254   0.07099   0.54192   0.00000  Uiso   1.00
C74    C     0.37043   0.07887   0.52572   0.00000  Uiso   1.00
C75    C     0.32162   0.45550   0.49052   0.00000  Uiso   1.00
C76    C     0.34993   0.45969   0.45807   0.00000  Uiso   1.00
C77    C     0.38802   0.46599   0.47451   0.00000  Uiso   1.00
C78    C     0.22229   0.01788   0.08252   0.00000  Uiso   1.00
C79    C     0.28165   0.00926   0.91786   0.00000  Uiso   1.00
C80    C     0.48212   0.22229   0.08252   0.00000  Uiso   1.00
C81    C     0.28169   0.01069   0.95815   0.00000  Uiso   1.00
C82    C     0.49074   0.28165   0.91786   0.00000  Uiso   1.00
C83    C     0.27771   0.48212   0.08252   0.00000  Uiso   1.00
C84    C     0.21835   0.49074   0.91786   0.00000  Uiso   1.00
C85    C     0.01788   0.27771   0.08252   0.00000  Uiso   1.00
C86    C     0.00926   0.21835   0.91786   0.00000  Uiso   1.00
C87    C     0.46835   0.25926   0.58214   0.00000  Uiso   1.00
C88    C     0.02771   0.26788   0.41748   0.00000  Uiso   1.00
C89    C     0.24074   0.46835   0.58214   0.00000  Uiso   1.00
C90    C     0.23212   0.02771   0.41748   0.00000  Uiso   1.00
C91    C     0.03165   0.24074   0.58214   0.00000  Uiso   1.00
C92    C     0.48045   0.22284   0.04225   0.00000  Uiso   1.00
C93    C     0.47229   0.23212   0.41748   0.00000  Uiso   1.00
C94    C     0.25926   0.03165   0.58214   0.00000  Uiso   1.00
C95    C     0.26788   0.47229   0.41748   0.00000  Uiso   1.00
C96    C     0.25000   0.00000   0.02155   0.00000  Uiso   1.00
C97    C     0.25000   0.00000   0.97882   0.00000  Uiso   1.00
C98    C    -0.00000   0.25000   0.02155   0.00000  Uiso   1.00
C99    C    -0.00000   0.25000   0.97882   0.00000  Uiso   1.00
C100   C     0.00000   0.25000   0.52118   0.00000  Uiso   1.00
C101   C    -0.00000   0.25000   0.47845   0.00000  Uiso   1.00
C102   C     0.25000   0.00000   0.52118   0.00000  Uiso   1.00
C103   C     0.48931   0.28169   0.95815   0.00000  Uiso   1.00
C104   C     0.25000   0.00000   0.47845   0.00000  Uiso   1.00
C105   C     0.25000   0.00000   0.35512   0.00000  Uiso   1.00
C106   C     0.25000   0.00000   0.64479   0.00000  Uiso   1.00
C107   C    -0.00000   0.25000   0.35512   0.00000  Uiso   1.00
C108   C    -0.00000   0.25000   0.64479   0.00000  Uiso   1.00
C109   C     0.00000   0.25000   0.85522   0.00000  Uiso   1.00
C110   C     0.00000   0.25000   0.14488   0.00000  Uiso   1.00
C111   C     0.25000   0.00000   0.85522   0.00000  Uiso   1.00
C112   C     0.25000   0.00000   0.14488   0.00000  Uiso   1.00
C113   C     0.17993   0.07007   0.25000   0.00000  Uiso   1.00
C114   C     0.27716   0.48045   0.04225   0.00000  Uiso   1.00
C115   C     0.32007   0.42993   0.75000   0.00000  Uiso   1.00
C116   C     0.42993   0.17993   0.25000   0.00000  Uiso   1.00
C117   C     0.07007   0.32007   0.75000   0.00000  Uiso   1.00
C118   C     0.32007   0.42993   0.25000   0.00000  Uiso   1.00
C119   C     0.17993   0.07007   0.75000   0.00000  Uiso   1.00
C120   C     0.07007   0.32007   0.25000   0.00000  Uiso   1.00
C121   C     0.42993   0.17993   0.75000   0.00000  Uiso   1.00
C122   C     0.17993   0.42993   0.75000   0.00000  Uiso   1.00
C123   C     0.32007   0.07007   0.25000   0.00000  Uiso   1.00
C124   C     0.42993   0.32007   0.75000   0.00000  Uiso   1.00
C125   C     0.21831   0.48931   0.95815   0.00000  Uiso   1.00
C126   C     0.07007   0.17993   0.25000   0.00000  Uiso   1.00
C127   C     0.32007   0.07007   0.75000   0.00000  Uiso   1.00
C128   C     0.17993   0.42993   0.25000   0.00000  Uiso   1.00
C129   C     0.07007   0.17993   0.75000   0.00000  Uiso   1.00
C130   C     0.42993   0.32007   0.25000   0.00000  Uiso   1.00
C131   C     0.12200   0.40473   0.22486   0.00000  Uiso   1.00
C132   C     0.37795   0.09532   0.77521   0.00000  Uiso   1.00
C133   C     0.09527   0.12200   0.22486   0.00000  Uiso   1.00
C134   C     0.40468   0.37795   0.77521   0.00000  Uiso   1.00
C135   C     0.37800   0.09527   0.22486   0.00000  Uiso   1.00
C136   C     0.01955   0.27716   0.04225   0.00000  Uiso   1.00
C137   C     0.12205   0.40468   0.77521   0.00000  Uiso   1.00
C138   C     0.40473   0.37800   0.22486   0.00000  Uiso   1.00
C139   C     0.09532   0.12205   0.77521   0.00000  Uiso   1.00
C140   C     0.12204   0.09532   0.77521   0.00000  Uiso   1.00
C141   C     0.37800   0.40473   0.22486   0.00000  Uiso   1.00
C142   C     0.09532   0.37796   0.77521   0.00000  Uiso   1.00
C143   C     0.40473   0.12200   0.22486   0.00000  Uiso   1.00
C144   C     0.37796   0.40468   0.77521   0.00000  Uiso   1.00
C145   C     0.12200   0.09527   0.22486   0.00000  Uiso   1.00
C146   C     0.40468   0.12204   0.77521   0.00000  Uiso   1.00
C147   C     0.01069   0.21831   0.95815   0.00000  Uiso   1.00
C148   C     0.09527   0.37800   0.22486   0.00000  Uiso   1.00
C149   C     0.37204   0.15468   0.72479   0.00000  Uiso   1.00
C150   C     0.12800   0.34527   0.27514   0.00000  Uiso   1.00
C151   C     0.34532   0.37204   0.72479   0.00000  Uiso   1.00
C152   C     0.15473   0.12800   0.27514   0.00000  Uiso   1.00
C153   C     0.12796   0.34532   0.72479   0.00000  Uiso   1.00
C154   C     0.37200   0.15473   0.27514   0.00000  Uiso   1.00
C155   C     0.15468   0.12796   0.72479   0.00000  Uiso   1.00
C156   C     0.34527   0.37200   0.27514   0.00000  Uiso   1.00
C157   C     0.37200   0.34527   0.27514   0.00000  Uiso   1.00
C158   C     0.46831   0.26069   0.54185   0.00000  Uiso   1.00
C159   C     0.12795   0.15468   0.72479   0.00000  Uiso   1.00
C160   C     0.34527   0.12800   0.27514   0.00000  Uiso   1.00
C161   C     0.15468   0.37205   0.72479   0.00000  Uiso   1.00
C162   C     0.12800   0.15473   0.27514   0.00000  Uiso   1.00
C163   C     0.37205   0.34532   0.72479   0.00000  Uiso   1.00
C164   C     0.15473   0.37200   0.27514   0.00000  Uiso   1.00
C165   C     0.34532   0.12795   0.72479   0.00000  Uiso   1.00
C166   C     0.09814   0.34814   0.25000   0.00000  Uiso   1.00
C167   C     0.40186   0.15186   0.75000   0.00000  Uiso   1.00
C168   C     0.15186   0.09814   0.25000   0.00000  Uiso   1.00
H169   H     0.11925   0.42757   0.20520   0.00000  Uiso   1.00
H170   H     0.38075   0.42757   0.20519   0.00000  Uiso   1.00
H171   H     0.07362   0.15546   0.94017   0.00000  Uiso   1.00
H172   H     0.08407   0.20353   0.93926   0.00000  Uiso   1.00
H173   H     0.12980   0.19408   0.99272   0.00000  Uiso   1.00
H174   H     0.14004   0.16756   0.95008   0.00000  Uiso   1.00
H175   H     0.12007   0.14570   0.99176   0.00000  Uiso   1.00
H176   H     0.41269   0.30689   0.48834   0.00000  Uiso   1.00
H177   H     0.46055   0.31162   0.49278   0.00000  Uiso   1.00
H178   H     0.40545   0.32362   0.55983   0.00000  Uiso   1.00
H179   H     0.45353   0.33407   0.56074   0.00000  Uiso   1.00
H180   H     0.44408   0.37980   0.50728   0.00000  Uiso   1.00
H181   H     0.07252   0.38066   0.79493   0.00000  Uiso   1.00
H182   H     0.41756   0.39004   0.54992   0.00000  Uiso   1.00
H183   H     0.39570   0.37007   0.50824   0.00000  Uiso   1.00
H184   H     0.06614   0.33118   0.51060   0.00000  Uiso   1.00
H185   H     0.01931   0.31979   0.50817   0.00000  Uiso   1.00
H186   H     0.06537   0.35018   0.43997   0.00000  Uiso   1.00
H187   H     0.01674   0.34262   0.43941   0.00000  Uiso   1.00
H188   H     0.00916   0.38836   0.49285   0.00000  Uiso   1.00
H189   H     0.03035   0.40773   0.45043   0.00000  Uiso   1.00
H190   H     0.05777   0.39670   0.49215   0.00000  Uiso   1.00
H191   H     0.19311   0.41269   0.48834   0.00000  Uiso   1.00
H192   H     0.42757   0.11925   0.20519   0.00000  Uiso   1.00
H193   H     0.18838   0.46055   0.49278   0.00000  Uiso   1.00
H194   H     0.17638   0.40546   0.55983   0.00000  Uiso   1.00
H195   H     0.16593   0.45353   0.56074   0.00000  Uiso   1.00
H196   H     0.12020   0.44408   0.50728   0.00000  Uiso   1.00
H197   H     0.10996   0.41756   0.54992   0.00000  Uiso   1.00
H198   H     0.12993   0.39570   0.50824   0.00000  Uiso   1.00
H199   H     0.16882   0.06614   0.51060   0.00000  Uiso   1.00
H200   H     0.18021   0.01931   0.50817   0.00000  Uiso   1.00
H201   H     0.14981   0.06537   0.43997   0.00000  Uiso   1.00
H202   H     0.15738   0.01674   0.43941   0.00000  Uiso   1.00
H203   H     0.38066   0.42748   0.79493   0.00000  Uiso   1.00
H204   H     0.11164   0.00916   0.49285   0.00000  Uiso   1.00
H205   H     0.09227   0.03035   0.45043   0.00000  Uiso   1.00
H206   H     0.10330   0.05778   0.49215   0.00000  Uiso   1.00
H207   H     0.08731   0.19311   0.48834   0.00000  Uiso   1.00
H208   H     0.03945   0.18838   0.49278   0.00000  Uiso   1.00
H209   H     0.09454   0.17638   0.55983   0.00000  Uiso   1.00
H210   H     0.04647   0.16593   0.56074   0.00000  Uiso   1.00
H211   H     0.05592   0.12020   0.50728   0.00000  Uiso   1.00
H212   H     0.08244   0.10996   0.54992   0.00000  Uiso   1.00
H213   H     0.10430   0.12993   0.50824   0.00000  Uiso   1.00
H214   H     0.11925   0.07243   0.20519   0.00000  Uiso   1.00
H215   H     0.43386   0.16882   0.51060   0.00000  Uiso   1.00
H216   H     0.48069   0.18021   0.50817   0.00000  Uiso   1.00
H217   H     0.43463   0.14982   0.43997   0.00000  Uiso   1.00
H218   H     0.48326   0.15738   0.43941   0.00000  Uiso   1.00
H219   H     0.49084   0.11164   0.49285   0.00000  Uiso   1.00
H220   H     0.46965   0.09227   0.45043   0.00000  Uiso   1.00
H221   H     0.44222   0.10330   0.49215   0.00000  Uiso   1.00
H222   H     0.30689   0.08731   0.48834   0.00000  Uiso   1.00
H223   H     0.31162   0.03945   0.49278   0.00000  Uiso   1.00
H224   H     0.32362   0.09455   0.55983   0.00000  Uiso   1.00
H225   H     0.42748   0.11934   0.79493   0.00000  Uiso   1.00
H226   H     0.33407   0.04647   0.56074   0.00000  Uiso   1.00
H227   H     0.37980   0.05592   0.50728   0.00000  Uiso   1.00
H228   H     0.39004   0.08244   0.54992   0.00000  Uiso   1.00
H229   H     0.37007   0.10430   0.50824   0.00000  Uiso   1.00
H230   H     0.33118   0.43386   0.51060   0.00000  Uiso   1.00
H231   H     0.31979   0.48069   0.50817   0.00000  Uiso   1.00
H232   H     0.35018   0.43463   0.43997   0.00000  Uiso   1.00
H233   H     0.34262   0.48326   0.43941   0.00000  Uiso   1.00
H234   H     0.38836   0.49084   0.49285   0.00000  Uiso   1.00
H235   H     0.40773   0.46965   0.45043   0.00000  Uiso   1.00
H236   H     0.07243   0.38075   0.20519   0.00000  Uiso   1.00
H237   H     0.39670   0.44223   0.49215   0.00000  Uiso   1.00
H238   H     0.36934   0.17748   0.70507   0.00000  Uiso   1.00
H239   H     0.13075   0.32243   0.29481   0.00000  Uiso   1.00
H240   H     0.32252   0.36934   0.70507   0.00000  Uiso   1.00
H241   H     0.38066   0.07252   0.79494   0.00000  Uiso   1.00
H242   H     0.17757   0.13075   0.29481   0.00000  Uiso   1.00
H243   H     0.13066   0.32252   0.70507   0.00000  Uiso   1.00
H244   H     0.36925   0.17757   0.29481   0.00000  Uiso   1.00
H245   H     0.17748   0.13066   0.70507   0.00000  Uiso   1.00
H246   H     0.32243   0.36925   0.29481   0.00000  Uiso   1.00
H247   H     0.36925   0.32243   0.29480   0.00000  Uiso   1.00
H248   H     0.13066   0.17748   0.70506   0.00000  Uiso   1.00
H249   H     0.32243   0.13075   0.29480   0.00000  Uiso   1.00
H250   H     0.17748   0.36934   0.70506   0.00000  Uiso   1.00
H251   H     0.13075   0.17757   0.29480   0.00000  Uiso   1.00
H252   H     0.07243   0.11925   0.20520   0.00000  Uiso   1.00
H253   H     0.36934   0.32252   0.70506   0.00000  Uiso   1.00
H254   H     0.17757   0.36925   0.29480   0.00000  Uiso   1.00
H255   H     0.32252   0.13066   0.70506   0.00000  Uiso   1.00
H256   H     0.20068   0.03169   0.09810   0.00000  Uiso   1.00
H257   H     0.30642   0.01621   0.90245   0.00000  Uiso   1.00
H258   H     0.46831   0.20068   0.09810   0.00000  Uiso   1.00
H259   H     0.48379   0.30642   0.90245   0.00000  Uiso   1.00
H260   H     0.29932   0.46831   0.09810   0.00000  Uiso   1.00
H261   H     0.19358   0.48379   0.90245   0.00000  Uiso   1.00
H262   H     0.03169   0.29932   0.09810   0.00000  Uiso   1.00
H263   H     0.42748   0.38066   0.79494   0.00000  Uiso   1.00
H264   H     0.01621   0.19358   0.90245   0.00000  Uiso   1.00
H265   H     0.44358   0.26621   0.59755   0.00000  Uiso   1.00
H266   H     0.04932   0.28169   0.40190   0.00000  Uiso   1.00
H267   H     0.23379   0.44358   0.59755   0.00000  Uiso   1.00
H268   H     0.21831   0.04932   0.40190   0.00000  Uiso   1.00
H269   H     0.05642   0.23379   0.59755   0.00000  Uiso   1.00
H270   H     0.45068   0.21831   0.40190   0.00000  Uiso   1.00
H271   H     0.26621   0.05642   0.59755   0.00000  Uiso   1.00
H272   H     0.28169   0.45068   0.40190   0.00000  Uiso   1.00
H273   H     0.18386   0.08118   0.98940   0.00000  Uiso   1.00
H274   H     0.38075   0.07243   0.20520   0.00000  Uiso   1.00
H275   H     0.23069   0.06979   0.99183   0.00000  Uiso   1.00
H276   H     0.18463   0.10018   0.06003   0.00000  Uiso   1.00
H277   H     0.23326   0.09262   0.06059   0.00000  Uiso   1.00
H278   H     0.24084   0.13836   0.00715   0.00000  Uiso   1.00
H279   H     0.21965   0.15773   0.04957   0.00000  Uiso   1.00
H280   H     0.19222   0.14670   0.00785   0.00000  Uiso   1.00
H281   H     0.33731   0.05689   0.01166   0.00000  Uiso   1.00
H282   H     0.28945   0.06162   0.00722   0.00000  Uiso   1.00
H283   H     0.34454   0.07362   0.94017   0.00000  Uiso   1.00
H284   H     0.29647   0.08407   0.93926   0.00000  Uiso   1.00
H285   H     0.11934   0.42748   0.79494   0.00000  Uiso   1.00
H286   H     0.30592   0.12980   0.99272   0.00000  Uiso   1.00
H287   H     0.33244   0.14004   0.95008   0.00000  Uiso   1.00
H288   H     0.35430   0.12007   0.99176   0.00000  Uiso   1.00
H289   H     0.41882   0.18386   0.98940   0.00000  Uiso   1.00
H290   H     0.43021   0.23069   0.99183   0.00000  Uiso   1.00
H291   H     0.39981   0.18463   0.06003   0.00000  Uiso   1.00
H292   H     0.40738   0.23326   0.06059   0.00000  Uiso   1.00
H293   H     0.36164   0.24084   0.00715   0.00000  Uiso   1.00
H294   H     0.34227   0.21965   0.04957   0.00000  Uiso   1.00
H295   H     0.35330   0.19223   0.00785   0.00000  Uiso   1.00
H296   H     0.42757   0.38075   0.20520   0.00000  Uiso   1.00
H297   H     0.44311   0.33731   0.01166   0.00000  Uiso   1.00
H298   H     0.43838   0.28945   0.00722   0.00000  Uiso   1.00
H299   H     0.42638   0.34455   0.94017   0.00000  Uiso   1.00
H300   H     0.41593   0.29647   0.93926   0.00000  Uiso   1.00
H301   H     0.37020   0.30592   0.99272   0.00000  Uiso   1.00
H302   H     0.35996   0.33244   0.95008   0.00000  Uiso   1.00
H303   H     0.37993   0.35430   0.99176   0.00000  Uiso   1.00
H304   H     0.31614   0.41882   0.98940   0.00000  Uiso   1.00
H305   H     0.26931   0.43021   0.99183   0.00000  Uiso   1.00
H306   H     0.31537   0.39982   0.06003   0.00000  Uiso   1.00
H307   H     0.07252   0.11934   0.79494   0.00000  Uiso   1.00
H308   H     0.26674   0.40738   0.06059   0.00000  Uiso   1.00
H309   H     0.25916   0.36164   0.00715   0.00000  Uiso   1.00
H310   H     0.28035   0.34227   0.04957   0.00000  Uiso   1.00
H311   H     0.30777   0.35330   0.00785   0.00000  Uiso   1.00
H312   H     0.16269   0.44311   0.01166   0.00000  Uiso   1.00
H313   H     0.21055   0.43838   0.00722   0.00000  Uiso   1.00
H314   H     0.15545   0.42638   0.94017   0.00000  Uiso   1.00
H315   H     0.20353   0.41593   0.93926   0.00000  Uiso   1.00
H316   H     0.19408   0.37020   0.99272   0.00000  Uiso   1.00
H317   H     0.16756   0.35996   0.95008   0.00000  Uiso   1.00
H318   H     0.11934   0.07252   0.79493   0.00000  Uiso   1.00
H319   H     0.14570   0.37993   0.99176   0.00000  Uiso   1.00
H320   H     0.08118   0.31614   0.98940   0.00000  Uiso   1.00
H321   H     0.06979   0.26931   0.99183   0.00000  Uiso   1.00
H322   H     0.10018   0.31537   0.06003   0.00000  Uiso   1.00
H323   H     0.09262   0.26674   0.06059   0.00000  Uiso   1.00
H324   H     0.13836   0.25916   0.00715   0.00000  Uiso   1.00
H325   H     0.15773   0.28035   0.04957   0.00000  Uiso   1.00
H326   H     0.14670   0.30778   0.00785   0.00000  Uiso   1.00
H327   H     0.05689   0.16269   0.01166   0.00000  Uiso   1.00
H328   H     0.06162   0.21055   0.00722   0.00000  Uiso   1.00
O329   O     0.25000   0.00000   0.25000   0.00000  Uiso   1.00
O330   O     0.25000   0.46964   0.66317   0.00000  Uiso   1.00
O331   O     0.46964   0.25000   0.33683   0.00000  Uiso   1.00
O332   O     0.03036   0.25000   0.66317   0.00000  Uiso   1.00
O333   O    -0.00000   0.21964   0.83683   0.00000  Uiso   1.00
O334   O    -0.00000   0.28036   0.16317   0.00000  Uiso   1.00
O335   O     0.28036   0.00000   0.83683   0.00000  Uiso   1.00
O336   O     0.21964   0.00000   0.16317   0.00000  Uiso   1.00
O337   O    -0.00000   0.28036   0.83683   0.00000  Uiso   1.00
O338   O     0.00000   0.21964   0.16317   0.00000  Uiso   1.00
O339   O     0.21964   0.00000   0.83683   0.00000  Uiso   1.00
O340   O     0.25000   0.00000   0.75000   0.00000  Uiso   1.00
O341   O     0.28036   0.00000   0.16317   0.00000  Uiso   1.00
O342   O     0.20725   0.07307   0.27282   0.00000  Uiso   1.00
O343   O     0.29274   0.42693   0.72718   0.00000  Uiso   1.00
O344   O     0.42693   0.20726   0.27282   0.00000  Uiso   1.00
O345   O     0.07307   0.29275   0.72718   0.00000  Uiso   1.00
O346   O     0.29274   0.42693   0.27282   0.00000  Uiso   1.00
O347   O     0.20725   0.07307   0.72718   0.00000  Uiso   1.00
O348   O     0.07307   0.29275   0.27282   0.00000  Uiso   1.00
O349   O     0.42693   0.20726   0.72718   0.00000  Uiso   1.00
O350   O     0.20725   0.42693   0.72718   0.00000  Uiso   1.00
O351   O    -0.00000   0.25000   0.25000   0.00000  Uiso   1.00
O352   O     0.29274   0.07307   0.27282   0.00000  Uiso   1.00
O353   O     0.42693   0.29275   0.72718   0.00000  Uiso   1.00
O354   O     0.07307   0.20726   0.27282   0.00000  Uiso   1.00
O355   O     0.29274   0.07307   0.72718   0.00000  Uiso   1.00
O356   O     0.20725   0.42693   0.27282   0.00000  Uiso   1.00
O357   O     0.07307   0.20726   0.72718   0.00000  Uiso   1.00
O358   O     0.42693   0.29275   0.27282   0.00000  Uiso   1.00
O359   O     0.45725   0.32307   0.77282   0.00000  Uiso   1.00
O360   O     0.04274   0.17693   0.22718   0.00000  Uiso   1.00
O361   O     0.17693   0.45726   0.77282   0.00000  Uiso   1.00
O362   O    -0.00000   0.25000   0.75000   0.00000  Uiso   1.00
O363   O     0.32307   0.04275   0.22718   0.00000  Uiso   1.00
O364   O     0.04274   0.17693   0.77282   0.00000  Uiso   1.00
O365   O     0.45725   0.32307   0.22718   0.00000  Uiso   1.00
O366   O     0.32307   0.04275   0.77282   0.00000  Uiso   1.00
O367   O     0.17693   0.45726   0.22718   0.00000  Uiso   1.00
O368   O     0.45725   0.17693   0.22718   0.00000  Uiso   1.00
O369   O     0.04274   0.32307   0.77282   0.00000  Uiso   1.00
O370   O     0.17693   0.04275   0.22718   0.00000  Uiso   1.00
O371   O     0.32307   0.45726   0.77282   0.00000  Uiso   1.00
O372   O     0.04274   0.32307   0.22718   0.00000  Uiso   1.00
O373   O     0.25000   0.46964   0.33683   0.00000  Uiso   1.00
O374   O     0.45725   0.17693   0.77282   0.00000  Uiso   1.00
O375   O     0.32307   0.45726   0.22718   0.00000  Uiso   1.00
O376   O     0.17693   0.04275   0.77282   0.00000  Uiso   1.00
O377   O     0.19425   0.03735   0.02399   0.00000  Uiso   1.00
O378   O     0.31435   0.01866   0.97649   0.00000  Uiso   1.00
O379   O     0.46265   0.19425   0.02399   0.00000  Uiso   1.00
O380   O     0.48134   0.31435   0.97649   0.00000  Uiso   1.00
O381   O     0.30575   0.46265   0.02399   0.00000  Uiso   1.00
O382   O     0.18565   0.48134   0.97649   0.00000  Uiso   1.00
O383   O     0.03735   0.30575   0.02399   0.00000  Uiso   1.00
O384   O     0.25000   0.03036   0.66317   0.00000  Uiso   1.00
O385   O     0.01866   0.18565   0.97649   0.00000  Uiso   1.00
O386   O     0.43565   0.26866   0.52351   0.00000  Uiso   1.00
O387   O     0.05575   0.28735   0.47601   0.00000  Uiso   1.00
O388   O     0.23134   0.43565   0.52351   0.00000  Uiso   1.00
O389   O     0.21265   0.05575   0.47601   0.00000  Uiso   1.00
O390   O     0.06435   0.23134   0.52351   0.00000  Uiso   1.00
O391   O     0.44425   0.21265   0.47601   0.00000  Uiso   1.00
O392   O     0.26866   0.06435   0.52351   0.00000  Uiso   1.00
O393   O     0.28735   0.44425   0.47601   0.00000  Uiso   1.00
O394   O     0.03036   0.25000   0.33683   0.00000  Uiso   1.00
O395   O     0.46964   0.25000   0.66317   0.00000  Uiso   1.00
O396   O     0.25000   0.03036   0.33683   0.00000  Uiso   1.00
Zn397  Zn    0.20660   0.00000   0.21760   0.00000  Uiso   1.00
Zn398  Zn    0.04340   0.25000   0.28240   0.00000  Uiso   1.00
Zn399  Zn    0.25000   0.45660   0.71760   0.00000  Uiso   1.00
Zn400  Zn    0.25000   0.04340   0.28240   0.00000  Uiso   1.00
Zn401  Zn    0.04340   0.25000   0.71760   0.00000  Uiso   1.00
Zn402  Zn    0.45660   0.25000   0.28240   0.00000  Uiso   1.00
Zn403  Zn    0.25000   0.04340   0.71760   0.00000  Uiso   1.00
Zn404  Zn    0.25000   0.45660   0.28240   0.00000  Uiso   1.00
Zn405  Zn    0.29340   0.00000   0.78240   0.00000  Uiso   1.00
Zn406  Zn   -0.00000   0.20660   0.21760   0.00000  Uiso   1.00
Zn407  Zn   -0.00000   0.29340   0.78240   0.00000  Uiso   1.00
Zn408  Zn    0.29340   0.00000   0.21760   0.00000  Uiso   1.00
Zn409  Zn    0.20660   0.00000   0.78240   0.00000  Uiso   1.00
Zn410  Zn   -0.00000   0.29340   0.21760   0.00000  Uiso   1.00
Zn411  Zn   -0.00000   0.20660   0.78240   0.00000  Uiso   1.00
Zn412  Zn    0.45660   0.25000   0.71760   0.00000  Uiso   1.00
C413   C     0.72284   0.01955   0.04225   0.00000  Uiso   1.00
C414   C     0.52716   0.26955   0.45775   0.00000  Uiso   1.00
C415   C     0.84814   0.40186   0.75000   0.00000  Uiso   1.00
C416   C     0.90186   0.15186   0.25000   0.00000  Uiso   1.00
C417   C     0.59814   0.34814   0.75000   0.00000  Uiso   1.00
C418   C     0.84814   0.40186   0.25000   0.00000  Uiso   1.00
C419   C     0.65186   0.09814   0.75000   0.00000  Uiso   1.00
C420   C     0.59814   0.15186   0.75000   0.00000  Uiso   1.00
C421   C     0.90186   0.34814   0.25000   0.00000  Uiso   1.00
C422   C     0.65186   0.40186   0.75000   0.00000  Uiso   1.00
C423   C     0.84814   0.09814   0.25000   0.00000  Uiso   1.00
C424   C     0.90186   0.34814   0.75000   0.00000  Uiso   1.00
C425   C     0.73931   0.46831   0.54185   0.00000  Uiso   1.00
C426   C     0.59814   0.15186   0.25000   0.00000  Uiso   1.00
C427   C     0.84814   0.09814   0.75000   0.00000  Uiso   1.00
C428   C     0.65186   0.40186   0.25000   0.00000  Uiso   1.00
C429   C     0.75000   0.00000   0.10269   0.00000  Uiso   1.00
C430   C     0.75000   0.00000   0.89758   0.00000  Uiso   1.00
C431   C     0.50000   0.25000   0.10269   0.00000  Uiso   1.00
C432   C     0.50000   0.25000   0.89758   0.00000  Uiso   1.00
C433   C     0.50000   0.25000   0.60242   0.00000  Uiso   1.00
C434   C     0.50000   0.25000   0.39731   0.00000  Uiso   1.00
C435   C     0.75000   0.00000   0.60242   0.00000  Uiso   1.00
C436   C     0.73045   0.02716   0.45775   0.00000  Uiso   1.00
C437   C     0.75000   0.00000   0.39731   0.00000  Uiso   1.00
C438   C     0.70550   0.07162   0.00948   0.00000  Uiso   1.00
C439   C     0.70969   0.09993   0.04193   0.00000  Uiso   1.00
C440   C     0.71599   0.13802   0.02549   0.00000  Uiso   1.00
C441   C     0.81446   0.05484   0.99066   0.00000  Uiso   1.00
C442   C     0.82099   0.08254   0.95808   0.00000  Uiso   1.00
C443   C     0.82887   0.12044   0.97429   0.00000  Uiso   1.00
C444   C     0.92838   0.20550   0.00948   0.00000  Uiso   1.00
C445   C     0.90007   0.20969   0.04193   0.00000  Uiso   1.00
C446   C     0.86198   0.21599   0.02549   0.00000  Uiso   1.00
C447   C     0.53169   0.23931   0.54185   0.00000  Uiso   1.00
C448   C     0.94516   0.31447   0.99066   0.00000  Uiso   1.00
C449   C     0.91746   0.32099   0.95808   0.00000  Uiso   1.00
C450   C     0.87956   0.32887   0.97429   0.00000  Uiso   1.00
C451   C     0.79450   0.42838   0.00948   0.00000  Uiso   1.00
C452   C     0.79031   0.40007   0.04193   0.00000  Uiso   1.00
C453   C     0.78401   0.36198   0.02549   0.00000  Uiso   1.00
C454   C     0.68553   0.44517   0.99066   0.00000  Uiso   1.00
C455   C     0.67901   0.41746   0.95808   0.00000  Uiso   1.00
C456   C     0.67113   0.37957   0.97429   0.00000  Uiso   1.00
C457   C     0.57162   0.29450   0.00948   0.00000  Uiso   1.00
C458   C     0.97284   0.23045   0.45775   0.00000  Uiso   1.00
C459   C     0.59992   0.29031   0.04193   0.00000  Uiso   1.00
C460   C     0.63802   0.28401   0.02549   0.00000  Uiso   1.00
C461   C     0.55483   0.18553   0.99066   0.00000  Uiso   1.00
C462   C     0.58254   0.17901   0.95808   0.00000  Uiso   1.00
C463   C     0.62043   0.17113   0.97429   0.00000  Uiso   1.00
C464   C     0.93553   0.30484   0.50934   0.00000  Uiso   1.00
C465   C     0.92901   0.33254   0.54192   0.00000  Uiso   1.00
C466   C     0.92113   0.37044   0.52572   0.00000  Uiso   1.00
C467   C     0.54450   0.32162   0.49052   0.00000  Uiso   1.00
C468   C     0.54031   0.34993   0.45807   0.00000  Uiso   1.00
C469   C     0.76069   0.03169   0.54185   0.00000  Uiso   1.00
C470   C     0.53401   0.38802   0.47451   0.00000  Uiso   1.00
C471   C     0.69516   0.43553   0.50934   0.00000  Uiso   1.00
C472   C     0.66746   0.42901   0.54192   0.00000  Uiso   1.00
C473   C     0.62956   0.42113   0.52572   0.00000  Uiso   1.00
C474   C     0.67838   0.04450   0.49052   0.00000  Uiso   1.00
C475   C     0.65007   0.04031   0.45807   0.00000  Uiso   1.00
C476   C     0.61198   0.03401   0.47451   0.00000  Uiso   1.00
C477   C     0.56446   0.19517   0.50934   0.00000  Uiso   1.00
C478   C     0.57099   0.16746   0.54192   0.00000  Uiso   1.00
C479   C     0.57887   0.12957   0.52572   0.00000  Uiso   1.00
C480   C     0.76955   0.47284   0.45775   0.00000  Uiso   1.00
C481   C     0.95550   0.17838   0.49052   0.00000  Uiso   1.00
C482   C     0.95969   0.15007   0.45807   0.00000  Uiso   1.00
C483   C     0.96599   0.11198   0.47451   0.00000  Uiso   1.00
C484   C     0.80483   0.06447   0.50934   0.00000  Uiso   1.00
C485   C     0.83254   0.07099   0.54192   0.00000  Uiso   1.00
C486   C     0.87043   0.07887   0.52572   0.00000  Uiso   1.00
C487   C     0.82162   0.45550   0.49052   0.00000  Uiso   1.00
C488   C     0.84993   0.45969   0.45807   0.00000  Uiso   1.00
C489   C     0.88802   0.46599   0.47451   0.00000  Uiso   1.00
C490   C     0.72229   0.01788   0.08252   0.00000  Uiso   1.00
C491   C     0.78165   0.00926   0.91786   0.00000  Uiso   1.00
C492   C     0.98212   0.22229   0.08252   0.00000  Uiso   1.00
C493   C     0.78169   0.01069   0.95815   0.00000  Uiso   1.00
C494   C     0.99074   0.28165   0.91786   0.00000  Uiso   1.00
C495   C     0.77771   0.48212   0.08252   0.00000  Uiso   1.00
C496   C     0.71835   0.49074   0.91786   0.00000  Uiso   1.00
C497   C     0.51788   0.27771   0.08252   0.00000  Uiso   1.00
C498   C     0.50926   0.21835   0.91786   0.00000  Uiso   1.00
C499   C     0.96835   0.25926   0.58214   0.00000  Uiso   1.00
C500   C     0.52771   0.26788   0.41748   0.00000  Uiso   1.00
C501   C     0.74074   0.46835   0.58214   0.00000  Uiso   1.00
C502   C     0.73212   0.02771   0.41748   0.00000  Uiso   1.00
C503   C     0.53165   0.24074   0.58214   0.00000  Uiso   1.00
C504   C     0.98045   0.22284   0.04225   0.00000  Uiso   1.00
C505   C     0.97229   0.23212   0.41748   0.00000  Uiso   1.00
C506   C     0.75926   0.03165   0.58214   0.00000  Uiso   1.00
C507   C     0.76788   0.47229   0.41748   0.00000  Uiso   1.00
C508   C     0.75000   0.00000   0.02155   0.00000  Uiso   1.00
C509   C     0.75000   0.00000   0.97882   0.00000  Uiso   1.00
C510   C     0.50000   0.25000   0.02155   0.00000  Uiso   1.00
C511   C     0.50000   0.25000   0.97882   0.00000  Uiso   1.00
C512   C     0.50000   0.25000   0.52118   0.00000  Uiso   1.00
C513   C     0.50000   0.25000   0.47845   0.00000  Uiso   1.00
C514   C     0.75000   0.00000   0.52118   0.00000  Uiso   1.00
C515   C     0.98931   0.28169   0.95815   0.00000  Uiso   1.00
C516   C     0.75000   0.00000   0.47845   0.00000  Uiso   1.00
C517   C     0.75000   0.00000   0.35512   0.00000  Uiso   1.00
C518   C     0.75000   0.00000   0.64479   0.00000  Uiso   1.00
C519   C     0.50000   0.25000   0.35512   0.00000  Uiso   1.00
C520   C     0.50000   0.25000   0.64479   0.00000  Uiso   1.00
C521   C     0.50000   0.25000   0.85522   0.00000  Uiso   1.00
C522   C     0.50000   0.25000   0.14488   0.00000  Uiso   1.00
C523   C     0.75000   0.00000   0.85522   0.00000  Uiso   1.00
C524   C     0.75000   0.00000   0.14488   0.00000  Uiso   1.00
C525   C     0.67993   0.07007   0.25000   0.00000  Uiso   1.00
C526   C     0.77716   0.48045   0.04225   0.00000  Uiso   1.00
C527   C     0.82007   0.42993   0.75000   0.00000  Uiso   1.00
C528   C     0.92993   0.17993   0.25000   0.00000  Uiso   1.00
C529   C     0.57007   0.32007   0.75000   0.00000  Uiso   1.00
C530   C     0.82007   0.42993   0.25000   0.00000  Uiso   1.00
C531   C     0.67993   0.07007   0.75000   0.00000  Uiso   1.00
C532   C     0.57007   0.32007   0.25000   0.00000  Uiso   1.00
C533   C     0.92993   0.17993   0.75000   0.00000  Uiso   1.00
C534   C     0.67993   0.42993   0.75000   0.00000  Uiso   1.00
C535   C     0.82007   0.07007   0.25000   0.00000  Uiso   1.00
C536   C     0.92993   0.32007   0.75000   0.00000  Uiso   1.00
C537   C     0.71831   0.48931   0.95815   0.00000  Uiso   1.00
C538   C     0.57007   0.17993   0.25000   0.00000  Uiso   1.00
C539   C     0.82007   0.07007   0.75000   0.00000  Uiso   1.00
C540   C     0.67993   0.42993   0.25000   0.00000  Uiso   1.00
C541   C     0.57007   0.17993   0.75000   0.00000  Uiso   1.00
C542   C     0.92993   0.32007   0.25000   0.00000  Uiso   1.00
C543   C     0.62200   0.40473   0.22486   0.00000  Uiso   1.00
C544   C     0.87795   0.09532   0.77521   0.00000  Uiso   1.00
C545   C     0.59527   0.12200   0.22486   0.00000  Uiso   1.00
C546   C     0.90468   0.37795   0.77521   0.00000  Uiso   1.00
C547   C     0.87800   0.09527   0.22486   0.00000  Uiso   1.00
C548   C     0.51955   0.27716   0.04225   0.00000  Uiso   1.00
C549   C     0.62205   0.40468   0.77521   0.00000  Uiso   1.00
C550   C     0.90473   0.37800   0.22486   0.00000  Uiso   1.00
C551   C     0.59532   0.12205   0.77521   0.00000  Uiso   1.00
C552   C     0.62204   0.09532   0.77521   0.00000  Uiso   1.00
C553   C     0.87800   0.40473   0.22486   0.00000  Uiso   1.00
C554   C     0.59532   0.37796   0.77521   0.00000  Uiso   1.00
C555   C     0.90473   0.12200   0.22486   0.00000  Uiso   1.00
C556   C     0.87796   0.40468   0.77521   0.00000  Uiso   1.00
C557   C     0.62200   0.09527   0.22486   0.00000  Uiso   1.00
C558   C     0.90468   0.12204   0.77521   0.00000  Uiso   1.00
C559   C     0.51069   0.21831   0.95815   0.00000  Uiso   1.00
C560   C     0.59527   0.37800   0.22486   0.00000  Uiso   1.00
C561   C     0.87204   0.15468   0.72479   0.00000  Uiso   1.00
C562   C     0.62800   0.34527   0.27514   0.00000  Uiso   1.00
C563   C     0.84532   0.37204   0.72479   0.00000  Uiso   1.00
C564   C     0.65473   0.12800   0.27514   0.00000  Uiso   1.00
C565   C     0.62796   0.34532   0.72479   0.00000  Uiso   1.00
C566   C     0.87200   0.15473   0.27514   0.00000  Uiso   1.00
C567   C     0.65468   0.12796   0.72479   0.00000  Uiso   1.00
C568   C     0.84527   0.37200   0.27514   0.00000  Uiso   1.00
C569   C     0.87200   0.34527   0.27514   0.00000  Uiso   1.00
C570   C     0.96831   0.26069   0.54185   0.00000  Uiso   1.00
C571   C     0.62795   0.15468   0.72479   0.00000  Uiso   1.00
C572   C     0.84527   0.12800   0.27514   0.00000  Uiso   1.00
C573   C     0.65468   0.37205   0.72479   0.00000  Uiso   1.00
C574   C     0.62800   0.15473   0.27514   0.00000  Uiso   1.00
C575   C     0.87205   0.34532   0.72479   0.00000  Uiso   1.00
C576   C     0.65473   0.37200   0.27514   0.00000  Uiso   1.00
C577   C     0.84532   0.12795   0.72479   0.00000  Uiso   1.00
C578   C     0.59814   0.34814   0.25000   0.00000  Uiso   1.00
C579   C     0.90186   0.15186   0.75000   0.00000  Uiso   1.00
C580   C     0.65186   0.09814   0.25000   0.00000  Uiso   1.00
H581   H     0.61925   0.42757   0.20520   0.00000  Uiso   1.00
H582   H     0.88075   0.42757   0.20519   0.00000  Uiso   1.00
H583   H     0.57362   0.15546   0.94017   0.00000  Uiso   1.00
H584   H     0.58407   0.20353   0.93926   0.00000  Uiso   1.00
H585   H     0.62980   0.19408   0.99272   0.00000  Uiso   1.00
H586   H     0.64004   0.16756   0.95008   0.00000  Uiso   1.00
H587   H     0.62007   0.14570   0.99176   0.00000  Uiso   1.00
H588   H     0.91269   0.30689   0.48834   0.00000  Uiso   1.00
H589   H     0.96055   0.31162   0.49278   0.00000  Uiso   1.00
H590   H     0.90545   0.32362   0.55983   0.00000  Uiso   1.00
H591   H     0.95353   0.33407   0.56074   0.00000  Uiso   1.00
H592   H     0.94408   0.37980   0.50728   0.00000  Uiso   1.00
H593   H     0.57252   0.38066   0.79493   0.00000  Uiso   1.00
H594   H     0.91756   0.39004   0.54992   0.00000  Uiso   1.00
H595   H     0.89570   0.37007   0.50824   0.00000  Uiso   1.00
H596   H     0.56614   0.33118   0.51060   0.00000  Uiso   1.00
H597   H     0.51931   0.31979   0.50817   0.00000  Uiso   1.00
H598   H     0.56537   0.35018   0.43997   0.00000  Uiso   1.00
H599   H     0.51674   0.34262   0.43941   0.00000  Uiso   1.00
H600   H     0.50916   0.38836   0.49285   0.00000  Uiso   1.00
H601   H     0.53035   0.40773   0.45043   0.00000  Uiso   1.00
H602   H     0.55777   0.39670   0.49215   0.00000  Uiso   1.00
H603   H     0.69311   0.41269   0.48834   0.00000  Uiso   1.00
H604   H     0.92757   0.11925   0.20519   0.00000  Uiso   1.00
H605   H     0.68838   0.46055   0.49278   0.00000  Uiso   1.00
H606   H     0.67638   0.40546   0.55983   0.00000  Uiso   1.00
H607   H     0.66593   0.45353   0.56074   0.00000  Uiso   1.00
H608   H     0.62020   0.44408   0.50728   0.00000  Uiso   1.00
H609   H     0.60996   0.41756   0.54992   0.00000  Uiso   1.00
H610   H     0.62993   0.39570   0.50824   0.00000  Uiso   1.00
H611   H     0.66882   0.06614   0.51060   0.00000  Uiso   1.00
H612   H     0.68021   0.01931   0.50817   0.00000  Uiso   1.00
H613   H     0.64981   0.06537   0.43997   0.00000  Uiso   1.00
H614   H     0.65738   0.01674   0.43941   0.00000  Uiso   1.00
H615   H     0.88066   0.42748   0.79493   0.00000  Uiso   1.00
H616   H     0.61164   0.00916   0.49285   0.00000  Uiso   1.00
H617   H     0.59227   0.03035   0.45043   0.00000  Uiso   1.00
H618   H     0.60330   0.05778   0.49215   0.00000  Uiso   1.00
H619   H     0.58731   0.19311   0.48834   0.00000  Uiso   1.00
H620   H     0.53945   0.18838   0.49278   0.00000  Uiso   1.00
H621   H     0.59454   0.17638   0.55983   0.00000  Uiso   1.00
H622   H     0.54647   0.16593   0.56074   0.00000  Uiso   1.00
H623   H     0.55592   0.12020   0.50728   0.00000  Uiso   1.00
H624   H     0.58244   0.10996   0.54992   0.00000  Uiso   1.00
H625   H     0.60430   0.12993   0.50824   0.00000  Uiso   1.00
H626   H     0.61925   0.07243   0.20519   0.00000  Uiso   1.00
H627   H     0.93386   0.16882   0.51060   0.00000  Uiso   1.00
H628   H     0.98069   0.18021   0.50817   0.00000  Uiso   1.00
H629   H     0.93463   0.14982   0.43997   0.00000  Uiso   1.00
H630   H     0.98326   0.15738   0.43941   0.00000  Uiso   1.00
H631   H     0.99084   0.11164   0.49285   0.00000  Uiso   1.00
H632   H     0.96965   0.09227   0.45043   0.00000  Uiso   1.00
H633   H     0.94222   0.10330   0.49215   0.00000  Uiso   1.00
H634   H     0.80689   0.08731   0.48834   0.00000  Uiso   1.00
H635   H     0.81162   0.03945   0.49278   0.00000  Uiso   1.00
H636   H     0.82362   0.09455   0.55983   0.00000  Uiso   1.00
H637   H     0.92748   0.11934   0.79493   0.00000  Uiso   1.00
H638   H     0.83407   0.04647   0.56074   0.00000  Uiso   1.00
H639   H     0.87980   0.05592   0.50728   0.00000  Uiso   1.00
H640   H     0.89004   0.08244   0.54992   0.00000  Uiso   1.00
H641   H     0.87007   0.10430   0.50824   0.00000  Uiso   1.00
H642   H     0.83118   0.43386   0.51060   0.00000  Uiso   1.00
H643   H     0.81979   0.48069   0.50817   0.00000  Uiso   1.00
H644   H     0.85018   0.43463   0.43997   0.00000  Uiso   1.00
H645   H     0.84262   0.48326   0.43941   0.00000  Uiso   1.00
H646   H     0.88836   0.49084   0.49285   0.00000  Uiso   1.00
H647   H     0.90773   0.46965   0.45043   0.00000  Uiso   1.00
H648   H     0.57243   0.38075   0.20519   0.00000  Uiso   1.00
H649   H     0.89670   0.44223   0.49215   0.00000  Uiso   1.00
H650   H     0.86934   0.17748   0.70507   0.00000  Uiso   1.00
H651   H     0.63075   0.32243   0.29481   0.00000  Uiso   1.00
H652   H     0.82252   0.36934   0.70507   0.00000  Uiso   1.00
H653   H     0.88066   0.07252   0.79494   0.00000  Uiso   1.00
H654   H     0.67757   0.13075   0.29481   0.00000  Uiso   1.00
H655   H     0.63066   0.32252   0.70507   0.00000  Uiso   1.00
H656   H     0.86925   0.17757   0.29481   0.00000  Uiso   1.00
H657   H     0.67748   0.13066   0.70507   0.00000  Uiso   1.00
H658   H     0.82243   0.36925   0.29481   0.00000  Uiso   1.00
H659   H     0.86925   0.32243   0.29480   0.00000  Uiso   1.00
H660   H     0.63066   0.17748   0.70506   0.00000  Uiso   1.00
H661   H     0.82243   0.13075   0.29480   0.00000  Uiso   1.00
H662   H     0.67748   0.36934   0.70506   0.00000  Uiso   1.00
H663   H     0.63075   0.17757   0.29480   0.00000  Uiso   1.00
H664   H     0.57243   0.11925   0.20520   0.00000  Uiso   1.00
H665   H     0.86934   0.32252   0.70506   0.00000  Uiso   1.00
H666   H     0.67757   0.36925   0.29480   0.00000  Uiso   1.00
H667   H     0.82252   0.13066   0.70506   0.00000  Uiso   1.00
H668   H     0.70068   0.03169   0.09810   0.00000  Uiso   1.00
H669   H     0.80642   0.01621   0.90245   0.00000  Uiso   1.00
H670   H     0.96831   0.20068   0.09810   0.00000  Uiso   1.00
H671   H     0.98379   0.30642   0.90245   0.00000  Uiso   1.00
H672   H     0.79932   0.46831   0.09810   0.00000  Uiso   1.00
H673   H     0.69358   0.48379   0.90245   0.00000  Uiso   1.00
H674   H     0.53169   0.29932   0.09810   0.00000  Uiso   1.00
H675   H     0.92748   0.38066   0.79494   0.00000  Uiso   1.00
H676   H     0.51621   0.19358   0.90245   0.00000  Uiso   1.00
H677   H     0.94358   0.26621   0.59755   0.00000  Uiso   1.00
H678   H     0.54932   0.28169   0.40190   0.00000  Uiso   1.00
H679   H     0.73379   0.44358   0.59755   0.00000  Uiso   1.00
H680   H     0.71831   0.04932   0.40190   0.00000  Uiso   1.00
H681   H     0.55642   0.23379   0.59755   0.00000  Uiso   1.00
H682   H     0.95068   0.21831   0.40190   0.00000  Uiso   1.00
H683   H     0.76621   0.05642   0.59755   0.00000  Uiso   1.00
H684   H     0.78169   0.45068   0.40190   0.00000  Uiso   1.00
H685   H     0.68386   0.08118   0.98940   0.00000  Uiso   1.00
H686   H     0.88075   0.07243   0.20520   0.00000  Uiso   1.00
H687   H     0.73069   0.06979   0.99183   0.00000  Uiso   1.00
H688   H     0.68463   0.10018   0.06003   0.00000  Uiso   1.00
H689   H     0.73326   0.09262   0.06059   0.00000  Uiso   1.00
H690   H     0.74084   0.13836   0.00715   0.00000  Uiso   1.00
H691   H     0.71965   0.15773   0.04957   0.00000  Uiso   1.00
H692   H     0.69222   0.14670   0.00785   0.00000  Uiso   1.00
H693   H     0.83731   0.05689   0.01166   0.00000  Uiso   1.00
H694   H     0.78945   0.06162   0.00722   0.00000  Uiso   1.00
H695   H     0.84454   0.07362   0.94017   0.00000  Uiso   1.00
H696   H     0.79647   0.08407   0.93926   0.00000  Uiso   1.00
H697   H     0.61934   0.42748   0.79494   0.00000  Uiso   1.00
H698   H     0.80592   0.12980   0.99272   0.00000  Uiso   1.00
H699   H     0.83244   0.14004   0.95008   0.00000  Uiso   1.00
H700   H     0.85430   0.12007   0.99176   0.00000  Uiso   1.00
H701   H     0.91882   0.18386   0.98940   0.00000  Uiso   1.00
H702   H     0.93021   0.23069   0.99183   0.00000  Uiso   1.00
H703   H     0.89981   0.18463   0.06003   0.00000  Uiso   1.00
H704   H     0.90738   0.23326   0.06059   0.00000  Uiso   1.00
H705   H     0.86164   0.24084   0.00715   0.00000  Uiso   1.00
H706   H     0.84227   0.21965   0.04957   0.00000  Uiso   1.00
H707   H     0.85330   0.19223   0.00785   0.00000  Uiso   1.00
H708   H     0.92757   0.38075   0.20520   0.00000  Uiso   1.00
H709   H     0.94311   0.33731   0.01166   0.00000  Uiso   1.00
H710   H     0.93838   0.28945   0.00722   0.00000  Uiso   1.00
H711   H     0.92638   0.34455   0.94017   0.00000  Uiso   1.00
H712   H     0.91593   0.29647   0.93926   0.00000  Uiso   1.00
H713   H     0.87020   0.30592   0.99272   0.00000  Uiso   1.00
H714   H     0.85996   0.33244   0.95008   0.00000  Uiso   1.00
H715   H     0.87993   0.35430   0.99176   0.00000  Uiso   1.00
H716   H     0.81614   0.41882   0.98940   0.00000  Uiso   1.00
H717   H     0.76931   0.43021   0.99183   0.00000  Uiso   1.00
H718   H     0.81537   0.39982   0.06003   0.00000  Uiso   1.00
H719   H     0.57252   0.11934   0.79494   0.00000  Uiso   1.00
H720   H     0.76674   0.40738   0.06059   0.00000  Uiso   1.00
H721   H     0.75916   0.36164   0.00715   0.00000  Uiso   1.00
H722   H     0.78035   0.34227   0.04957   0.00000  Uiso   1.00
H723   H     0.80777   0.35330   0.00785   0.00000  Uiso   1.00
H724   H     0.66269   0.44311   0.01166   0.00000  Uiso   1.00
H725   H     0.71055   0.43838   0.00722   0.00000  Uiso   1.00
H726   H     0.65545   0.42638   0.94017   0.00000  Uiso   1.00
H727   H     0.70353   0.41593   0.93926   0.00000  Uiso   1.00
H728   H     0.69408   0.37020   0.99272   0.00000  Uiso   1.00
H729   H     0.66756   0.35996   0.95008   0.00000  Uiso   1.00
H730   H     0.61934   0.07252   0.79493   0.00000  Uiso   1.00
H731   H     0.64570   0.37993   0.99176   0.00000  Uiso   1.00
H732   H     0.58118   0.31614   0.98940   0.00000  Uiso   1.00
H733   H     0.56979   0.26931   0.99183   0.00000  Uiso   1.00
H734   H     0.60018   0.31537   0.06003   0.00000  Uiso   1.00
H735   H     0.59262   0.26674   0.06059   0.00000  Uiso   1.00
H736   H     0.63836   0.25916   0.00715   0.00000  Uiso   1.00
H737   H     0.65773   0.28035   0.04957   0.00000  Uiso   1.00
H738   H     0.64670   0.30778   0.00785   0.00000  Uiso   1.00
H739   H     0.55689   0.16269   0.01166   0.00000  Uiso   1.00
H740   H     0.56162   0.21055   0.00722   0.00000  Uiso   1.00
O741   O     0.75000   0.00000   0.25000   0.00000  Uiso   1.00
O742   O     0.75000   0.46964   0.66317   0.00000  Uiso   1.00
O743   O     0.96964   0.25000   0.33683   0.00000  Uiso   1.00
O744   O     0.53036   0.25000   0.66317   0.00000  Uiso   1.00
O745   O     0.50000   0.21964   0.83683   0.00000  Uiso   1.00
O746   O     0.50000   0.28036   0.16317   0.00000  Uiso   1.00
O747   O     0.78036   0.00000   0.83683   0.00000  Uiso   1.00
O748   O     0.71964   0.00000   0.16317   0.00000  Uiso   1.00
O749   O     0.50000   0.28036   0.83683   0.00000  Uiso   1.00
O750   O     0.50000   0.21964   0.16317   0.00000  Uiso   1.00
O751   O     0.71964   0.00000   0.83683   0.00000  Uiso   1.00
O752   O     0.75000   0.00000   0.75000   0.00000  Uiso   1.00
O753   O     0.78036   0.00000   0.16317   0.00000  Uiso   1.00
O754   O     0.70725   0.07307   0.27282   0.00000  Uiso   1.00
O755   O     0.79274   0.42693   0.72718   0.00000  Uiso   1.00
O756   O     0.92693   0.20726   0.27282   0.00000  Uiso   1.00
O757   O     0.57307   0.29275   0.72718   0.00000  Uiso   1.00
O758   O     0.79274   0.42693   0.27282   0.00000  Uiso   1.00
O759   O     0.70725   0.07307   0.72718   0.00000  Uiso   1.00
O760   O     0.57307   0.29275   0.27282   0.00000  Uiso   1.00
O761   O     0.92693   0.20726   0.72718   0.00000  Uiso   1.00
O762   O     0.70725   0.42693   0.72718   0.00000  Uiso   1.00
O763   O     0.50000   0.25000   0.25000   0.00000  Uiso   1.00
O764   O     0.79274   0.07307   0.27282   0.00000  Uiso   1.00
O765   O     0.92693   0.29275   0.72718   0.00000  Uiso   1.00
O766   O     0.57307   0.20726   0.27282   0.00000  Uiso   1.00
O767   O     0.79274   0.07307   0.72718   0.00000  Uiso   1.00
O768   O     0.70725   0.42693   0.27282   0.00000  Uiso   1.00
O769   O     0.57307   0.20726   0.72718   0.00000  Uiso   1.00
O770   O     0.92693   0.29275   0.27282   0.00000  Uiso   1.00
O771   O     0.95725   0.32307   0.77282   0.00000  Uiso   1.00
O772   O     0.54274   0.17693   0.22718   0.00000  Uiso   1.00
O773   O     0.67693   0.45726   0.77282   0.00000  Uiso   1.00
O774   O     0.50000   0.25000   0.75000   0.00000  Uiso   1.00
O775   O     0.82307   0.04275   0.22718   0.00000  Uiso   1.00
O776   O     0.54274   0.17693   0.77282   0.00000  Uiso   1.00
O777   O     0.95725   0.32307   0.22718   0.00000  Uiso   1.00
O778   O     0.82307   0.04275   0.77282   0.00000  Uiso   1.00
O779   O     0.67693   0.45726   0.22718   0.00000  Uiso   1.00
O780   O     0.95725   0.17693   0.22718   0.00000  Uiso   1.00
O781   O     0.54274   0.32307   0.77282   0.00000  Uiso   1.00
O782   O     0.67693   0.04275   0.22718   0.00000  Uiso   1.00
O783   O     0.82307   0.45726   0.77282   0.00000  Uiso   1.00
O784   O     0.54274   0.32307   0.22718   0.00000  Uiso   1.00
O785   O     0.75000   0.46964   0.33683   0.00000  Uiso   1.00
O786   O     0.95725   0.17693   0.77282   0.00000  Uiso   1.00
O787   O     0.82307   0.45726   0.22718   0.00000  Uiso   1.00
O788   O     0.67693   0.04275   0.77282   0.00000  Uiso   1.00
O789   O     0.69425   0.03735   0.02399   0.00000  Uiso   1.00
O790   O     0.81435   0.01866   0.97649   0.00000  Uiso   1.00
O791   O     0.96265   0.19425   0.02399   0.00000  Uiso   1.00
O792   O     0.98134   0.31435   0.97649   0.00000  Uiso   1.00
O793   O     0.80575   0.46265   0.02399   0.00000  Uiso   1.00
O794   O     0.68565   0.48134   0.97649   0.00000  Uiso   1.00
O795   O     0.53735   0.30575   0.02399   0.00000  Uiso   1.00
O796   O     0.75000   0.03036   0.66317   0.00000  Uiso   1.00
O797   O     0.51866   0.18565   0.97649   0.00000  Uiso   1.00
O798   O     0.93565   0.26866   0.52351   0.00000  Uiso   1.00
O799   O     0.55575   0.28735   0.47601   0.00000  Uiso   1.00
O800   O     0.73134   0.43565   0.52351   0.00000  Uiso   1.00
O801   O     0.71265   0.05575   0.47601   0.00000  Uiso   1.00
O802   O     0.56435   0.23134   0.52351   0.00000  Uiso   1.00
O803   O     0.94425   0.21265   0.47601   0.00000  Uiso   1.00
O804   O     0.76866   0.06435   0.52351   0.00000  Uiso   1.00
O805   O     0.78735   0.44425   0.47601   0.00000  Uiso   1.00
O806   O     0.53036   0.25000   0.33683   0.00000  Uiso   1.00
O807   O     0.96964   0.25000   0.66317   0.00000  Uiso   1.00
O808   O     0.75000   0.03036   0.33683   0.00000  Uiso   1.00
Zn809  Zn    0.70660   0.00000   0.21760   0.00000  Uiso   1.00
Zn810  Zn    0.54340   0.25000   0.28240   0.00000  Uiso   1.00
Zn811  Zn    0.75000   0.45660   0.71760   0.00000  Uiso   1.00
Zn812  Zn    0.75000   0.04340   0.28240   0.00000  Uiso   1.00
Zn813  Zn    0.54340   0.25000   0.71760   0.00000  Uiso   1.00
Zn814  Zn    0.95660   0.25000   0.28240   0.00000  Uiso   1.00
Zn815  Zn    0.75000   0.04340   0.71760   0.00000  Uiso   1.00
Zn816  Zn    0.75000   0.45660   0.28240   0.00000  Uiso   1.00
Zn817  Zn    0.79340   0.00000   0.78240   0.00000  Uiso   1.00
Zn818  Zn    0.50000   0.20660   0.21760   0.00000  Uiso   1.00
Zn819  Zn    0.50000   0.29340   0.78240   0.00000  Uiso   1.00
Zn820  Zn    0.79340   0.00000   0.21760   0.00000  Uiso   1.00
Zn821  Zn    0.70660   0.00000   0.78240   0.00000  Uiso   1.00
Zn822  Zn    0.50000   0.29340   0.21760   0.00000  Uiso   1.00
Zn823  Zn    0.50000   0.20660   0.78240   0.00000  Uiso   1.00
Zn824  Zn    0.95660   0.25000   0.71760   0.00000  Uiso   1.00
C825   C     0.22284   0.51955   0.04225   0.00000  Uiso   1.00
C826   C     0.02716   0.76955   0.45775   0.00000  Uiso   1.00
C827   C     0.34814   0.90186   0.75000   0.00000  Uiso   1.00
C828   C     0.40186   0.65186   0.25000   0.00000  Uiso   1.00
C829   C     0.09814   0.84814   0.75000   0.00000  Uiso   1.00
C830   C     0.34814   0.90186   0.25000   0.00000  Uiso   1.00
C831   C     0.15186   0.59814   0.75000   0.00000  Uiso   1.00
C832   C     0.09814   0.65186   0.75000   0.00000  Uiso   1.00
C833   C     0.40186   0.84814   0.25000   0.00000  Uiso   1.00
C834   C     0.15186   0.90186   0.75000   0.00000  Uiso   1.00
C835   C     0.34814   0.59814   0.25000   0.00000  Uiso   1.00
C836   C     0.40186   0.84814   0.75000   0.00000  Uiso   1.00
C837   C     0.23931   0.96831   0.54185   0.00000  Uiso   1.00
C838   C     0.09814   0.65186   0.25000   0.00000  Uiso   1.00
C839   C     0.34814   0.59814   0.75000   0.00000  Uiso   1.00
C840   C     0.15186   0.90186   0.25000   0.00000  Uiso   1.00
C841   C     0.25000   0.50000   0.10269   0.00000  Uiso   1.00
C842   C     0.25000   0.50000   0.89758   0.00000  Uiso   1.00
C843   C    -0.00000   0.75000   0.10269   0.00000  Uiso   1.00
C844   C     0.00000   0.75000   0.89758   0.00000  Uiso   1.00
C845   C    -0.00000   0.75000   0.60242   0.00000  Uiso   1.00
C846   C    -0.00000   0.75000   0.39731   0.00000  Uiso   1.00
C847   C     0.25000   0.50000   0.60242   0.00000  Uiso   1.00
C848   C     0.23045   0.52716   0.45775   0.00000  Uiso   1.00
C849   C     0.25000   0.50000   0.39731   0.00000  Uiso   1.00
C850   C     0.20550   0.57162   0.00948   0.00000  Uiso   1.00
C851   C     0.20969   0.59993   0.04193   0.00000  Uiso   1.00
C852   C     0.21599   0.63802   0.02549   0.00000  Uiso   1.00
C853   C     0.31446   0.55484   0.99066   0.00000  Uiso   1.00
C854   C     0.32099   0.58254   0.95808   0.00000  Uiso   1.00
C855   C     0.32887   0.62044   0.97429   0.00000  Uiso   1.00
C856   C     0.42838   0.70550   0.00948   0.00000  Uiso   1.00
C857   C     0.40007   0.70969   0.04193   0.00000  Uiso   1.00
C858   C     0.36198   0.71599   0.02549   0.00000  Uiso   1.00
C859   C     0.03169   0.73931   0.54185   0.00000  Uiso   1.00
C860   C     0.44516   0.81447   0.99066   0.00000  Uiso   1.00
C861   C     0.41746   0.82099   0.95808   0.00000  Uiso   1.00
C862   C     0.37956   0.82887   0.97429   0.00000  Uiso   1.00
C863   C     0.29450   0.92838   0.00948   0.00000  Uiso   1.00
C864   C     0.29031   0.90007   0.04193   0.00000  Uiso   1.00
C865   C     0.28401   0.86198   0.02549   0.00000  Uiso   1.00
C866   C     0.18553   0.94517   0.99066   0.00000  Uiso   1.00
C867   C     0.17901   0.91746   0.95808   0.00000  Uiso   1.00
C868   C     0.17113   0.87957   0.97429   0.00000  Uiso   1.00
C869   C     0.07162   0.79450   0.00948   0.00000  Uiso   1.00
C870   C     0.47284   0.73045   0.45775   0.00000  Uiso   1.00
C871   C     0.09992   0.79031   0.04193   0.00000  Uiso   1.00
C872   C     0.13802   0.78401   0.02549   0.00000  Uiso   1.00
C873   C     0.05483   0.68553   0.99066   0.00000  Uiso   1.00
C874   C     0.08254   0.67901   0.95808   0.00000  Uiso   1.00
C875   C     0.12043   0.67113   0.97429   0.00000  Uiso   1.00
C876   C     0.43553   0.80484   0.50934   0.00000  Uiso   1.00
C877   C     0.42901   0.83254   0.54192   0.00000  Uiso   1.00
C878   C     0.42113   0.87044   0.52572   0.00000  Uiso   1.00
C879   C     0.04450   0.82162   0.49052   0.00000  Uiso   1.00
C880   C     0.04031   0.84993   0.45807   0.00000  Uiso   1.00
C881   C     0.26069   0.53169   0.54185   0.00000  Uiso   1.00
C882   C     0.03401   0.88802   0.47451   0.00000  Uiso   1.00
C883   C     0.19516   0.93553   0.50934   0.00000  Uiso   1.00
C884   C     0.16746   0.92901   0.54192   0.00000  Uiso   1.00
C885   C     0.12956   0.92113   0.52572   0.00000  Uiso   1.00
C886   C     0.17838   0.54450   0.49052   0.00000  Uiso   1.00
C887   C     0.15007   0.54031   0.45807   0.00000  Uiso   1.00
C888   C     0.11198   0.53401   0.47451   0.00000  Uiso   1.00
C889   C     0.06446   0.69517   0.50934   0.00000  Uiso   1.00
C890   C     0.07099   0.66746   0.54192   0.00000  Uiso   1.00
C891   C     0.07887   0.62957   0.52572   0.00000  Uiso   1.00
C892   C     0.26955   0.97284   0.45775   0.00000  Uiso   1.00
C893   C     0.45550   0.67838   0.49052   0.00000  Uiso   1.00
C894   C     0.45969   0.65007   0.45807   0.00000  Uiso   1.00
C895   C     0.46599   0.61198   0.47451   0.00000  Uiso   1.00
C896   C     0.30483   0.56447   0.50934   0.00000  Uiso   1.00
C897   C     0.33254   0.57099   0.54192   0.00000  Uiso   1.00
C898   C     0.37043   0.57887   0.52572   0.00000  Uiso   1.00
C899   C     0.32162   0.95550   0.49052   0.00000  Uiso   1.00
C900   C     0.34993   0.95969   0.45807   0.00000  Uiso   1.00
C901   C     0.38802   0.96599   0.47451   0.00000  Uiso   1.00
C902   C     0.22229   0.51788   0.08252   0.00000  Uiso   1.00
C903   C     0.28165   0.50926   0.91786   0.00000  Uiso   1.00
C904   C     0.48212   0.72229   0.08252   0.00000  Uiso   1.00
C905   C     0.28169   0.51069   0.95815   0.00000  Uiso   1.00
C906   C     0.49074   0.78165   0.91786   0.00000  Uiso   1.00
C907   C     0.27771   0.98212   0.08252   0.00000  Uiso   1.00
C908   C     0.21835   0.99074   0.91786   0.00000  Uiso   1.00
C909   C     0.01788   0.77771   0.08252   0.00000  Uiso   1.00
C910   C     0.00926   0.71835   0.91786   0.00000  Uiso   1.00
C911   C     0.46835   0.75926   0.58214   0.00000  Uiso   1.00
C912   C     0.02771   0.76788   0.41748   0.00000  Uiso   1.00
C913   C     0.24074   0.96835   0.58214   0.00000  Uiso   1.00
C914   C     0.23212   0.52771   0.41748   0.00000  Uiso   1.00
C915   C     0.03165   0.74074   0.58214   0.00000  Uiso   1.00
C916   C     0.48045   0.72284   0.04225   0.00000  Uiso   1.00
C917   C     0.47229   0.73212   0.41748   0.00000  Uiso   1.00
C918   C     0.25926   0.53165   0.58214   0.00000  Uiso   1.00
C919   C     0.26788   0.97229   0.41748   0.00000  Uiso   1.00
C920   C     0.25000   0.50000   0.02155   0.00000  Uiso   1.00
C921   C     0.25000   0.50000   0.97882   0.00000  Uiso   1.00
C922   C    -0.00000   0.75000   0.02155   0.00000  Uiso   1.00
C923   C    -0.00000   0.75000   0.97882   0.00000  Uiso   1.00
C924   C     0.00000   0.75000   0.52118   0.00000  Uiso   1.00
C925   C    -0.00000   0.75000   0.47845   0.00000  Uiso   1.00
C926   C     0.25000   0.50000   0.52118   0.00000  Uiso   1.00
C927   C     0.48931   0.78169   0.95815   0.00000  Uiso   1.00
C928   C     0.25000   0.50000   0.47845   0.00000  Uiso   1.00
C929   C     0.25000   0.50000   0.35512   0.00000  Uiso   1.00
C930   C     0.25000   0.50000   0.64479   0.00000  Uiso   1.00
C931   C    -0.00000   0.75000   0.35512   0.00000  Uiso   1.00
C932   C    -0.00000   0.75000   0.64479   0.00000  Uiso   1.00
C933   C     0.00000   0.75000   0.85522   0.00000  Uiso   1.00
C934   C     0.00000   0.75000   0.14488   0.00000  Uiso   1.00
C935   C     0.25000   0.50000   0.85522   0.00000  Uiso   1.00
C936   C     0.25000   0.50000   0.14488   0.00000  Uiso   1.00
C937   C     0.17993   0.57007   0.25000   0.00000  Uiso   1.00
C938   C     0.27716   0.98045   0.04225   0.00000  Uiso   1.00
C939   C     0.32007   0.92993   0.75000   0.00000  Uiso   1.00
C940   C     0.42993   0.67993   0.25000   0.00000  Uiso   1.00
C941   C     0.07007   0.82007   0.75000   0.00000  Uiso   1.00
C942   C     0.32007   0.92993   0.25000   0.00000  Uiso   1.00
C943   C     0.17993   0.57007   0.75000   0.00000  Uiso   1.00
C944   C     0.07007   0.82007   0.25000   0.00000  Uiso   1.00
C945   C     0.42993   0.67993   0.75000   0.00000  Uiso   1.00
C946   C     0.17993   0.92993   0.75000   0.00000  Uiso   1.00
C947   C     0.32007   0.57007   0.25000   0.00000  Uiso   1.00
C948   C     0.42993   0.82007   0.75000   0.00000  Uiso   1.00
C949   C     0.21831   0.98931   0.95815   0.00000  Uiso   1.00
C950   C     0.07007   0.67993   0.25000   0.00000  Uiso   1.00
C951   C     0.32007   0.57007   0.75000   0.00000  Uiso   1.00
C952   C     0.17993   0.92993   0.25000   0.00000  Uiso   1.00
C953   C     0.07007   0.67993   0.75000   0.00000  Uiso   1.00
C954   C     0.42993   0.82007   0.25000   0.00000  Uiso   1.00
C955   C     0.12200   0.90473   0.22486   0.00000  Uiso   1.00
C956   C     0.37795   0.59532   0.77521   0.00000  Uiso   1.00
C957   C     0.09527   0.62200   0.22486   0.00000  Uiso   1.00
C958   C     0.40468   0.87795   0.77521   0.00000  Uiso   1.00
C959   C     0.37800   0.59527   0.22486   0.00000  Uiso   1.00
C960   C     0.01955   0.77716   0.04225   0.00000  Uiso   1.00
C961   C     0.12205   0.90468   0.77521   0.00000  Uiso   1.00
C962   C     0.40473   0.87800   0.22486   0.00000  Uiso   1.00
C963   C     0.09532   0.62205   0.77521   0.00000  Uiso   1.00
C964   C     0.12204   0.59532   0.77521   0.00000  Uiso   1.00
C965   C     0.37800   0.90473   0.22486   0.00000  Uiso   1.00
C966   C     0.09532   0.87796   0.77521   0.00000  Uiso   1.00
C967   C     0.40473   0.62200   0.22486   0.00000  Uiso   1.00
C968   C     0.37796   0.90468   0.77521   0.00000  Uiso   1.00
C969   C     0.12200   0.59527   0.22486   0.00000  Uiso   1.00
C970   C     0.40468   0.62204   0.77521   0.00000  Uiso   1.00
C971   C     0.01069   0.71831   0.95815   0.00000  Uiso   1.00
C972   C     0.09527   0.87800   0.22486   0.00000  Uiso   1.00
C973   C     0.37204   0.65468   0.72479   0.00000  Uiso   1.00
C974   C     0.12800   0.84527   0.27514   0.00000  Uiso   1.00
C975   C     0.34532   0.87204   0.72479   0.00000  Uiso   1.00
C976   C     0.15473   0.62800   0.27514   0.00000  Uiso   1.00
C977   C     0.12796   0.84532   0.72479   0.00000  Uiso   1.00
C978   C     0.37200   0.65473   0.27514   0.00000  Uiso   1.00
C979   C     0.15468   0.62796   0.72479   0.00000  Uiso   1.00
C980   C     0.34527   0.87200   0.27514   0.00000  Uiso   1.00
C981   C     0.37200   0.84527   0.27514   0.00000  Uiso   1.00
C982   C     0.46831   0.76069   0.54185   0.00000  Uiso   1.00
C983   C     0.12795   0.65468   0.72479   0.00000  Uiso   1.00
C984   C     0.34527   0.62800   0.27514   0.00000  Uiso   1.00
C985   C     0.15468   0.87205   0.72479   0.00000  Uiso   1.00
C986   C     0.12800   0.65473   0.27514   0.00000  Uiso   1.00
C987   C     0.37205   0.84532   0.72479   0.00000  Uiso   1.00
C988   C     0.15473   0.87200   0.27514   0.00000  Uiso   1.00
C989   C     0.34532   0.62795   0.72479   0.00000  Uiso   1.00
C990   C     0.09814   0.84814   0.25000   0.00000  Uiso   1.00
C991   C     0.40186   0.65186   0.75000   0.00000  Uiso   1.00
C992   C     0.15186   0.59814   0.25000   0.00000  Uiso   1.00
H993   H     0.11925   0.92757   0.20520   0.00000  Uiso   1.00
H994   H     0.38075   0.92757   0.20519   0.00000  Uiso   1.00
H995   H     0.07362   0.65546   0.94017   0.00000  Uiso   1.00
H996   H     0.08407   0.70353   0.93926   0.00000  Uiso   1.00
H997   H     0.12980   0.69408   0.99272   0.00000  Uiso   1.00
H998   H     0.14004   0.66756   0.95008   0.00000  Uiso   1.00
H999   H     0.12007   0.64570   0.99176   0.00000  Uiso   1.00
H1000  H     0.41269   0.80689   0.48834   0.00000  Uiso   1.00
H1001  H     0.46055   0.81162   0.49278   0.00000  Uiso   1.00
H1002  H     0.40545   0.82362   0.55983   0.00000  Uiso   1.00
H1003  H     0.45353   0.83407   0.56074   0.00000  Uiso   1.00
H1004  H     0.44408   0.87980   0.50728   0.00000  Uiso   1.00
H1005  H     0.07252   0.88066   0.79493   0.00000  Uiso   1.00
H1006  H     0.41756   0.89004   0.54992   0.00000  Uiso   1.00
H1007  H     0.39570   0.87007   0.50824   0.00000  Uiso   1.00
H1008  H     0.06614   0.83118   0.51060   0.00000  Uiso   1.00
H1009  H     0.01931   0.81979   0.50817   0.00000  Uiso   1.00
H1010  H     0.06537   0.85018   0.43997   0.00000  Uiso   1.00
H1011  H     0.01674   0.84262   0.43941   0.00000  Uiso   1.00
H1012  H     0.00916   0.88836   0.49285   0.00000  Uiso   1.00
H1013  H     0.03035   0.90773   0.45043   0.00000  Uiso   1.00
H1014  H     0.05777   0.89670   0.49215   0.00000  Uiso   1.00
H1015  H     0.19311   0.91269   0.48834   0.00000  Uiso   1.00
H1016  H     0.42757   0.61925   0.20519   0.00000  Uiso   1.00
H1017  H     0.18838   0.96055   0.49278   0.00000  Uiso   1.00
H1018  H     0.17638   0.90546   0.55983   0.00000  Uiso   1.00
H1019  H     0.16593   0.95353   0.56074   0.00000  Uiso   1.00
H1020  H     0.12020   0.94408   0.50728   0.00000  Uiso   1.00
H1021  H     0.10996   0.91756   0.54992   0.00000  Uiso   1.00
H1022  H     0.12993   0.89570   0.50824   0.00000  Uiso   1.00
H1023  H     0.16882   0.56614   0.51060   0.00000  Uiso   1.00
H1024  H     0.18021   0.51931   0.50817   0.00000  Uiso   1.00
H1025  H     0.14981   0.56537   0.43997   0.00000  Uiso   1.00
H1026  H     0.15738   0.51674   0.43941   0.00000  Uiso   1.00
H1027  H     0.38066   0.92748   0.79493   0.00000  Uiso   1.00
H1028  H     0.11164   0.50916   0.49285   0.00000  Uiso   1.00
H1029  H     0.09227   0.53035   0.45043   0.00000  Uiso   1.00
H1030  H     0.10330   0.55778   0.49215   0.00000  Uiso   1.00
H1031  H     0.08731   0.69311   0.48834   0.00000  Uiso   1.00
H1032  H     0.03945   0.68838   0.49278   0.00000  Uiso   1.00
H1033  H     0.09454   0.67638   0.55983   0.00000  Uiso   1.00
H1034  H     0.04647   0.66593   0.56074   0.00000  Uiso   1.00
H1035  H     0.05592   0.62020   0.50728   0.00000  Uiso   1.00
H1036  H     0.08244   0.60996   0.54992   0.00000  Uiso   1.00
H1037  H     0.10430   0.62993   0.50824   0.00000  Uiso   1.00
H1038  H     0.11925   0.57243   0.20519   0.00000  Uiso   1.00
H1039  H     0.43386   0.66882   0.51060   0.00000  Uiso   1.00
H1040  H     0.48069   0.68021   0.50817   0.00000  Uiso   1.00
H1041  H     0.43463   0.64982   0.43997   0.00000  Uiso   1.00
H1042  H     0.48326   0.65738   0.43941   0.00000  Uiso   1.00
H1043  H     0.49084   0.61164   0.49285   0.00000  Uiso   1.00
H1044  H     0.46965   0.59227   0.45043   0.00000  Uiso   1.00
H1045  H     0.44222   0.60330   0.49215   0.00000  Uiso   1.00
H1046  H     0.30689   0.58731   0.48834   0.00000  Uiso   1.00
H1047  H     0.31162   0.53945   0.49278   0.00000  Uiso   1.00
H1048  H     0.32362   0.59455   0.55983   0.00000  Uiso   1.00
H1049  H     0.42748   0.61934   0.79493   0.00000  Uiso   1.00
H1050  H     0.33407   0.54647   0.56074   0.00000  Uiso   1.00
H1051  H     0.37980   0.55592   0.50728   0.00000  Uiso   1.00
H1052  H     0.39004   0.58244   0.54992   0.00000  Uiso   1.00
H1053  H     0.37007   0.60430   0.50824   0.00000  Uiso   1.00
H1054  H     0.33118   0.93386   0.51060   0.00000  Uiso   1.00
H1055  H     0.31979   0.98069   0.50817   0.00000  Uiso   1.00
H1056  H     0.35018   0.93463   0.43997   0.00000  Uiso   1.00
H1057  H     0.34262   0.98326   0.43941   0.00000  Uiso   1.00
H1058  H     0.38836   0.99084   0.49285   0.00000  Uiso   1.00
H1059  H     0.40773   0.96965   0.45043   0.00000  Uiso   1.00
H1060  H     0.07243   0.88075   0.20519   0.00000  Uiso   1.00
H1061  H     0.39670   0.94223   0.49215   0.00000  Uiso   1.00
H1062  H     0.36934   0.67748   0.70507   0.00000  Uiso   1.00
H1063  H     0.13075   0.82243   0.29481   0.00000  Uiso   1.00
H1064  H     0.32252   0.86934   0.70507   0.00000  Uiso   1.00
H1065  H     0.38066   0.57252   0.79494   0.00000  Uiso   1.00
H1066  H     0.17757   0.63075   0.29481   0.00000  Uiso   1.00
H1067  H     0.13066   0.82252   0.70507   0.00000  Uiso   1.00
H1068  H     0.36925   0.67757   0.29481   0.00000  Uiso   1.00
H1069  H     0.17748   0.63066   0.70507   0.00000  Uiso   1.00
H1070  H     0.32243   0.86925   0.29481   0.00000  Uiso   1.00
H1071  H     0.36925   0.82243   0.29480   0.00000  Uiso   1.00
H1072  H     0.13066   0.67748   0.70506   0.00000  Uiso   1.00
H1073  H     0.32243   0.63075   0.29480   0.00000  Uiso   1.00
H1074  H     0.17748   0.86934   0.70506   0.00000  Uiso   1.00
H1075  H     0.13075   0.67757   0.29480   0.00000  Uiso   1.00
H1076  H     0.07243   0.61925   0.20520   0.00000  Uiso   1.00
H1077  H     0.36934   0.82252   0.70506   0.00000  Uiso   1.00
H1078  H     0.17757   0.86925   0.29480   0.00000  Uiso   1.00
H1079  H     0.32252   0.63066   0.70506   0.00000  Uiso   1.00
H1080  H     0.20068   0.53169   0.09810   0.00000  Uiso   1.00
H1081  H     0.30642   0.51621   0.90245   0.00000  Uiso   1.00
H1082  H     0.46831   0.70068   0.09810   0.00000  Uiso   1.00
H1083  H     0.48379   0.80642   0.90245   0.00000  Uiso   1.00
H1084  H     0.29932   0.96831   0.09810   0.00000  Uiso   1.00
H1085  H     0.19358   0.98379   0.90245   0.00000  Uiso   1.00
H1086  H     0.03169   0.79932   0.09810   0.00000  Uiso   1.00
H1087  H     0.42748   0.88066   0.79494   0.00000  Uiso   1.00
H1088  H     0.01621   0.69358   0.90245   0.00000  Uiso   1.00
H1089  H     0.44358   0.76621   0.59755   0.00000  Uiso   1.00
H1090  H     0.04932   0.78169   0.40190   0.00000  Uiso   1.00
H1091  H     0.23379   0.94358   0.59755   0.00000  Uiso   1.00
H1092  H     0.21831   0.54932   0.40190   0.00000  Uiso   1.00
H1093  H     0.05642   0.73379   0.59755   0.00000  Uiso   1.00
H1094  H     0.45068   0.71831   0.40190   0.00000  Uiso   1.00
H1095  H     0.26621   0.55642   0.59755   0.00000  Uiso   1.00
H1096  H     0.28169   0.95068   0.40190   0.00000  Uiso   1.00
H1097  H     0.18386   0.58118   0.98940   0.00000  Uiso   1.00
H1098  H     0.38075   0.57243   0.20520   0.00000  Uiso   1.00
H1099  H     0.23069   0.56979   0.99183   0.00000  Uiso   1.00
H1100  H     0.18463   0.60018   0.06003   0.00000  Uiso   1.00
H1101  H     0.23326   0.59262   0.06059   0.00000  Uiso   1.00
H1102  H     0.24084   0.63836   0.00715   0.00000  Uiso   1.00
H1103  H     0.21965   0.65773   0.04957   0.00000  Uiso   1.00
H1104  H     0.19222   0.64670   0.00785   0.00000  Uiso   1.00
H1105  H     0.33731   0.55689   0.01166   0.00000  Uiso   1.00
H1106  H     0.28945   0.56162   0.00722   0.00000  Uiso   1.00
H1107  H     0.34454   0.57362   0.94017   0.00000  Uiso   1.00
H1108  H     0.29647   0.58407   0.93926   0.00000  Uiso   1.00
H1109  H     0.11934   0.92748   0.79494   0.00000  Uiso   1.00
H1110  H     0.30592   0.62980   0.99272   0.00000  Uiso   1.00
H1111  H     0.33244   0.64004   0.95008   0.00000  Uiso   1.00
H1112  H     0.35430   0.62007   0.99176   0.00000  Uiso   1.00
H1113  H     0.41882   0.68386   0.98940   0.00000  Uiso   1.00
H1114  H     0.43021   0.73069   0.99183   0.00000  Uiso   1.00
H1115  H     0.39981   0.68463   0.06003   0.00000  Uiso   1.00
H1116  H     0.40738   0.73326   0.06059   0.00000  Uiso   1.00
H1117  H     0.36164   0.74084   0.00715   0.00000  Uiso   1.00
H1118  H     0.34227   0.71965   0.04957   0.00000  Uiso   1.00
H1119  H     0.35330   0.69223   0.00785   0.00000  Uiso   1.00
H1120  H     0.42757   0.88075   0.20520   0.00000  Uiso   1.00
H1121  H     0.44311   0.83731   0.01166   0.00000  Uiso   1.00
H1122  H     0.43838   0.78945   0.00722   0.00000  Uiso   1.00
H1123  H     0.42638   0.84455   0.94017   0.00000  Uiso   1.00
H1124  H     0.41593   0.79647   0.93926   0.00000  Uiso   1.00
H1125  H     0.37020   0.80592   0.99272   0.00000  Uiso   1.00
H1126  H     0.35996   0.83244   0.95008   0.00000  Uiso   1.00
H1127  H     0.37993   0.85430   0.99176   0.00000  Uiso   1.00
H1128  H     0.31614   0.91882   0.98940   0.00000  Uiso   1.00
H1129  H     0.26931   0.93021   0.99183   0.00000  Uiso   1.00
H1130  H     0.31537   0.89982   0.06003   0.00000  Uiso   1.00
H1131  H     0.07252   0.61934   0.79494   0.00000  Uiso   1.00
H1132  H     0.26674   0.90738   0.06059   0.00000  Uiso   1.00
H1133  H     0.25916   0.86164   0.00715   0.00000  Uiso   1.00
H1134  H     0.28035   0.84227   0.04957   0.00000  Uiso   1.00
H1135  H     0.30777   0.85330   0.00785   0.00000  Uiso   1.00
H1136  H     0.16269   0.94311   0.01166   0.00000  Uiso   1.00
H1137  H     0.21055   0.93838   0.00722   0.00000  Uiso   1.00
H1138  H     0.15545   0.92638   0.94017   0.00000  Uiso   1.00
H1139  H     0.20353   0.91593   0.93926   0.00000  Uiso   1.00
H1140  H     0.19408   0.87020   0.99272   0.00000  Uiso   1.00
H1141  H     0.16756   0.85996   0.95008   0.00000  Uiso   1.00
H1142  H     0.11934   0.57252   0.79493   0.00000  Uiso   1.00
H1143  H     0.14570   0.87993   0.99176   0.00000  Uiso   1.00
H1144  H     0.08118   0.81614   0.98940   0.00000  Uiso   1.00
H1145  H     0.06979   0.76931   0.99183   0.00000  Uiso   1.00
H1146  H     0.10018   0.81537   0.06003   0.00000  Uiso   1.00
H1147  H     0.09262   0.76674   0.06059   0.00000  Uiso   1.00
H1148  H     0.13836   0.75916   0.00715   0.00000  Uiso   1.00
H1149  H     0.15773   0.78035   0.04957   0.00000  Uiso   1.00
H1150  H     0.14670   0.80778   0.00785   0.00000  Uiso   1.00
H1151  H     0.05689   0.66269   0.01166   0.00000  Uiso   1.00
H1152  H     0.06162   0.71055   0.00722   0.00000  Uiso   1.00
O1153  O     0.25000   0.50000   0.25000   0.00000  Uiso   1.00
O1154  O     0.25000   0.96964   0.66317   0.00000  Uiso   1.00
O1155  O     0.46964   0.75000   0.33683   0.00000  Uiso   1.00
O1156  O     0.03036   0.75000   0.66317   0.00000  Uiso   1.00
O1157  O    -0.00000   0.71964   0.83683   0.00000  Uiso   1.00
O1158  O    -0.00000   0.78036   0.16317   0.00000  Uiso   1.00
O1159  O     0.28036   0.50000   0.83683   0.00000  Uiso   1.00
O1160  O     0.21964   0.50000   0.16317   0.00000  Uiso   1.00
O1161  O    -0.00000   0.78036   0.83683   0.00000  Uiso   1.00
O1162  O     0.00000   0.71964   0.16317   0.00000  Uiso   1.00
O1163  O     0.21964   0.50000   0.83683   0.00000  Uiso   1.00
O1164  O     0.25000   0.50000   0.75000   0.00000  Uiso   1.00
O1165  O     0.28036   0.50000   0.16317   0.00000  Uiso   1.00
O1166  O     0.20725   0.57307   0.27282   0.00000  Uiso   1.00
O1167  O     0.29274   0.92693   0.72718   0.00000  Uiso   1.00
O1168  O     0.42693   0.70726   0.27282   0.00000  Uiso   1.00
O1169  O     0.07307   0.79275   0.72718   0.00000  Uiso   1.00
O1170  O     0.29274   0.92693   0.27282   0.00000  Uiso   1.00
O1171  O     0.20725   0.57307   0.72718   0.00000  Uiso   1.00
O1172  O     0.07307   0.79275   0.27282   0.00000  Uiso   1.00
O1173  O     0.42693   0.70726   0.72718   0.00000  Uiso   1.00
O1174  O     0.20725   0.92693   0.72718   0.00000  Uiso   1.00
O1175  O    -0.00000   0.75000   0.25000   0.00000  Uiso   1.00
O1176  O     0.29274   0.57307   0.27282   0.00000  Uiso   1.00
O1177  O     0.42693   0.79275   0.72718   0.00000  Uiso   1.00
O1178  O     0.07307   0.70726   0.27282   0.00000  Uiso   1.00
O1179  O     0.29274   0.57307   0.72718   0.00000  Uiso   1.00
O1180  O     0.20725   0.92693   0.27282   0.00000  Uiso   1.00
O1181  O     0.07307   0.70726   0.72718   0.00000  Uiso   1.00
O1182  O     0.42693   0.79275   0.27282   0.00000  Uiso   1.00
O1183  O     0.45725   0.82307   0.77282   0.00000  Uiso   1.00
O1184  O     0.04274   0.67693   0.22718   0.00000  Uiso   1.00
O1185  O     0.17693   0.95726   0.77282   0.00000  Uiso   1.00
O1186  O    -0.00000   0.75000   0.75000   0.00000  Uiso   1.00
O1187  O     0.32307   0.54275   0.22718   0.00000  Uiso   1.00
O1188  O     0.04274   0.67693   0.77282   0.00000  Uiso   1.00
O1189  O     0.45725   0.82307   0.22718   0.00000  Uiso   1.00
O1190  O     0.32307   0.54275   0.77282   0.00000  Uiso   1.00
O1191  O     0.17693   0.95726   0.22718   0.00000  Uiso   1.00
O1192  O     0.45725   0.67693   0.22718   0.00000  Uiso   1.00
O1193  O     0.04274   0.82307   0.77282   0.00000  Uiso   1.00
O1194  O     0.17693   0.54275   0.22718   0.00000  Uiso   1.00
O1195  O     0.32307   0.95726   0.77282   0.00000  Uiso   1.00
O1196  O     0.04274   0.82307   0.22718   0.00000  Uiso   1.00
O1197  O     0.25000   0.96964   0.33683   0.00000  Uiso   1.00
O1198  O     0.45725   0.67693   0.77282   0.00000  Uiso   1.00
O1199  O     0.32307   0.95726   0.22718   0.00000  Uiso   1.00
O1200  O     0.17693   0.54275   0.77282   0.00000  Uiso   1.00
O1201  O     0.19425   0.53735   0.02399   0.00000  Uiso   1.00
O1202  O     0.31435   0.51866   0.97649   0.00000  Uiso   1.00
O1203  O     0.46265   0.69425   0.02399   0.00000  Uiso   1.00
O1204  O     0.48134   0.81435   0.97649   0.00000  Uiso   1.00
O1205  O     0.30575   0.96265   0.02399   0.00000  Uiso   1.00
O1206  O     0.18565   0.98134   0.97649   0.00000  Uiso   1.00
O1207  O     0.03735   0.80575   0.02399   0.00000  Uiso   1.00
O1208  O     0.25000   0.53036   0.66317   0.00000  Uiso   1.00
O1209  O     0.01866   0.68565   0.97649   0.00000  Uiso   1.00
O1210  O     0.43565   0.76866   0.52351   0.00000  Uiso   1.00
O1211  O     0.05575   0.78735   0.47601   0.00000  Uiso   1.00
O1212  O     0.23134   0.93565   0.52351   0.00000  Uiso   1.00
O1213  O     0.21265   0.55575   0.47601   0.00000  Uiso   1.00
O1214  O     0.06435   0.73134   0.52351   0.00000  Uiso   1.00
O1215  O     0.44425   0.71265   0.47601   0.00000  Uiso   1.00
O1216  O     0.26866   0.56435   0.52351   0.00000  Uiso   1.00
O1217  O     0.28735   0.94425   0.47601   0.00000  Uiso   1.00
O1218  O     0.03036   0.75000   0.33683   0.00000  Uiso   1.00
O1219  O     0.46964   0.75000   0.66317   0.00000  Uiso   1.00
O1220  O     0.25000   0.53036   0.33683   0.00000  Uiso   1.00
Zn1221 Zn    0.20660   0.50000   0.21760   0.00000  Uiso   1.00
Zn1222 Zn    0.04340   0.75000   0.28240   0.00000  Uiso   1.00
Zn1223 Zn    0.25000   0.95660   0.71760   0.00000  Uiso   1.00
Zn1224 Zn    0.25000   0.54340   0.28240   0.00000  Uiso   1.00
Zn1225 Zn    0.04340   0.75000   0.71760   0.00000  Uiso   1.00
Zn1226 Zn    0.45660   0.75000   0.28240   0.00000  Uiso   1.00
Zn1227 Zn    0.25000   0.54340   0.71760   0.00000  Uiso   1.00
Zn1228 Zn    0.25000   0.95660   0.28240   0.00000  Uiso   1.00
Zn1229 Zn    0.29340   0.50000   0.78240   0.00000  Uiso   1.00
Zn1230 Zn   -0.00000   0.70660   0.21760   0.00000  Uiso   1.00
Zn1231 Zn   -0.00000   0.79340   0.78240   0.00000  Uiso   1.00
Zn1232 Zn    0.29340   0.50000   0.21760   0.00000  Uiso   1.00
Zn1233 Zn    0.20660   0.50000   0.78240   0.00000  Uiso   1.00
Zn1234 Zn   -0.00000   0.79340   0.21760   0.00000  Uiso   1.00
Zn1235 Zn   -0.00000   0.70660   0.78240   0.00000  Uiso   1.00
Zn1236 Zn    0.45660   0.75000   0.71760   0.00000  Uiso   1.00
C1237  C     0.72284   0.51955   0.04225   0.00000  Uiso   1.00
C1238  C     0.52716   0.76955   0.45775   0.00000  Uiso   1.00
C1239  C     0.84814   0.90186   0.75000   0.00000  Uiso   1.00
C1240  C     0.90186   0.65186   0.25000   0.00000  Uiso   1.00
C1241  C     0.59814   0.84814   0.75000   0.00000  Uiso   1.00
C1242  C     0.84814   0.90186   0.25000   0.00000  Uiso   1.00
C1243  C     0.65186   0.59814   0.75000   0.00000  Uiso   1.00
C1244  C     0.59814   0.65186   0.75000   0.00000  Uiso   1.00
C1245  C     0.90186   0.84814   0.25000   0.00000  Uiso   1.00
C1246  C     0.65186   0.90186   0.75000   0.00000  Uiso   1.00
C1247  C     0.84814   0.59814   0.25000   0.00000  Uiso   1.00
C1248  C     0.90186   0.84814   0.75000   0.00000  Uiso   1.00
C1249  C     0.73931   0.96831   0.54185   0.00000  Uiso   1.00
C1250  C     0.59814   0.65186   0.25000   0.00000  Uiso   1.00
C1251  C     0.84814   0.59814   0.75000   0.00000  Uiso   1.00
C1252  C     0.65186   0.90186   0.25000   0.00000  Uiso   1.00
C1253  C     0.75000   0.50000   0.10269   0.00000  Uiso   1.00
C1254  C     0.75000   0.50000   0.89758   0.00000  Uiso   1.00
C1255  C     0.50000   0.75000   0.10269   0.00000  Uiso   1.00
C1256  C     0.50000   0.75000   0.89758   0.00000  Uiso   1.00
C1257  C     0.50000   0.75000   0.60242   0.00000  Uiso   1.00
C1258  C     0.50000   0.75000   0.39731   0.00000  Uiso   1.00
C1259  C     0.75000   0.50000   0.60242   0.00000  Uiso   1.00
C1260  C     0.73045   0.52716   0.45775   0.00000  Uiso   1.00
C1261  C     0.75000   0.50000   0.39731   0.00000  Uiso   1.00
C1262  C     0.70550   0.57162   0.00948   0.00000  Uiso   1.00
C1263  C     0.70969   0.59993   0.04193   0.00000  Uiso   1.00
C1264  C     0.71599   0.63802   0.02549   0.00000  Uiso   1.00
C1265  C     0.81446   0.55484   0.99066   0.00000  Uiso   1.00
C1266  C     0.82099   0.58254   0.95808   0.00000  Uiso   1.00
C1267  C     0.82887   0.62044   0.97429   0.00000  Uiso   1.00
C1268  C     0.92838   0.70550   0.00948   0.00000  Uiso   1.00
C1269  C     0.90007   0.70969   0.04193   0.00000  Uiso   1.00
C1270  C     0.86198   0.71599   0.02549   0.00000  Uiso   1.00
C1271  C     0.53169   0.73931   0.54185   0.00000  Uiso   1.00
C1272  C     0.94516   0.81447   0.99066   0.00000  Uiso   1.00
C1273  C     0.91746   0.82099   0.95808   0.00000  Uiso   1.00
C1274  C     0.87956   0.82887   0.97429   0.00000  Uiso   1.00
C1275  C     0.79450   0.92838   0.00948   0.00000  Uiso   1.00
C1276  C     0.79031   0.90007   0.04193   0.00000  Uiso   1.00
C1277  C     0.78401   0.86198   0.02549   0.00000  Uiso   1.00
C1278  C     0.68553   0.94517   0.99066   0.00000  Uiso   1.00
C1279  C     0.67901   0.91746   0.95808   0.00000  Uiso   1.00
C1280  C     0.67113   0.87957   0.97429   0.00000  Uiso   1.00
C1281  C     0.57162   0.79450   0.00948   0.00000  Uiso   1.00
C1282  C     0.97284   0.73045   0.45775   0.00000  Uiso   1.00
C1283  C     0.59992   0.79031   0.04193   0.00000  Uiso   1.00
C1284  C     0.63802   0.78401   0.02549   0.00000  Uiso   1.00
C1285  C     0.55483   0.68553   0.99066   0.00000  Uiso   1.00
C1286  C     0.58254   0.67901   0.95808   0.00000  Uiso   1.00
C1287  C     0.62043   0.67113   0.97429   0.00000  Uiso   1.00
C1288  C     0.93553   0.80484   0.50934   0.00000  Uiso   1.00
C1289  C     0.92901   0.83254   0.54192   0.00000  Uiso   1.00
C1290  C     0.92113   0.87044   0.52572   0.00000  Uiso   1.00
C1291  C     0.54450   0.82162   0.49052   0.00000  Uiso   1.00
C1292  C     0.54031   0.84993   0.45807   0.00000  Uiso   1.00
C1293  C     0.76069   0.53169   0.54185   0.00000  Uiso   1.00
C1294  C     0.53401   0.88802   0.47451   0.00000  Uiso   1.00
C1295  C     0.69516   0.93553   0.50934   0.00000  Uiso   1.00
C1296  C     0.66746   0.92901   0.54192   0.00000  Uiso   1.00
C1297  C     0.62956   0.92113   0.52572   0.00000  Uiso   1.00
C1298  C     0.67838   0.54450   0.49052   0.00000  Uiso   1.00
C1299  C     0.65007   0.54031   0.45807   0.00000  Uiso   1.00
C1300  C     0.61198   0.53401   0.47451   0.00000  Uiso   1.00
C1301  C     0.56446   0.69517   0.50934   0.00000  Uiso   1.00
C1302  C     0.57099   0.66746   0.54192   0.00000  Uiso   1.00
C1303  C     0.57887   0.62957   0.52572   0.00000  Uiso   1.00
C1304  C     0.76955   0.97284   0.45775   0.00000  Uiso   1.00
C1305  C     0.95550   0.67838   0.49052   0.00000  Uiso   1.00
C1306  C     0.95969   0.65007   0.45807   0.00000  Uiso   1.00
C1307  C     0.96599   0.61198   0.47451   0.00000  Uiso   1.00
C1308  C     0.80483   0.56447   0.50934   0.00000  Uiso   1.00
C1309  C     0.83254   0.57099   0.54192   0.00000  Uiso   1.00
C1310  C     0.87043   0.57887   0.52572   0.00000  Uiso   1.00
C1311  C     0.82162   0.95550   0.49052   0.00000  Uiso   1.00
C1312  C     0.84993   0.95969   0.45807   0.00000  Uiso   1.00
C1313  C     0.88802   0.96599   0.47451   0.00000  Uiso   1.00
C1314  C     0.72229   0.51788   0.08252   0.00000  Uiso   1.00
C1315  C     0.78165   0.50926   0.91786   0.00000  Uiso   1.00
C1316  C     0.98212   0.72229   0.08252   0.00000  Uiso   1.00
C1317  C     0.78169   0.51069   0.95815   0.00000  Uiso   1.00
C1318  C     0.99074   0.78165   0.91786   0.00000  Uiso   1.00
C1319  C     0.77771   0.98212   0.08252   0.00000  Uiso   1.00
C1320  C     0.71835   0.99074   0.91786   0.00000  Uiso   1.00
C1321  C     0.51788   0.77771   0.08252   0.00000  Uiso   1.00
C1322  C     0.50926   0.71835   0.91786   0.00000  Uiso   1.00
C1323  C     0.96835   0.75926   0.58214   0.00000  Uiso   1.00
C1324  C     0.52771   0.76788   0.41748   0.00000  Uiso   1.00
C1325  C     0.74074   0.96835   0.58214   0.00000  Uiso   1.00
C1326  C     0.73212   0.52771   0.41748   0.00000  Uiso   1.00
C1327  C     0.53165   0.74074   0.58214   0.00000  Uiso   1.00
C1328  C     0.98045   0.72284   0.04225   0.00000  Uiso   1.00
C1329  C     0.97229   0.73212   0.41748   0.00000  Uiso   1.00
C1330  C     0.75926   0.53165   0.58214   0.00000  Uiso   1.00
C1331  C     0.76788   0.97229   0.41748   0.00000  Uiso   1.00
C1332  C     0.75000   0.50000   0.02155   0.00000  Uiso   1.00
C1333  C     0.75000   0.50000   0.97882   0.00000  Uiso   1.00
C1334  C     0.50000   0.75000   0.02155   0.00000  Uiso   1.00
C1335  C     0.50000   0.75000   0.97882   0.00000  Uiso   1.00
C1336  C     0.50000   0.75000   0.52118   0.00000  Uiso   1.00
C1337  C     0.50000   0.75000   0.47845   0.00000  Uiso   1.00
C1338  C     0.75000   0.50000   0.52118   0.00000  Uiso   1.00
C1339  C     0.98931   0.78169   0.95815   0.00000  Uiso   1.00
C1340  C     0.75000   0.50000   0.47845   0.00000  Uiso   1.00
C1341  C     0.75000   0.50000   0.35512   0.00000  Uiso   1.00
C1342  C     0.75000   0.50000   0.64479   0.00000  Uiso   1.00
C1343  C     0.50000   0.75000   0.35512   0.00000  Uiso   1.00
C1344  C     0.50000   0.75000   0.64479   0.00000  Uiso   1.00
C1345  C     0.50000   0.75000   0.85522   0.00000  Uiso   1.00
C1346  C     0.50000   0.75000   0.14488   0.00000  Uiso   1.00
C1347  C     0.75000   0.50000   0.85522   0.00000  Uiso   1.00
C1348  C     0.75000   0.50000   0.14488   0.00000  Uiso   1.00
C1349  C     0.67993   0.57007   0.25000   0.00000  Uiso   1.00
C1350  C     0.77716   0.98045   0.04225   0.00000  Uiso   1.00
C1351  C     0.82007   0.92993   0.75000   0.00000  Uiso   1.00
C1352  C     0.92993   0.67993   0.25000   0.00000  Uiso   1.00
C1353  C     0.57007   0.82007   0.75000   0.00000  Uiso   1.00
C1354  C     0.82007   0.92993   0.25000   0.00000  Uiso   1.00
C1355  C     0.67993   0.57007   0.75000   0.00000  Uiso   1.00
C1356  C     0.57007   0.82007   0.25000   0.00000  Uiso   1.00
C1357  C     0.92993   0.67993   0.75000   0.00000  Uiso   1.00
C1358  C     0.67993   0.92993   0.75000   0.00000  Uiso   1.00
C1359  C     0.82007   0.57007   0.25000   0.00000  Uiso   1.00
C1360  C     0.92993   0.82007   0.75000   0.00000  Uiso   1.00
C1361  C     0.71831   0.98931   0.95815   0.00000  Uiso   1.00
C1362  C     0.57007   0.67993   0.25000   0.00000  Uiso   1.00
C1363  C     0.82007   0.57007   0.75000   0.00000  Uiso   1.00
C1364  C     0.67993   0.92993   0.25000   0.00000  Uiso   1.00
C1365  C     0.57007   0.67993   0.75000   0.00000  Uiso   1.00
C1366  C     0.92993   0.82007   0.25000   0.00000  Uiso   1.00
C1367  C     0.62200   0.90473   0.22486   0.00000  Uiso   1.00
C1368  C     0.87795   0.59532   0.77521   0.00000  Uiso   1.00
C1369  C     0.59527   0.62200   0.22486   0.00000  Uiso   1.00
C1370  C     0.90468   0.87795   0.77521   0.00000  Uiso   1.00
C1371  C     0.87800   0.59527   0.22486   0.00000  Uiso   1.00
C1372  C     0.51955   0.77716   0.04225   0.00000  Uiso   1.00
C1373  C     0.62205   0.90468   0.77521   0.00000  Uiso   1.00
C1374  C     0.90473   0.87800   0.22486   0.00000  Uiso   1.00
C1375  C     0.59532   0.62205   0.77521   0.00000  Uiso   1.00
C1376  C     0.62204   0.59532   0.77521   0.00000  Uiso   1.00
C1377  C     0.87800   0.90473   0.22486   0.00000  Uiso   1.00
C1378  C     0.59532   0.87796   0.77521   0.00000  Uiso   1.00
C1379  C     0.90473   0.62200   0.22486   0.00000  Uiso   1.00
C1380  C     0.87796   0.90468   0.77521   0.00000  Uiso   1.00
C1381  C     0.62200   0.59527   0.22486   0.00000  Uiso   1.00
C1382  C     0.90468   0.62204   0.77521   0.00000  Uiso   1.00
C1383  C     0.51069   0.71831   0.95815   0.00000  Uiso   1.00
C1384  C     0.59527   0.87800   0.22486   0.00000  Uiso   1.00
C1385  C     0.87204   0.65468   0.72479   0.00000  Uiso   1.00
C1386  C     0.62800   0.84527   0.27514   0.00000  Uiso   1.00
C1387  C     0.84532   0.87204   0.72479   0.00000  Uiso   1.00
C1388  C     0.65473   0.62800   0.27514   0.00000  Uiso   1.00
C1389  C     0.62796   0.84532   0.72479   0.00000  Uiso   1.00
C1390  C     0.87200   0.65473   0.27514   0.00000  Uiso   1.00
C1391  C     0.65468   0.62796   0.72479   0.00000  Uiso   1.00
C1392  C     0.84527   0.87200   0.27514   0.00000  Uiso   1.00
C1393  C     0.87200   0.84527   0.27514   0.00000  Uiso   1.00
C1394  C     0.96831   0.76069   0.54185   0.00000  Uiso   1.00
C1395  C     0.62795   0.65468   0.72479   0.00000  Uiso   1.00
C1396  C     0.84527   0.62800   0.27514   0.00000  Uiso   1.00
C1397  C     0.65468   0.87205   0.72479   0.00000  Uiso   1.00
C1398  C     0.62800   0.65473   0.27514   0.00000  Uiso   1.00
C1399  C     0.87205   0.84532   0.72479   0.00000  Uiso   1.00
C1400  C     0.65473   0.87200   0.27514   0.00000  Uiso   1.00
C1401  C     0.84532   0.62795   0.72479   0.00000  Uiso   1.00
C1402  C     0.59814   0.84814   0.25000   0.00000  Uiso   1.00
C1403  C     0.90186   0.65186   0.75000   0.00000  Uiso   1.00
C1404  C     0.65186   0.59814   0.25000   0.00000  Uiso   1.00
H1405  H     0.61925   0.92757   0.20520   0.00000  Uiso   1.00
H1406  H     0.88075   0.92757   0.20519   0.00000  Uiso   1.00
H1407  H     0.57362   0.65546   0.94017   0.00000  Uiso   1.00
H1408  H     0.58407   0.70353   0.93926   0.00000  Uiso   1.00
H1409  H     0.62980   0.69408   0.99272   0.00000  Uiso   1.00
H1410  H     0.64004   0.66756   0.95008   0.00000  Uiso   1.00
H1411  H     0.62007   0.64570   0.99176   0.00000  Uiso   1.00
H1412  H     0.91269   0.80689   0.48834   0.00000  Uiso   1.00
H1413  H     0.96055   0.81162   0.49278   0.00000  Uiso   1.00
H1414  H     0.90545   0.82362   0.55983   0.00000  Uiso   1.00
H1415  H     0.95353   0.83407   0.56074   0.00000  Uiso   1.00
H1416  H     0.94408   0.87980   0.50728   0.00000  Uiso   1.00
H1417  H     0.57252   0.88066   0.79493   0.00000  Uiso   1.00
H1418  H     0.91756   0.89004   0.54992   0.00000  Uiso   1.00
H1419  H     0.89570   0.87007   0.50824   0.00000  Uiso   1.00
H1420  H     0.56614   0.83118   0.51060   0.00000  Uiso   1.00
H1421  H     0.51931   0.81979   0.50817   0.00000  Uiso   1.00
H1422  H     0.56537   0.85018   0.43997   0.00000  Uiso   1.00
H1423  H     0.51674   0.84262   0.43941   0.00000  Uiso   1.00
H1424  H     0.50916   0.88836   0.49285   0.00000  Uiso   1.00
H1425  H     0.53035   0.90773   0.45043   0.00000  Uiso   1.00
H1426  H     0.55777   0.89670   0.49215   0.00000  Uiso   1.00
H1427  H     0.69311   0.91269   0.48834   0.00000  Uiso   1.00
H1428  H     0.92757   0.61925   0.20519   0.00000  Uiso   1.00
H1429  H     0.68838   0.96055   0.49278   0.00000  Uiso   1.00
H1430  H     0.67638   0.90546   0.55983   0.00000  Uiso   1.00
H1431  H     0.66593   0.95353   0.56074   0.00000  Uiso   1.00
H1432  H     0.62020   0.94408   0.50728   0.00000  Uiso   1.00
H1433  H     0.60996   0.91756   0.54992   0.00000  Uiso   1.00
H1434  H     0.62993   0.89570   0.50824   0.00000  Uiso   1.00
H1435  H     0.66882   0.56614   0.51060   0.00000  Uiso   1.00
H1436  H     0.68021   0.51931   0.50817   0.00000  Uiso   1.00
H1437  H     0.64981   0.56537   0.43997   0.00000  Uiso   1.00
H1438  H     0.65738   0.51674   0.43941   0.00000  Uiso   1.00
H1439  H     0.88066   0.92748   0.79493   0.00000  Uiso   1.00
H1440  H     0.61164   0.50916   0.49285   0.00000  Uiso   1.00
H1441  H     0.59227   0.53035   0.45043   0.00000  Uiso   1.00
H1442  H     0.60330   0.55778   0.49215   0.00000  Uiso   1.00
H1443  H     0.58731   0.69311   0.48834   0.00000  Uiso   1.00
H1444  H     0.53945   0.68838   0.49278   0.00000  Uiso   1.00
H1445  H     0.59454   0.67638   0.55983   0.00000  Uiso   1.00
H1446  H     0.54647   0.66593   0.56074   0.00000  Uiso   1.00
H1447  H     0.55592   0.62020   0.50728   0.00000  Uiso   1.00
H1448  H     0.58244   0.60996   0.54992   0.00000  Uiso   1.00
H1449  H     0.60430   0.62993   0.50824   0.00000  Uiso   1.00
H1450  H     0.61925   0.57243   0.20519   0.00000  Uiso   1.00
H1451  H     0.93386   0.66882   0.51060   0.00000  Uiso   1.00
H1452  H     0.98069   0.68021   0.50817   0.00000  Uiso   1.00
H1453  H     0.93463   0.64982   0.43997   0.00000  Uiso   1.00
H1454  H     0.98326   0.65738   0.43941   0.00000  Uiso   1.00
H1455  H     0.99084   0.61164   0.49285   0.00000  Uiso   1.00
H1456  H     0.96965   0.59227   0.45043   0.00000  Uiso   1.00
H1457  H     0.94222   0.60330   0.49215   0.00000  Uiso   1.00
H1458  H     0.80689   0.58731   0.48834   0.00000  Uiso   1.00
H1459  H     0.81162   0.53945   0.49278   0.00000  Uiso   1.00
H1460  H     0.82362   0.59455   0.55983   0.00000  Uiso   1.00
H1461  H     0.92748   0.61934   0.79493   0.00000  Uiso   1.00
H1462  H     0.83407   0.54647   0.56074   0.00000  Uiso   1.00
H1463  H     0.87980   0.55592   0.50728   0.00000  Uiso   1.00
H1464  H     0.89004   0.58244   0.54992   0.00000  Uiso   1.00
H1465  H     0.87007   0.60430   0.50824   0.00000  Uiso   1.00
H1466  H     0.83118   0.93386   0.51060   0.00000  Uiso   1.00
H1467  H     0.81979   0.98069   0.50817   0.00000  Uiso   1.00
H1468  H     0.85018   0.93463   0.43997   0.00000  Uiso   1.00
H1469  H     0.84262   0.98326   0.43941   0.00000  Uiso   1.00
H1470  H     0.88836   0.99084   0.49285   0.00000  Uiso   1.00
H1471  H     0.90773   0.96965   0.45043   0.00000  Uiso   1.00
H1472  H     0.57243   0.88075   0.20519   0.00000  Uiso   1.00
H1473  H     0.89670   0.94223   0.49215   0.00000  Uiso   1.00
H1474  H     0.86934   0.67748   0.70507   0.00000  Uiso   1.00
H1475  H     0.63075   0.82243   0.29481   0.00000  Uiso   1.00
H1476  H     0.82252   0.86934   0.70507   0.00000  Uiso   1.00
H1477  H     0.88066   0.57252   0.79494   0.00000  Uiso   1.00
H1478  H     0.67757   0.63075   0.29481   0.00000  Uiso   1.00
H1479  H     0.63066   0.82252   0.70507   0.00000  Uiso   1.00
H1480  H     0.86925   0.67757   0.29481   0.00000  Uiso   1.00
H1481  H     0.67748   0.63066   0.70507   0.00000  Uiso   1.00
H1482  H     0.82243   0.86925   0.29481   0.00000  Uiso   1.00
H1483  H     0.86925   0.82243   0.29480   0.00000  Uiso   1.00
H1484  H     0.63066   0.67748   0.70506   0.00000  Uiso   1.00
H1485  H     0.82243   0.63075   0.29480   0.00000  Uiso   1.00
H1486  H     0.67748   0.86934   0.70506   0.00000  Uiso   1.00
H1487  H     0.63075   0.67757   0.29480   0.00000  Uiso   1.00
H1488  H     0.57243   0.61925   0.20520   0.00000  Uiso   1.00
H1489  H     0.86934   0.82252   0.70506   0.00000  Uiso   1.00
H1490  H     0.67757   0.86925   0.29480   0.00000  Uiso   1.00
H1491  H     0.82252   0.63066   0.70506   0.00000  Uiso   1.00
H1492  H     0.70068   0.53169   0.09810   0.00000  Uiso   1.00
H1493  H     0.80642   0.51621   0.90245   0.00000  Uiso   1.00
H1494  H     0.96831   0.70068   0.09810   0.00000  Uiso   1.00
H1495  H     0.98379   0.80642   0.90245   0.00000  Uiso   1.00
H1496  H     0.79932   0.96831   0.09810   0.00000  Uiso   1.00
H1497  H     0.69358   0.98379   0.90245   0.00000  Uiso   1.00
H1498  H     0.53169   0.79932   0.09810   0.00000  Uiso   1.00
H1499  H     0.92748   0.88066   0.79494   0.00000  Uiso   1.00
H1500  H     0.51621   0.69358   0.90245   0.00000  Uiso   1.00
H1501  H     0.94358   0.76621   0.59755   0.00000  Uiso   1.00
H1502  H     0.54932   0.78169   0.40190   0.00000  Uiso   1.00
H1503  H     0.73379   0.94358   0.59755   0.00000  Uiso   1.00
H1504  H     0.71831   0.54932   0.40190   0.00000  Uiso   1.00
H1505  H     0.55642   0.73379   0.59755   0.00000  Uiso   1.00
H1506  H     0.95068   0.71831   0.40190   0.00000  Uiso   1.00
H1507  H     0.76621   0.55642   0.59755   0.00000  Uiso   1.00
H1508  H     0.78169   0.95068   0.40190   0.00000  Uiso   1.00
H1509  H     0.68386   0.58118   0.98940   0.00000  Uiso   1.00
H1510  H     0.88075   0.57243   0.20520   0.00000  Uiso   1.00
H1511  H     0.73069   0.56979   0.99183   0.00000  Uiso   1.00
H1512  H     0.68463   0.60018   0.06003   0.00000  Uiso   1.00
H1513  H     0.73326   0.59262   0.06059   0.00000  Uiso   1.00
H1514  H     0.74084   0.63836   0.00715   0.00000  Uiso   1.00
H1515  H     0.71965   0.65773   0.04957   0.00000  Uiso   1.00
H1516  H     0.69222   0.64670   0.00785   0.00000  Uiso   1.00
H1517  H     0.83731   0.55689   0.01166   0.00000  Uiso   1.00
H1518  H     0.78945   0.56162   0.00722   0.00000  Uiso   1.00
H1519  H     0.84454   0.57362   0.94017   0.00000  Uiso   1.00
H1520  H     0.79647   0.58407   0.93926   0.00000  Uiso   1.00
H1521  H     0.61934   0.92748   0.79494   0.00000  Uiso   1.00
H1522  H     0.80592   0.62980   0.99272   0.00000  Uiso   1.00
H1523  H     0.83244   0.64004   0.95008   0.00000  Uiso   1.00
H1524  H     0.85430   0.62007   0.99176   0.00000  Uiso   1.00
H1525  H     0.91882   0.68386   0.98940   0.00000  Uiso   1.00
H1526  H     0.93021   0.73069   0.99183   0.00000  Uiso   1.00
H1527  H     0.89981   0.68463   0.06003   0.00000  Uiso   1.00
H1528  H     0.90738   0.73326   0.06059   0.00000  Uiso   1.00
H1529  H     0.86164   0.74084   0.00715   0.00000  Uiso   1.00
H1530  H     0.84227   0.71965   0.04957   0.00000  Uiso   1.00
H1531  H     0.85330   0.69223   0.00785   0.00000  Uiso   1.00
H1532  H     0.92757   0.88075   0.20520   0.00000  Uiso   1.00
H1533  H     0.94311   0.83731   0.01166   0.00000  Uiso   1.00
H1534  H     0.93838   0.78945   0.00722   0.00000  Uiso   1.00
H1535  H     0.92638   0.84455   0.94017   0.00000  Uiso   1.00
H1536  H     0.91593   0.79647   0.93926   0.00000  Uiso   1.00
H1537  H     0.87020   0.80592   0.99272   0.00000  Uiso   1.00
H1538  H     0.85996   0.83244   0.95008   0.00000  Uiso   1.00
H1539  H     0.87993   0.85430   0.99176   0.00000  Uiso   1.00
H1540  H     0.81614   0.91882   0.98940   0.00000  Uiso   1.00
H1541  H     0.76931   0.93021   0.99183   0.00000  Uiso   1.00
H1542  H     0.81537   0.89982   0.06003   0.00000  Uiso   1.00
H1543  H     0.57252   0.61934   0.79494   0.00000  Uiso   1.00
H1544  H     0.76674   0.90738   0.06059   0.00000  Uiso   1.00
H1545  H     0.75916   0.86164   0.00715   0.00000  Uiso   1.00
H1546  H     0.78035   0.84227   0.04957   0.00000  Uiso   1.00
H1547  H     0.80777   0.85330   0.00785   0.00000  Uiso   1.00
H1548  H     0.66269   0.94311   0.01166   0.00000  Uiso   1.00
H1549  H     0.71055   0.93838   0.00722   0.00000  Uiso   1.00
H1550  H     0.65545   0.92638   0.94017   0.00000  Uiso   1.00
H1551  H     0.70353   0.91593   0.93926   0.00000  Uiso   1.00
H1552  H     0.69408   0.87020   0.99272   0.00000  Uiso   1.00
H1553  H     0.66756   0.85996   0.95008   0.00000  Uiso   1.00
H1554  H     0.61934   0.57252   0.79493   0.00000  Uiso   1.00
H1555  H     0.64570   0.87993   0.99176   0.00000  Uiso   1.00
H1556  H     0.58118   0.81614   0.98940   0.00000  Uiso   1.00
H1557  H     0.56979   0.76931   0.99183   0.00000  Uiso   1.00
H1558  H     0.60018   0.81537   0.06003   0.00000  Uiso   1.00
H1559  H     0.59262   0.76674   0.06059   0.00000  Uiso   1.00
H1560  H     0.63836   0.75916   0.00715   0.00000  Uiso   1.00
H1561  H     0.65773   0.78035   0.04957   0.00000  Uiso   1.00
H1562  H     0.64670   0.80778   0.00785   0.00000  Uiso   1.00
H1563  H     0.55689   0.66269   0.01166   0.00000  Uiso   1.00
H1564  H     0.56162   0.71055   0.00722   0.00000  Uiso   1.00
O1565  O     0.75000   0.50000   0.25000   0.00000  Uiso   1.00
O1566  O     0.75000   0.96964   0.66317   0.00000  Uiso   1.00
O1567  O     0.96964   0.75000   0.33683   0.00000  Uiso   1.00
O1568  O     0.53036   0.75000   0.66317   0.00000  Uiso   1.00
O1569  O     0.50000   0.71964   0.83683   0.00000  Uiso   1.00
O1570  O     0.50000   0.78036   0.16317   0.00000  Uiso   1.00
O1571  O     0.78036   0.50000   0.83683   0.00000  Uiso   1.00
O1572  O     0.71964   0.50000   0.16317   0.00000  Uiso   1.00
O1573  O     0.50000   0.78036   0.83683   0.00000  Uiso   1.00
O1574  O     0.50000   0.71964   0.16317   0.00000  Uiso   1.00
O1575  O     0.71964   0.50000   0.83683   0.00000  Uiso   1.00
O1576  O     0.75000   0.50000   0.75000   0.00000  Uiso   1.00
O1577  O     0.78036   0.50000   0.16317   0.00000  Uiso   1.00
O1578  O     0.70725   0.57307   0.27282   0.00000  Uiso   1.00
O1579  O     0.79274   0.92693   0.72718   0.00000  Uiso   1.00
O1580  O     0.92693   0.70726   0.27282   0.00000  Uiso   1.00
O1581  O     0.57307   0.79275   0.72718   0.00000  Uiso   1.00
O1582  O     0.79274   0.92693   0.27282   0.00000  Uiso   1.00
O1583  O     0.70725   0.57307   0.72718   0.00000  Uiso   1.00
O1584  O     0.57307   0.79275   0.27282   0.00000  Uiso   1.00
O1585  O     0.92693   0.70726   0.72718   0.00000  Uiso   1.00
O1586  O     0.70725   0.92693   0.72718   0.00000  Uiso   1.00
O1587  O     0.50000   0.75000   0.25000   0.00000  Uiso   1.00
O1588  O     0.79274   0.57307   0.27282   0.00000  Uiso   1.00
O1589  O     0.92693   0.79275   0.72718   0.00000  Uiso   1.00
O1590  O     0.57307   0.70726   0.27282   0.00000  Uiso   1.00
O1591  O     0.79274   0.57307   0.72718   0.00000  Uiso   1.00
O1592  O     0.70725   0.92693   0.27282   0.00000  Uiso   1.00
O1593  O     0.57307   0.70726   0.72718   0.00000  Uiso   1.00
O1594  O     0.92693   0.79275   0.27282   0.00000  Uiso   1.00
O1595  O     0.95725   0.82307   0.77282   0.00000  Uiso   1.00
O1596  O     0.54274   0.67693   0.22718   0.00000  Uiso   1.00
O1597  O     0.67693   0.95726   0.77282   0.00000  Uiso   1.00
O1598  O     0.50000   0.75000   0.75000   0.00000  Uiso   1.00
O1599  O     0.82307   0.54275   0.22718   0.00000  Uiso   1.00
O1600  O     0.54274   0.67693   0.77282   0.00000  Uiso   1.00
O1601  O     0.95725   0.82307   0.22718   0.00000  Uiso   1.00
O1602  O     0.82307   0.54275   0.77282   0.00000  Uiso   1.00
O1603  O     0.67693   0.95726   0.22718   0.00000  Uiso   1.00
O1604  O     0.95725   0.67693   0.22718   0.00000  Uiso   1.00
O1605  O     0.54274   0.82307   0.77282   0.00000  Uiso   1.00
O1606  O     0.67693   0.54275   0.22718   0.00000  Uiso   1.00
O1607  O     0.82307   0.95726   0.77282   0.00000  Uiso   1.00
O1608  O     0.54274   0.82307   0.22718   0.00000  Uiso   1.00
O1609  O     0.75000   0.96964   0.33683   0.00000  Uiso   1.00
O1610  O     0.95725   0.67693   0.77282   0.00000  Uiso   1.00
O1611  O     0.82307   0.95726   0.22718   0.00000  Uiso   1.00
O1612  O     0.67693   0.54275   0.77282   0.00000  Uiso   1.00
O1613  O     0.69425   0.53735   0.02399   0.00000  Uiso   1.00
O1614  O     0.81435   0.51866   0.97649   0.00000  Uiso   1.00
O1615  O     0.96265   0.69425   0.02399   0.00000  Uiso   1.00
O1616  O     0.98134   0.81435   0.97649   0.00000  Uiso   1.00
O1617  O     0.80575   0.96265   0.02399   0.00000  Uiso   1.00
O1618  O     0.68565   0.98134   0.97649   0.00000  Uiso   1.00
O1619  O     0.53735   0.80575   0.02399   0.00000  Uiso   1.00
O1620  O     0.75000   0.53036   0.66317   0.00000  Uiso   1.00
O1621  O     0.51866   0.68565   0.97649   0.00000  Uiso   1.00
O1622  O     0.93565   0.76866   0.52351   0.00000  Uiso   1.00
O1623  O     0.55575   0.78735   0.47601   0.00000  Uiso   1.00
O1624  O     0.73134   0.93565   0.52351   0.00000  Uiso   1.00
O1625  O     0.71265   0.55575   0.47601   0.00000  Uiso   1.00
O1626  O     0.56435   0.73134   0.52351   0.00000  Uiso   1.00
O1627  O     0.94425   0.71265   0.47601   0.00000  Uiso   1.00
O1628  O     0.76866   0.56435   0.52351   0.00000  Uiso   1.00
O1629  O     0.78735   0.94425   0.47601   0.00000  Uiso   1.00
O1630  O     0.53036   0.75000   0.33683   0.00000  Uiso   1.00
O1631  O     0.96964   0.75000   0.66317   0.00000  Uiso   1.00
O1632  O     0.75000   0.53036   0.33683   0.00000  Uiso   1.00
Zn1633 Zn    0.70660   0.50000   0.21760   0.00000  Uiso   1.00
Zn1634 Zn    0.54340   0.75000   0.28240   0.00000  Uiso   1.00
Zn1635 Zn    0.75000   0.95660   0.71760   0.00000  Uiso   1.00
Zn1636 Zn    0.75000   0.54340   0.28240   0.00000  Uiso   1.00
Zn1637 Zn    0.54340   0.75000   0.71760   0.00000  Uiso   1.00
Zn1638 Zn    0.95660   0.75000   0.28240   0.00000  Uiso   1.00
Zn1639 Zn    0.75000   0.54340   0.71760   0.00000  Uiso   1.00
Zn1640 Zn    0.75000   0.95660   0.28240   0.00000  Uiso   1.00
Zn1641 Zn    0.79340   0.50000   0.78240   0.00000  Uiso   1.00
Zn1642 Zn    0.50000   0.70660   0.21760   0.00000  Uiso   1.00
Zn1643 Zn    0.50000   0.79340   0.78240   0.00000  Uiso   1.00
Zn1644 Zn    0.79340   0.50000   0.21760   0.00000  Uiso   1.00
Zn1645 Zn    0.70660   0.50000   0.78240   0.00000  Uiso   1.00
Zn1646 Zn    0.50000   0.79340   0.21760   0.00000  Uiso   1.00
Zn1647 Zn    0.50000   0.70660   0.78240   0.00000  Uiso   1.00
Zn1648 Zn    0.95660   0.75000   0.71760   0.00000  Uiso   1.00
loop_
_geom_bond_atom_site_label_1
_geom_bond_atom_site_label_2
_geom_bond_distance
_geom_bond_site_symmetry_2
_ccdc_geom_bond_type
C1     C78     1.393   .     A
C1     O377    1.387   .     S
C1     C96     1.420   .     A
C2     O387    1.387   .     S
C2     C88     1.393   .     A
C2     C101    1.420   .     S
C3     C144    1.402   .     A
C3     C115    1.455   .     S
C3     C151    1.402   .     A
C4     C154    1.402   .     A
C4     C116    1.455   .     S
C4     C143    1.402   .     A
C5     C142    1.402   .     A
C5     C117    1.455   .     S
C5     C153    1.402   .     A
C6     C141    1.402   .     A
C6     C156    1.402   .     A
C6     C118    1.455   .     S
C7     C119    1.455   .     S
C7     C140    1.402   .     A
C7     C155    1.402   .     A
C8     C129    1.455   .     S
C8     C159    1.402   .     A
C8     C139    1.402   .     A
C9     C130    1.455   .     S
C9     C157    1.402   .     A
C9     C138    1.402   .     A
C10    C122    1.455   .     S
C10    C161    1.402   .     A
C10    C137    1.402   .     A
C11    C160    1.402   .     A
C11    C135    1.402   .     A
C11    C123    1.455   .     S
C12    C163    1.402   .     A
C12    C124    1.455   .     S
C12    C134    1.402   .     A
C13    C926    1.419   .     A
C13    O388    1.386   .     S
C13    C89     1.393   .     A
C14    C126    1.455   .     S
C14    C133    1.402   .     A
C14    C162    1.402   .     A
C15    C132    1.402   .     A
C15    C127    1.455   .     S
C15    C165    1.402   .     A
C16    C131    1.402   .     A
C16    C164    1.402   .     A
C16    C128    1.455   .     S
C17    C907    1.396   1_545 A
C17    C78     1.396   .     S
C17    C112    1.457   .     S
C18    C908    1.398   1_545 A
C18    C111    1.463   .     S
C18    C79     1.398   .     S
C19    C492    1.396   1_455 A
C19    C85     1.396   .     S
C19    C110    1.457   .     S
C20    C86     1.398   .     A
C20    C109    1.463   .     S
C20    C494    1.398   1_455 S
C21    C108    1.463   .     S
C21    C499    1.398   1_455 A
C21    C91     1.398   .     S
C22    C107    1.457   .     S
C22    C505    1.396   1_455 A
C22    C88     1.396   .     S
C23    C913    1.398   1_545 A
C23    C106    1.463   .     S
C23    C94     1.398   .     S
C24    O389    1.387   .     S
C24    C90     1.393   .     A
C24    C104    1.420   .     A
C25    C105    1.457   .     S
C25    C90     1.396   .     A
C25    C919    1.396   1_545 S
C26    C27     1.535   .     S
C26    O377    1.415   .     S
C26    H273    1.111   1_554 S
C26    H275    1.109   1_554 S
C27    H277    1.111   .     S
C27    H276    1.112   .     S
C27    C28     1.526   .     S
C28    H280    1.110   .     S
C28    H279    1.110   .     S
C28    H278    1.110   .     S
C29    C30     1.535   .     S
C29    O378    1.414   .     S
C29    H281    1.111   1_556 S
C29    H282    1.109   1_556 S
C30    C31     1.526   .     S
C30    H283    1.112   .     S
C30    H284    1.111   .     S
C31    H288    1.111   .     S
C31    H286    1.110   .     S
C31    H287    1.110   .     S
C32    C33     1.535   .     S
C32    O379    1.415   .     S
C32    H289    1.111   1_554 S
C32    H290    1.109   1_554 S
C33    H292    1.111   .     S
C33    H291    1.112   .     S
C33    C34     1.526   .     S
C34    H294    1.110   .     S
C34    H295    1.110   .     S
C34    H293    1.110   .     S
C35    C100    1.419   .     A
C35    O390    1.386   .     S
C35    C91     1.393   .     A
C36    C37     1.535   .     S
C36    O380    1.414   .     S
C36    H297    1.111   1_556 S
C36    H298    1.109   1_556 S
C37    C38     1.526   .     S
C37    H299    1.112   .     S
C37    H300    1.111   .     S
C38    H302    1.110   .     S
C38    H303    1.111   .     S
C38    H301    1.110   .     S
C39    C40     1.535   .     S
C39    O381    1.415   .     S
C39    H304    1.111   1_554 S
C39    H305    1.109   1_554 S
C40    H306    1.112   .     S
C40    H308    1.111   .     S
C40    C41     1.526   .     S
C41    H309    1.110   .     S
C41    H311    1.110   .     S
C41    H310    1.110   .     S
C42    O382    1.414   .     S
C42    C43     1.535   .     S
C42    H312    1.111   1_556 S
C42    H313    1.109   1_556 S
C43    H314    1.112   .     S
C43    H315    1.111   .     S
C43    C44     1.526   .     S
C44    H316    1.110   .     S
C44    H317    1.110   .     S
C44    H319    1.111   .     S
C45    C47     1.535   .     S
C45    O383    1.415   .     S
C45    H320    1.111   1_554 S
C45    H321    1.109   1_554 S
C46    O391    1.387   .     S
C46    C513    1.420   .     A
C46    C93     1.393   .     A
C47    H322    1.112   .     S
C47    H323    1.111   .     S
C47    C48     1.526   .     S
C48    H324    1.110   .     S
C48    H325    1.110   .     S
C48    H326    1.110   .     S
C49    C50     1.535   .     S
C49    O385    1.414   .     S
C49    H327    1.111   1_556 S
C49    H328    1.109   1_556 S
C50    H171    1.112   .     S
C50    H172    1.111   .     S
C50    C51     1.526   .     S
C51    H174    1.110   .     S
C51    H175    1.111   .     S
C51    H173    1.110   .     S
C52    H177    1.109   .     S
C52    O386    1.414   .     S
C52    C53     1.535   .     S
C52    H176    1.111   .     S
C53    H178    1.112   .     S
C53    C54     1.526   .     S
C53    H179    1.111   .     S
C54    H183    1.111   .     S
C54    H182    1.110   .     S
C54    H180    1.110   .     S
C55    C56     1.535   .     S
C55    O387    1.415   .     S
C55    H184    1.111   .     S
C55    H185    1.109   .     S
C56    H187    1.111   .     S
C56    C58     1.526   .     S
C56    H186    1.112   .     S
C57    C94     1.393   .     A
C57    O392    1.386   .     S
C57    C102    1.419   .     S
C58    H190    1.110   .     S
C58    H188    1.110   .     S
C58    H189    1.110   .     S
C59    H191    1.111   .     S
C59    C60     1.535   .     S
C59    H193    1.109   .     S
C59    O388    1.414   .     S
C60    H195    1.111   .     S
C60    C61     1.526   .     S
C60    H194    1.112   .     S
C61    H197    1.110   .     S
C61    H196    1.110   .     S
C61    H198    1.111   .     S
C62    O389    1.415   .     S
C62    H199    1.111   .     S
C62    C63     1.535   .     S
C62    H200    1.109   .     S
C63    H202    1.111   .     S
C63    H201    1.112   .     S
C63    C64     1.526   .     S
C64    H204    1.110   .     S
C64    H205    1.110   .     S
C64    H206    1.110   .     S
C65    H208    1.109   .     S
C65    O390    1.414   .     S
C65    H207    1.111   .     S
C65    C66     1.535   .     S
C66    H210    1.111   .     S
C66    C67     1.526   .     S
C66    H209    1.112   .     S
C67    H211    1.110   .     S
C67    H212    1.110   .     S
C67    H213    1.111   .     S
C68    C95     1.393   .     A
C68    O393    1.387   .     S
C68    C928    1.420   .     S
C69    C70     1.535   .     S
C69    H216    1.109   .     S
C69    H215    1.111   .     S
C69    O391    1.415   .     S
C70    H218    1.111   .     S
C70    C71     1.526   .     S
C70    H217    1.112   .     S
C71    H221    1.110   .     S
C71    H220    1.110   .     S
C71    H219    1.110   .     S
C72    C73     1.535   .     S
C72    O392    1.414   .     S
C72    H223    1.109   .     S
C72    H222    1.111   .     S
C73    H226    1.111   .     S
C73    C74     1.526   .     S
C73    H224    1.112   .     S
C74    H228    1.110   .     S
C74    H229    1.111   .     S
C74    H227    1.110   .     S
C75    C76     1.535   .     S
C75    H230    1.111   .     S
C75    H231    1.109   .     S
C75    O393    1.415   .     S
C76    H232    1.111   .     S
C76    H233    1.111   .     S
C76    C77     1.526   .     S
C77    H235    1.110   .     S
C77    H237    1.110   .     S
C77    H234    1.110   .     S
C78    H256    1.084   .     S
C79    H257    1.084   .     S
C79    C81     1.393   .     A
C80    C92     1.393   .     A
C80    C431    1.396   .     A
C80    H258    1.084   .     S
C81    O378    1.386   .     S
C81    C97     1.419   .     A
C82    H259    1.084   .     S
C82    C103    1.393   .     A
C82    C432    1.398   .     S
C83    C114    1.393   .     A
C83    H260    1.084   .     S
C83    C841    1.396   .     A
C84    C842    1.398   .     A
C84    H261    1.084   .     S
C84    C125    1.393   .     A
C85    C136    1.393   .     A
C85    H262    1.084   .     S
C86    C147    1.393   .     A
C86    H264    1.084   .     S
C87    H265    1.084   .     S
C87    C433    1.398   .     A
C87    C158    1.393   .     A
C88    H266    1.084   .     S
C89    C847    1.398   .     A
C89    H267    1.084   .     S
C90    H268    1.084   .     S
C91    H269    1.084   .     S
C92    O379    1.387   .     S
C92    C510    1.420   .     A
C93    H270    1.084   .     S
C93    C434    1.396   .     A
C94    H271    1.084   .     S
C95    H272    1.084   .     S
C95    C849    1.396   .     S
C96    C97     1.476   1_554 S
C96    C938    1.420   1_545 S
C97    C96     1.476   1_556 S
C97    C949    1.419   1_545 S
C98    C504    1.420   1_455 A
C98    C99     1.476   1_554 S
C98    C136    1.420   .     S
C99    C515    1.419   1_455 A
C99    C98     1.476   1_556 S
C99    C147    1.419   .     S
C100   C101    1.476   .     S
C100   C570    1.419   1_455 S
C101   C458    1.420   1_455 A
C102   C837    1.419   1_545 A
C102   C104    1.476   .     S
C103   C511    1.419   .     A
C103   O380    1.386   .     S
C104   C892    1.420   1_545 S
C105   O396    1.280   .     A
C105   O1197   1.280   1_545 S
C106   O1154   1.282   1_545 A
C106   O384    1.282   .     S
C107   O743    1.280   1_455 A
C107   O394    1.280   .     S
C108   O807    1.282   1_455 A
C108   O332    1.282   .     S
C109   O333    1.282   .     S
C109   O337    1.282   .     S
C110   O338    1.280   .     A
C110   O334    1.280   .     S
C111   O335    1.282   .     A
C111   O339    1.282   .     A
C112   O336    1.280   .     A
C112   O341    1.280   .     A
C113   O342    1.280   .     A
C113   C168    1.455   .     S
C113   O370    1.280   .     A
C114   O381    1.387   .     S
C114   C920    1.420   .     S
C115   O371    1.280   .     A
C115   O343    1.280   .     A
C116   O368    1.280   .     A
C116   O344    1.280   .     A
C117   O369    1.280   .     A
C117   O345    1.280   .     A
C118   O375    1.280   .     A
C118   O346    1.280   .     A
C119   O347    1.280   .     A
C119   O376    1.280   .     A
C120   C166    1.455   .     S
C120   O348    1.280   .     A
C120   O372    1.280   .     A
C121   O349    1.280   .     A
C121   C167    1.455   .     S
C121   O374    1.280   .     A
C122   O350    1.280   .     A
C122   O361    1.280   .     A
C123   O363    1.280   .     A
C123   O352    1.280   .     A
C124   O353    1.280   .     A
C124   O359    1.280   .     A
C125   O382    1.386   .     S
C125   C921    1.419   .     S
C126   O360    1.280   .     A
C126   O354    1.280   .     A
C127   O366    1.280   .     A
C127   O355    1.280   .     A
C128   O367    1.280   .     A
C128   O356    1.280   .     A
C129   O364    1.280   .     A
C129   O357    1.280   .     A
C130   O365    1.280   .     A
C130   O358    1.280   .     A
C131   H169    1.083   .     S
C131   C148    1.386   .     A
C132   C146    1.386   .     A
C132   H241    1.083   .     S
C133   C145    1.386   .     A
C133   H252    1.083   .     S
C134   H263    1.083   .     S
C134   C144    1.386   .     A
C135   C143    1.386   .     A
C135   H274    1.083   .     S
C136   O383    1.387   .     S
C137   C142    1.386   .     A
C137   H285    1.083   .     S
C138   C141    1.386   .     A
C138   H296    1.083   .     S
C139   C140    1.386   .     A
C139   H307    1.083   .     S
C140   H318    1.083   .     S
C141   H170    1.083   .     S
C142   H181    1.083   .     S
C143   H192    1.083   .     S
C144   H203    1.083   .     S
C145   H214    1.083   .     S
C145   C168    1.402   .     A
C146   H225    1.083   .     S
C146   C167    1.402   .     A
C147   O385    1.386   .     S
C148   C166    1.402   .     A
C148   H236    1.083   .     S
C149   C165    1.386   .     A
C149   C167    1.402   .     A
C149   H238    1.083   .     S
C150   C166    1.402   .     A
C150   C164    1.386   .     A
C150   H239    1.083   .     S
C151   H240    1.083   .     S
C151   C163    1.386   .     A
C152   C168    1.402   .     A
C152   C162    1.386   .     A
C152   H242    1.083   .     S
C153   C161    1.386   .     A
C153   H243    1.083   .     S
C154   C160    1.386   .     A
C154   H244    1.083   .     S
C155   H245    1.083   .     S
C155   C159    1.386   .     A
C156   H246    1.083   .     S
C156   C157    1.386   .     A
C157   H247    1.083   .     S
C158   O386    1.386   .     S
C158   C512    1.419   .     S
C159   H248    1.083   .     S
C160   H249    1.083   .     S
C161   H250    1.083   .     S
C162   H251    1.083   .     S
C163   H253    1.083   .     S
C164   H254    1.083   .     S
C165   H255    1.083   .     S
H273   C26     1.111   1_556 S
H275   C26     1.109   1_556 S
H281   C29     1.111   1_554 S
H282   C29     1.109   1_554 S
H289   C32     1.111   1_556 S
H290   C32     1.109   1_556 S
H297   C36     1.111   1_554 S
H298   C36     1.109   1_554 S
H304   C39     1.111   1_556 S
H305   C39     1.109   1_556 S
H312   C42     1.111   1_554 S
H313   C42     1.109   1_554 S
H320   C45     1.111   1_556 S
H321   C45     1.109   1_556 S
H327   C49     1.111   1_554 S
H328   C49     1.109   1_554 S
O329   Zn400   1.946   .     S
O329   Zn397   1.946   .     S
O329   Zn1228  1.946   1_545 S
O329   Zn408   1.946   .     S
O330   Zn399   1.940   .     S
O330   C930    1.282   .     A
O331   C519    1.280   .     A
O331   Zn402   1.940   .     S
O332   Zn401   1.940   .     S
O333   Zn411   1.940   .     S
O334   Zn410   1.940   .     S
O335   Zn405   1.940   .     S
O336   Zn397   1.940   .     S
O337   Zn407   1.940   .     S
O338   Zn406   1.940   .     S
O339   Zn409   1.940   .     S
O340   Zn403   1.946   .     S
O340   Zn1223  1.946   1_545 S
O340   Zn405   1.946   .     S
O340   Zn409   1.946   .     S
O341   Zn408   1.940   .     S
O342   Zn400   1.937   .     S
O343   Zn399   1.937   .     S
O344   Zn402   1.937   .     S
O345   Zn401   1.937   .     S
O346   Zn404   1.937   .     S
O347   Zn403   1.937   .     S
O348   Zn398   1.937   .     S
O349   Zn412   1.937   .     S
O350   Zn399   1.937   .     S
O351   Zn410   1.946   .     S
O351   Zn814   1.946   1_455 S
O351   Zn406   1.946   .     S
O351   Zn398   1.946   .     S
O352   Zn400   1.937   .     S
O353   Zn412   1.937   .     S
O354   Zn398   1.937   .     S
O355   Zn403   1.937   .     S
O356   Zn404   1.937   .     S
O357   Zn401   1.937   .     S
O358   Zn402   1.937   .     S
O359   Zn819   1.937   .     S
O360   Zn406   1.937   .     S
O361   Zn1233  1.937   .     S
O362   Zn411   1.946   .     S
O362   Zn824   1.946   1_455 S
O362   Zn407   1.946   .     S
O362   Zn401   1.946   .     S
O363   Zn408   1.937   .     S
O364   Zn411   1.937   .     S
O365   Zn822   1.937   .     S
O366   Zn405   1.937   .     S
O367   Zn1221  1.937   .     S
O368   Zn818   1.937   .     S
O369   Zn407   1.937   .     S
O370   Zn397   1.937   .     S
O371   Zn1229  1.937   .     S
O372   Zn410   1.937   .     S
O373   Zn404   1.940   .     S
O373   C929    1.280   .     S
O374   Zn823   1.937   .     S
O375   Zn1232  1.937   .     S
O376   Zn409   1.937   .     S
O384   Zn403   1.940   .     S
O394   Zn398   1.940   .     S
O395   C520    1.282   .     A
O395   Zn412   1.940   .     S
O396   Zn400   1.940   .     S
Zn397  O1191   1.937   1_545 S
Zn399  O1164   1.946   .     S
Zn402  O763    1.946   .     S
Zn404  O1153   1.946   .     S
Zn405  O1195   1.937   1_545 S
Zn406  O780    1.937   1_455 S
Zn407  O771    1.937   1_455 S
Zn408  O1199   1.937   1_545 S
Zn409  O1185   1.937   1_545 S
Zn410  O777    1.937   1_455 S
Zn411  O786    1.937   1_455 S
Zn412  O774    1.946   .     S
C413   C490    1.393   .     A
C413   O789    1.387   .     S
C413   C508    1.420   .     A
C414   O799    1.387   .     S
C414   C500    1.393   .     A
C414   C513    1.420   .     S
C415   C556    1.402   .     A
C415   C527    1.455   .     S
C415   C563    1.402   .     A
C416   C566    1.402   .     A
C416   C528    1.455   .     S
C416   C555    1.402   .     A
C417   C554    1.402   .     A
C417   C529    1.455   .     S
C417   C565    1.402   .     A
C418   C553    1.402   .     A
C418   C568    1.402   .     A
C418   C530    1.455   .     S
C419   C531    1.455   .     S
C419   C552    1.402   .     A
C419   C567    1.402   .     A
C420   C541    1.455   .     S
C420   C571    1.402   .     A
C420   C551    1.402   .     A
C421   C542    1.455   .     S
C421   C569    1.402   .     A
C421   C550    1.402   .     A
C422   C534    1.455   .     S
C422   C573    1.402   .     A
C422   C549    1.402   .     A
C423   C572    1.402   .     A
C423   C547    1.402   .     A
C423   C535    1.455   .     S
C424   C575    1.402   .     A
C424   C536    1.455   .     S
C424   C546    1.402   .     A
C425   C1338   1.419   .     A
C425   O800    1.386   .     S
C425   C501    1.393   .     A
C426   C538    1.455   .     S
C426   C545    1.402   .     A
C426   C574    1.402   .     A
C427   C544    1.402   .     A
C427   C539    1.455   .     S
C427   C577    1.402   .     A
C428   C543    1.402   .     A
C428   C576    1.402   .     A
C428   C540    1.455   .     S
C429   C1319   1.396   1_545 A
C429   C490    1.396   .     S
C429   C524    1.457   .     S
C430   C1320   1.398   1_545 A
C430   C523    1.463   .     S
C430   C491    1.398   .     S
C431   C497    1.396   .     S
C431   C522    1.457   .     S
C432   C498    1.398   .     A
C432   C521    1.463   .     S
C433   C520    1.463   .     S
C433   C503    1.398   .     S
C434   C519    1.457   .     S
C434   C500    1.396   .     S
C435   C1325   1.398   1_545 A
C435   C518    1.463   .     S
C435   C506    1.398   .     S
C436   O801    1.387   .     S
C436   C502    1.393   .     A
C436   C516    1.420   .     A
C437   C517    1.457   .     S
C437   C502    1.396   .     A
C437   C1331   1.396   1_545 S
C438   C439    1.535   .     S
C438   O789    1.415   .     S
C438   H685    1.111   1_554 S
C438   H687    1.109   1_554 S
C439   H689    1.111   .     S
C439   H688    1.112   .     S
C439   C440    1.526   .     S
C440   H692    1.110   .     S
C440   H691    1.110   .     S
C440   H690    1.110   .     S
C441   C442    1.535   .     S
C441   O790    1.414   .     S
C441   H693    1.111   1_556 S
C441   H694    1.109   1_556 S
C442   C443    1.526   .     S
C442   H695    1.112   .     S
C442   H696    1.111   .     S
C443   H700    1.111   .     S
C443   H698    1.110   .     S
C443   H699    1.110   .     S
C444   C445    1.535   .     S
C444   O791    1.415   .     S
C444   H701    1.111   1_554 S
C444   H702    1.109   1_554 S
C445   H704    1.111   .     S
C445   H703    1.112   .     S
C445   C446    1.526   .     S
C446   H706    1.110   .     S
C446   H707    1.110   .     S
C446   H705    1.110   .     S
C447   C512    1.419   .     A
C447   O802    1.386   .     S
C447   C503    1.393   .     A
C448   C449    1.535   .     S
C448   O792    1.414   .     S
C448   H709    1.111   1_556 S
C448   H710    1.109   1_556 S
C449   C450    1.526   .     S
C449   H711    1.112   .     S
C449   H712    1.111   .     S
C450   H714    1.110   .     S
C450   H715    1.111   .     S
C450   H713    1.110   .     S
C451   C452    1.535   .     S
C451   O793    1.415   .     S
C451   H716    1.111   1_554 S
C451   H717    1.109   1_554 S
C452   H718    1.112   .     S
C452   H720    1.111   .     S
C452   C453    1.526   .     S
C453   H721    1.110   .     S
C453   H723    1.110   .     S
C453   H722    1.110   .     S
C454   O794    1.414   .     S
C454   C455    1.535   .     S
C454   H724    1.111   1_556 S
C454   H725    1.109   1_556 S
C455   H726    1.112   .     S
C455   H727    1.111   .     S
C455   C456    1.526   .     S
C456   H728    1.110   .     S
C456   H729    1.110   .     S
C456   H731    1.111   .     S
C457   C459    1.535   .     S
C457   O795    1.415   .     S
C457   H732    1.111   1_554 S
C457   H733    1.109   1_554 S
C458   O803    1.387   .     S
C458   C101    1.420   1_655 A
C458   C505    1.393   .     A
C459   H734    1.112   .     S
C459   H735    1.111   .     S
C459   C460    1.526   .     S
C460   H736    1.110   .     S
C460   H737    1.110   .     S
C460   H738    1.110   .     S
C461   C462    1.535   .     S
C461   O797    1.414   .     S
C461   H739    1.111   1_556 S
C461   H740    1.109   1_556 S
C462   H583    1.112   .     S
C462   H584    1.111   .     S
C462   C463    1.526   .     S
C463   H586    1.110   .     S
C463   H587    1.111   .     S
C463   H585    1.110   .     S
C464   H589    1.109   .     S
C464   O798    1.414   .     S
C464   C465    1.535   .     S
C464   H588    1.111   .     S
C465   H590    1.112   .     S
C465   C466    1.526   .     S
C465   H591    1.111   .     S
C466   H595    1.111   .     S
C466   H594    1.110   .     S
C466   H592    1.110   .     S
C467   C468    1.535   .     S
C467   O799    1.415   .     S
C467   H596    1.111   .     S
C467   H597    1.109   .     S
C468   H599    1.111   .     S
C468   C470    1.526   .     S
C468   H598    1.112   .     S
C469   C506    1.393   .     A
C469   O804    1.386   .     S
C469   C514    1.419   .     S
C470   H602    1.110   .     S
C470   H600    1.110   .     S
C470   H601    1.110   .     S
C471   H603    1.111   .     S
C471   C472    1.535   .     S
C471   H605    1.109   .     S
C471   O800    1.414   .     S
C472   H607    1.111   .     S
C472   C473    1.526   .     S
C472   H606    1.112   .     S
C473   H609    1.110   .     S
C473   H608    1.110   .     S
C473   H610    1.111   .     S
C474   O801    1.415   .     S
C474   H611    1.111   .     S
C474   C475    1.535   .     S
C474   H612    1.109   .     S
C475   H614    1.111   .     S
C475   H613    1.112   .     S
C475   C476    1.526   .     S
C476   H616    1.110   .     S
C476   H617    1.110   .     S
C476   H618    1.110   .     S
C477   H620    1.109   .     S
C477   O802    1.414   .     S
C477   H619    1.111   .     S
C477   C478    1.535   .     S
C478   H622    1.111   .     S
C478   C479    1.526   .     S
C478   H621    1.112   .     S
C479   H623    1.110   .     S
C479   H624    1.110   .     S
C479   H625    1.111   .     S
C480   C507    1.393   .     A
C480   O805    1.387   .     S
C480   C1340   1.420   .     S
C481   C482    1.535   .     S
C481   H628    1.109   .     S
C481   H627    1.111   .     S
C481   O803    1.415   .     S
C482   H630    1.111   .     S
C482   C483    1.526   .     S
C482   H629    1.112   .     S
C483   H633    1.110   .     S
C483   H632    1.110   .     S
C483   H631    1.110   .     S
C484   C485    1.535   .     S
C484   O804    1.414   .     S
C484   H635    1.109   .     S
C484   H634    1.111   .     S
C485   H638    1.111   .     S
C485   C486    1.526   .     S
C485   H636    1.112   .     S
C486   H640    1.110   .     S
C486   H641    1.111   .     S
C486   H639    1.110   .     S
C487   C488    1.535   .     S
C487   H642    1.111   .     S
C487   H643    1.109   .     S
C487   O805    1.415   .     S
C488   H644    1.111   .     S
C488   H645    1.111   .     S
C488   C489    1.526   .     S
C489   H647    1.110   .     S
C489   H649    1.110   .     S
C489   H646    1.110   .     S
C490   H668    1.084   .     S
C491   H669    1.084   .     S
C491   C493    1.393   .     A
C492   C504    1.393   .     A
C492   C19     1.396   1_655 A
C492   H670    1.084   .     S
C493   O790    1.386   .     S
C493   C509    1.419   .     A
C494   H671    1.084   .     S
C494   C515    1.393   .     A
C494   C20     1.398   1_655 S
C495   C526    1.393   .     A
C495   H672    1.084   .     S
C495   C1253   1.396   .     A
C496   C1254   1.398   .     A
C496   H673    1.084   .     S
C496   C537    1.393   .     A
C497   C548    1.393   .     A
C497   H674    1.084   .     S
C498   C559    1.393   .     A
C498   H676    1.084   .     S
C499   H677    1.084   .     S
C499   C21     1.398   1_655 A
C499   C570    1.393   .     A
C500   H678    1.084   .     S
C501   C1259   1.398   .     A
C501   H679    1.084   .     S
C502   H680    1.084   .     S
C503   H681    1.084   .     S
C504   O791    1.387   .     S
C504   C98     1.420   1_655 A
C505   H682    1.084   .     S
C505   C22     1.396   1_655 A
C506   H683    1.084   .     S
C507   H684    1.084   .     S
C507   C1261   1.396   .     S
C508   C509    1.476   1_554 S
C508   C1350   1.420   1_545 S
C509   C508    1.476   1_556 S
C509   C1361   1.419   1_545 S
C510   C511    1.476   1_554 S
C510   C548    1.420   .     S
C511   C510    1.476   1_556 S
C511   C559    1.419   .     S
C512   C513    1.476   .     S
C514   C1249   1.419   1_545 A
C514   C516    1.476   .     S
C515   C99     1.419   1_655 A
C515   O792    1.386   .     S
C516   C1304   1.420   1_545 S
C517   O808    1.280   .     A
C517   O1609   1.280   1_545 S
C518   O1566   1.282   1_545 A
C518   O796    1.282   .     S
C519   O806    1.280   .     S
C520   O744    1.282   .     S
C521   O745    1.282   .     S
C521   O749    1.282   .     S
C522   O750    1.280   .     A
C522   O746    1.280   .     S
C523   O747    1.282   .     A
C523   O751    1.282   .     A
C524   O748    1.280   .     A
C524   O753    1.280   .     A
C525   O754    1.280   .     A
C525   C580    1.455   .     S
C525   O782    1.280   .     A
C526   O793    1.387   .     S
C526   C1332   1.420   .     S
C527   O783    1.280   .     A
C527   O755    1.280   .     A
C528   O780    1.280   .     A
C528   O756    1.280   .     A
C529   O781    1.280   .     A
C529   O757    1.280   .     A
C530   O787    1.280   .     A
C530   O758    1.280   .     A
C531   O759    1.280   .     A
C531   O788    1.280   .     A
C532   C578    1.455   .     S
C532   O760    1.280   .     A
C532   O784    1.280   .     A
C533   O761    1.280   .     A
C533   C579    1.455   .     S
C533   O786    1.280   .     A
C534   O762    1.280   .     A
C534   O773    1.280   .     A
C535   O775    1.280   .     A
C535   O764    1.280   .     A
C536   O765    1.280   .     A
C536   O771    1.280   .     A
C537   O794    1.386   .     S
C537   C1333   1.419   .     S
C538   O772    1.280   .     A
C538   O766    1.280   .     A
C539   O778    1.280   .     A
C539   O767    1.280   .     A
C540   O779    1.280   .     A
C540   O768    1.280   .     A
C541   O776    1.280   .     A
C541   O769    1.280   .     A
C542   O777    1.280   .     A
C542   O770    1.280   .     A
C543   H581    1.083   .     S
C543   C560    1.386   .     A
C544   C558    1.386   .     A
C544   H653    1.083   .     S
C545   C557    1.386   .     A
C545   H664    1.083   .     S
C546   H675    1.083   .     S
C546   C556    1.386   .     A
C547   C555    1.386   .     A
C547   H686    1.083   .     S
C548   O795    1.387   .     S
C549   C554    1.386   .     A
C549   H697    1.083   .     S
C550   C553    1.386   .     A
C550   H708    1.083   .     S
C551   C552    1.386   .     A
C551   H719    1.083   .     S
C552   H730    1.083   .     S
C553   H582    1.083   .     S
C554   H593    1.083   .     S
C555   H604    1.083   .     S
C556   H615    1.083   .     S
C557   H626    1.083   .     S
C557   C580    1.402   .     A
C558   H637    1.083   .     S
C558   C579    1.402   .     A
C559   O797    1.386   .     S
C560   C578    1.402   .     A
C560   H648    1.083   .     S
C561   C577    1.386   .     A
C561   C579    1.402   .     A
C561   H650    1.083   .     S
C562   C578    1.402   .     A
C562   C576    1.386   .     A
C562   H651    1.083   .     S
C563   H652    1.083   .     S
C563   C575    1.386   .     A
C564   C580    1.402   .     A
C564   C574    1.386   .     A
C564   H654    1.083   .     S
C565   C573    1.386   .     A
C565   H655    1.083   .     S
C566   C572    1.386   .     A
C566   H656    1.083   .     S
C567   H657    1.083   .     S
C567   C571    1.386   .     A
C568   H658    1.083   .     S
C568   C569    1.386   .     A
C569   H659    1.083   .     S
C570   O798    1.386   .     S
C570   C100    1.419   1_655 S
C571   H660    1.083   .     S
C572   H661    1.083   .     S
C573   H662    1.083   .     S
C574   H663    1.083   .     S
C575   H665    1.083   .     S
C576   H666    1.083   .     S
C577   H667    1.083   .     S
H685   C438    1.111   1_556 S
H687   C438    1.109   1_556 S
H693   C441    1.111   1_554 S
H694   C441    1.109   1_554 S
H701   C444    1.111   1_556 S
H702   C444    1.109   1_556 S
H709   C448    1.111   1_554 S
H710   C448    1.109   1_554 S
H716   C451    1.111   1_556 S
H717   C451    1.109   1_556 S
H724   C454    1.111   1_554 S
H725   C454    1.109   1_554 S
H732   C457    1.111   1_556 S
H733   C457    1.109   1_556 S
H739   C461    1.111   1_554 S
H740   C461    1.109   1_554 S
O741   Zn812   1.946   .     S
O741   Zn809   1.946   .     S
O741   Zn1640  1.946   1_545 S
O741   Zn820   1.946   .     S
O742   Zn811   1.940   .     S
O742   C1342   1.282   .     A
O743   C107    1.280   1_655 A
O743   Zn814   1.940   .     S
O744   Zn813   1.940   .     S
O745   Zn823   1.940   .     S
O746   Zn822   1.940   .     S
O747   Zn817   1.940   .     S
O748   Zn809   1.940   .     S
O749   Zn819   1.940   .     S
O750   Zn818   1.940   .     S
O751   Zn821   1.940   .     S
O752   Zn815   1.946   .     S
O752   Zn1635  1.946   1_545 S
O752   Zn817   1.946   .     S
O752   Zn821   1.946   .     S
O753   Zn820   1.940   .     S
O754   Zn812   1.937   .     S
O755   Zn811   1.937   .     S
O756   Zn814   1.937   .     S
O757   Zn813   1.937   .     S
O758   Zn816   1.937   .     S
O759   Zn815   1.937   .     S
O760   Zn810   1.937   .     S
O761   Zn824   1.937   .     S
O762   Zn811   1.937   .     S
O763   Zn822   1.946   .     S
O763   Zn818   1.946   .     S
O763   Zn810   1.946   .     S
O764   Zn812   1.937   .     S
O765   Zn824   1.937   .     S
O766   Zn810   1.937   .     S
O767   Zn815   1.937   .     S
O768   Zn816   1.937   .     S
O769   Zn813   1.937   .     S
O770   Zn814   1.937   .     S
O771   Zn407   1.937   1_655 S
O772   Zn818   1.937   .     S
O773   Zn1645  1.937   .     S
O774   Zn823   1.946   .     S
O774   Zn819   1.946   .     S
O774   Zn813   1.946   .     S
O775   Zn820   1.937   .     S
O776   Zn823   1.937   .     S
O777   Zn410   1.937   1_655 S
O778   Zn817   1.937   .     S
O779   Zn1633  1.937   .     S
O780   Zn406   1.937   1_655 S
O781   Zn819   1.937   .     S
O782   Zn809   1.937   .     S
O783   Zn1641  1.937   .     S
O784   Zn822   1.937   .     S
O785   Zn816   1.940   .     S
O785   C1341   1.280   .     S
O786   Zn411   1.937   1_655 S
O787   Zn1644  1.937   .     S
O788   Zn821   1.937   .     S
O796   Zn815   1.940   .     S
O806   Zn810   1.940   .     S
O807   C108    1.282   1_655 A
O807   Zn824   1.940   .     S
O808   Zn812   1.940   .     S
Zn809  O1603   1.937   1_545 S
Zn811  O1576   1.946   .     S
Zn814  O351    1.946   1_655 S
Zn816  O1565   1.946   .     S
Zn817  O1607   1.937   1_545 S
Zn820  O1611   1.937   1_545 S
Zn821  O1597   1.937   1_545 S
Zn824  O362    1.946   1_655 S
C825   C902    1.393   .     A
C825   O1201   1.387   .     S
C825   C920    1.420   .     A
C826   O1211   1.387   .     S
C826   C912    1.393   .     A
C826   C925    1.420   .     S
C827   C968    1.402   .     A
C827   C939    1.455   .     S
C827   C975    1.402   .     A
C828   C978    1.402   .     A
C828   C940    1.455   .     S
C828   C967    1.402   .     A
C829   C966    1.402   .     A
C829   C941    1.455   .     S
C829   C977    1.402   .     A
C830   C965    1.402   .     A
C830   C980    1.402   .     A
C830   C942    1.455   .     S
C831   C943    1.455   .     S
C831   C964    1.402   .     A
C831   C979    1.402   .     A
C832   C953    1.455   .     S
C832   C983    1.402   .     A
C832   C963    1.402   .     A
C833   C954    1.455   .     S
C833   C981    1.402   .     A
C833   C962    1.402   .     A
C834   C946    1.455   .     S
C834   C985    1.402   .     A
C834   C961    1.402   .     A
C835   C984    1.402   .     A
C835   C959    1.402   .     A
C835   C947    1.455   .     S
C836   C987    1.402   .     A
C836   C948    1.455   .     S
C836   C958    1.402   .     A
C837   C102    1.419   1_565 A
C837   O1212   1.386   .     S
C837   C913    1.393   .     A
C838   C950    1.455   .     S
C838   C957    1.402   .     A
C838   C986    1.402   .     A
C839   C956    1.402   .     A
C839   C951    1.455   .     S
C839   C989    1.402   .     A
C840   C955    1.402   .     A
C840   C988    1.402   .     A
C840   C952    1.455   .     S
C841   C902    1.396   .     S
C841   C936    1.457   .     S
C842   C935    1.463   .     S
C842   C903    1.398   .     S
C843   C1316   1.396   1_455 A
C843   C909    1.396   .     S
C843   C934    1.457   .     S
C844   C910    1.398   .     A
C844   C933    1.463   .     S
C844   C1318   1.398   1_455 S
C845   C932    1.463   .     S
C845   C1323   1.398   1_455 A
C845   C915    1.398   .     S
C846   C931    1.457   .     S
C846   C1329   1.396   1_455 A
C846   C912    1.396   .     S
C847   C930    1.463   .     S
C847   C918    1.398   .     S
C848   O1213   1.387   .     S
C848   C914    1.393   .     A
C848   C928    1.420   .     A
C849   C929    1.457   .     S
C849   C914    1.396   .     A
C850   C851    1.535   .     S
C850   O1201   1.415   .     S
C850   H1097   1.111   1_554 S
C850   H1099   1.109   1_554 S
C851   H1101   1.111   .     S
C851   H1100   1.112   .     S
C851   C852    1.526   .     S
C852   H1104   1.110   .     S
C852   H1103   1.110   .     S
C852   H1102   1.110   .     S
C853   C854    1.535   .     S
C853   O1202   1.414   .     S
C853   H1105   1.111   1_556 S
C853   H1106   1.109   1_556 S
C854   C855    1.526   .     S
C854   H1107   1.112   .     S
C854   H1108   1.111   .     S
C855   H1112   1.111   .     S
C855   H1110   1.110   .     S
C855   H1111   1.110   .     S
C856   C857    1.535   .     S
C856   O1203   1.415   .     S
C856   H1113   1.111   1_554 S
C856   H1114   1.109   1_554 S
C857   H1116   1.111   .     S
C857   H1115   1.112   .     S
C857   C858    1.526   .     S
C858   H1118   1.110   .     S
C858   H1119   1.110   .     S
C858   H1117   1.110   .     S
C859   C924    1.419   .     A
C859   O1214   1.386   .     S
C859   C915    1.393   .     A
C860   C861    1.535   .     S
C860   O1204   1.414   .     S
C860   H1121   1.111   1_556 S
C860   H1122   1.109   1_556 S
C861   C862    1.526   .     S
C861   H1123   1.112   .     S
C861   H1124   1.111   .     S
C862   H1126   1.110   .     S
C862   H1127   1.111   .     S
C862   H1125   1.110   .     S
C863   C864    1.535   .     S
C863   O1205   1.415   .     S
C863   H1128   1.111   1_554 S
C863   H1129   1.109   1_554 S
C864   H1130   1.112   .     S
C864   H1132   1.111   .     S
C864   C865    1.526   .     S
C865   H1133   1.110   .     S
C865   H1135   1.110   .     S
C865   H1134   1.110   .     S
C866   O1206   1.414   .     S
C866   C867    1.535   .     S
C866   H1136   1.111   1_556 S
C866   H1137   1.109   1_556 S
C867   H1138   1.112   .     S
C867   H1139   1.111   .     S
C867   C868    1.526   .     S
C868   H1140   1.110   .     S
C868   H1141   1.110   .     S
C868   H1143   1.111   .     S
C869   C871    1.535   .     S
C869   O1207   1.415   .     S
C869   H1144   1.111   1_554 S
C869   H1145   1.109   1_554 S
C870   O1215   1.387   .     S
C870   C1337   1.420   .     A
C870   C917    1.393   .     A
C871   H1146   1.112   .     S
C871   H1147   1.111   .     S
C871   C872    1.526   .     S
C872   H1148   1.110   .     S
C872   H1149   1.110   .     S
C872   H1150   1.110   .     S
C873   C874    1.535   .     S
C873   O1209   1.414   .     S
C873   H1151   1.111   1_556 S
C873   H1152   1.109   1_556 S
C874   H995    1.112   .     S
C874   H996    1.111   .     S
C874   C875    1.526   .     S
C875   H998    1.110   .     S
C875   H999    1.111   .     S
C875   H997    1.110   .     S
C876   H1001   1.109   .     S
C876   O1210   1.414   .     S
C876   C877    1.535   .     S
C876   H1000   1.111   .     S
C877   H1002   1.112   .     S
C877   C878    1.526   .     S
C877   H1003   1.111   .     S
C878   H1007   1.111   .     S
C878   H1006   1.110   .     S
C878   H1004   1.110   .     S
C879   C880    1.535   .     S
C879   O1211   1.415   .     S
C879   H1008   1.111   .     S
C879   H1009   1.109   .     S
C880   H1011   1.111   .     S
C880   C882    1.526   .     S
C880   H1010   1.112   .     S
C881   C918    1.393   .     A
C881   O1216   1.386   .     S
C881   C926    1.419   .     S
C882   H1014   1.110   .     S
C882   H1012   1.110   .     S
C882   H1013   1.110   .     S
C883   H1015   1.111   .     S
C883   C884    1.535   .     S
C883   H1017   1.109   .     S
C883   O1212   1.414   .     S
C884   H1019   1.111   .     S
C884   C885    1.526   .     S
C884   H1018   1.112   .     S
C885   H1021   1.110   .     S
C885   H1020   1.110   .     S
C885   H1022   1.111   .     S
C886   O1213   1.415   .     S
C886   H1023   1.111   .     S
C886   C887    1.535   .     S
C886   H1024   1.109   .     S
C887   H1026   1.111   .     S
C887   H1025   1.112   .     S
C887   C888    1.526   .     S
C888   H1028   1.110   .     S
C888   H1029   1.110   .     S
C888   H1030   1.110   .     S
C889   H1032   1.109   .     S
C889   O1214   1.414   .     S
C889   H1031   1.111   .     S
C889   C890    1.535   .     S
C890   H1034   1.111   .     S
C890   C891    1.526   .     S
C890   H1033   1.112   .     S
C891   H1035   1.110   .     S
C891   H1036   1.110   .     S
C891   H1037   1.111   .     S
C892   C919    1.393   .     A
C892   O1217   1.387   .     S
C892   C104    1.420   1_565 S
C893   C894    1.535   .     S
C893   H1040   1.109   .     S
C893   H1039   1.111   .     S
C893   O1215   1.415   .     S
C894   H1042   1.111   .     S
C894   C895    1.526   .     S
C894   H1041   1.112   .     S
C895   H1045   1.110   .     S
C895   H1044   1.110   .     S
C895   H1043   1.110   .     S
C896   C897    1.535   .     S
C896   O1216   1.414   .     S
C896   H1047   1.109   .     S
C896   H1046   1.111   .     S
C897   H1050   1.111   .     S
C897   C898    1.526   .     S
C897   H1048   1.112   .     S
C898   H1052   1.110   .     S
C898   H1053   1.111   .     S
C898   H1051   1.110   .     S
C899   C900    1.535   .     S
C899   H1054   1.111   .     S
C899   H1055   1.109   .     S
C899   O1217   1.415   .     S
C900   H1056   1.111   .     S
C900   H1057   1.111   .     S
C900   C901    1.526   .     S
C901   H1059   1.110   .     S
C901   H1061   1.110   .     S
C901   H1058   1.110   .     S
C902   H1080   1.084   .     S
C903   H1081   1.084   .     S
C903   C905    1.393   .     A
C904   C916    1.393   .     A
C904   C1255   1.396   .     A
C904   H1082   1.084   .     S
C905   O1202   1.386   .     S
C905   C921    1.419   .     A
C906   H1083   1.084   .     S
C906   C927    1.393   .     A
C906   C1256   1.398   .     S
C907   C938    1.393   .     A
C907   H1084   1.084   .     S
C907   C17     1.396   1_565 A
C908   C18     1.398   1_565 A
C908   H1085   1.084   .     S
C908   C949    1.393   .     A
C909   C960    1.393   .     A
C909   H1086   1.084   .     S
C910   C971    1.393   .     A
C910   H1088   1.084   .     S
C911   H1089   1.084   .     S
C911   C1257   1.398   .     A
C911   C982    1.393   .     A
C912   H1090   1.084   .     S
C913   C23     1.398   1_565 A
C913   H1091   1.084   .     S
C914   H1092   1.084   .     S
C915   H1093   1.084   .     S
C916   O1203   1.387   .     S
C916   C1334   1.420   .     A
C917   H1094   1.084   .     S
C917   C1258   1.396   .     A
C918   H1095   1.084   .     S
C919   H1096   1.084   .     S
C919   C25     1.396   1_565 S
C920   C921    1.476   1_554 S
C921   C920    1.476   1_556 S
C922   C1328   1.420   1_455 A
C922   C923    1.476   1_554 S
C922   C960    1.420   .     S
C923   C1339   1.419   1_455 A
C923   C922    1.476   1_556 S
C923   C971    1.419   .     S
C924   C925    1.476   .     S
C924   C1394   1.419   1_455 S
C925   C1282   1.420   1_455 A
C926   C928    1.476   .     S
C927   C1335   1.419   .     A
C927   O1204   1.386   .     S
C929   O1220   1.280   .     A
C930   O1208   1.282   .     S
C931   O1567   1.280   1_455 A
C931   O1218   1.280   .     S
C932   O1631   1.282   1_455 A
C932   O1156   1.282   .     S
C933   O1157   1.282   .     S
C933   O1161   1.282   .     S
C934   O1162   1.280   .     A
C934   O1158   1.280   .     S
C935   O1159   1.282   .     A
C935   O1163   1.282   .     A
C936   O1160   1.280   .     A
C936   O1165   1.280   .     A
C937   O1166   1.280   .     A
C937   C992    1.455   .     S
C937   O1194   1.280   .     A
C938   O1205   1.387   .     S
C938   C96     1.420   1_565 S
C939   O1195   1.280   .     A
C939   O1167   1.280   .     A
C940   O1192   1.280   .     A
C940   O1168   1.280   .     A
C941   O1193   1.280   .     A
C941   O1169   1.280   .     A
C942   O1199   1.280   .     A
C942   O1170   1.280   .     A
C943   O1171   1.280   .     A
C943   O1200   1.280   .     A
C944   C990    1.455   .     S
C944   O1172   1.280   .     A
C944   O1196   1.280   .     A
C945   O1173   1.280   .     A
C945   C991    1.455   .     S
C945   O1198   1.280   .     A
C946   O1174   1.280   .     A
C946   O1185   1.280   .     A
C947   O1187   1.280   .     A
C947   O1176   1.280   .     A
C948   O1177   1.280   .     A
C948   O1183   1.280   .     A
C949   O1206   1.386   .     S
C949   C97     1.419   1_565 S
C950   O1184   1.280   .     A
C950   O1178   1.280   .     A
C951   O1190   1.280   .     A
C951   O1179   1.280   .     A
C952   O1191   1.280   .     A
C952   O1180   1.280   .     A
C953   O1188   1.280   .     A
C953   O1181   1.280   .     A
C954   O1189   1.280   .     A
C954   O1182   1.280   .     A
C955   H993    1.083   .     S
C955   C972    1.386   .     A
C956   C970    1.386   .     A
C956   H1065   1.083   .     S
C957   C969    1.386   .     A
C957   H1076   1.083   .     S
C958   H1087   1.083   .     S
C958   C968    1.386   .     A
C959   C967    1.386   .     A
C959   H1098   1.083   .     S
C960   O1207   1.387   .     S
C961   C966    1.386   .     A
C961   H1109   1.083   .     S
C962   C965    1.386   .     A
C962   H1120   1.083   .     S
C963   C964    1.386   .     A
C963   H1131   1.083   .     S
C964   H1142   1.083   .     S
C965   H994    1.083   .     S
C966   H1005   1.083   .     S
C967   H1016   1.083   .     S
C968   H1027   1.083   .     S
C969   H1038   1.083   .     S
C969   C992    1.402   .     A
C970   H1049   1.083   .     S
C970   C991    1.402   .     A
C971   O1209   1.386   .     S
C972   C990    1.402   .     A
C972   H1060   1.083   .     S
C973   C989    1.386   .     A
C973   C991    1.402   .     A
C973   H1062   1.083   .     S
C974   C990    1.402   .     A
C974   C988    1.386   .     A
C974   H1063   1.083   .     S
C975   H1064   1.083   .     S
C975   C987    1.386   .     A
C976   C992    1.402   .     A
C976   C986    1.386   .     A
C976   H1066   1.083   .     S
C977   C985    1.386   .     A
C977   H1067   1.083   .     S
C978   C984    1.386   .     A
C978   H1068   1.083   .     S
C979   H1069   1.083   .     S
C979   C983    1.386   .     A
C980   H1070   1.083   .     S
C980   C981    1.386   .     A
C981   H1071   1.083   .     S
C982   O1210   1.386   .     S
C982   C1336   1.419   .     S
C983   H1072   1.083   .     S
C984   H1073   1.083   .     S
C985   H1074   1.083   .     S
C986   H1075   1.083   .     S
C987   H1077   1.083   .     S
C988   H1078   1.083   .     S
C989   H1079   1.083   .     S
H1097  C850    1.111   1_556 S
H1099  C850    1.109   1_556 S
H1105  C853    1.111   1_554 S
H1106  C853    1.109   1_554 S
H1113  C856    1.111   1_556 S
H1114  C856    1.109   1_556 S
H1121  C860    1.111   1_554 S
H1122  C860    1.109   1_554 S
H1128  C863    1.111   1_556 S
H1129  C863    1.109   1_556 S
H1136  C866    1.111   1_554 S
H1137  C866    1.109   1_554 S
H1144  C869    1.111   1_556 S
H1145  C869    1.109   1_556 S
H1151  C873    1.111   1_554 S
H1152  C873    1.109   1_554 S
O1153  Zn1224  1.946   .     S
O1153  Zn1221  1.946   .     S
O1153  Zn1232  1.946   .     S
O1154  Zn1223  1.940   .     S
O1154  C106    1.282   1_565 A
O1155  C1343   1.280   .     A
O1155  Zn1226  1.940   .     S
O1156  Zn1225  1.940   .     S
O1157  Zn1235  1.940   .     S
O1158  Zn1234  1.940   .     S
O1159  Zn1229  1.940   .     S
O1160  Zn1221  1.940   .     S
O1161  Zn1231  1.940   .     S
O1162  Zn1230  1.940   .     S
O1163  Zn1233  1.940   .     S
O1164  Zn1227  1.946   .     S
O1164  Zn1229  1.946   .     S
O1164  Zn1233  1.946   .     S
O1165  Zn1232  1.940   .     S
O1166  Zn1224  1.937   .     S
O1167  Zn1223  1.937   .     S
O1168  Zn1226  1.937   .     S
O1169  Zn1225  1.937   .     S
O1170  Zn1228  1.937   .     S
O1171  Zn1227  1.937   .     S
O1172  Zn1222  1.937   .     S
O1173  Zn1236  1.937   .     S
O1174  Zn1223  1.937   .     S
O1175  Zn1234  1.946   .     S
O1175  Zn1638  1.946   1_455 S
O1175  Zn1230  1.946   .     S
O1175  Zn1222  1.946   .     S
O1176  Zn1224  1.937   .     S
O1177  Zn1236  1.937   .     S
O1178  Zn1222  1.937   .     S
O1179  Zn1227  1.937   .     S
O1180  Zn1228  1.937   .     S
O1181  Zn1225  1.937   .     S
O1182  Zn1226  1.937   .     S
O1183  Zn1643  1.937   .     S
O1184  Zn1230  1.937   .     S
O1185  Zn409   1.937   1_565 S
O1186  Zn1235  1.946   .     S
O1186  Zn1648  1.946   1_455 S
O1186  Zn1231  1.946   .     S
O1186  Zn1225  1.946   .     S
O1187  Zn1232  1.937   .     S
O1188  Zn1235  1.937   .     S
O1189  Zn1646  1.937   .     S
O1190  Zn1229  1.937   .     S
O1191  Zn397   1.937   1_565 S
O1192  Zn1642  1.937   .     S
O1193  Zn1231  1.937   .     S
O1194  Zn1221  1.937   .     S
O1195  Zn405   1.937   1_565 S
O1196  Zn1234  1.937   .     S
O1197  Zn1228  1.940   .     S
O1197  C105    1.280   1_565 S
O1198  Zn1647  1.937   .     S
O1199  Zn408   1.937   1_565 S
O1200  Zn1233  1.937   .     S
O1208  Zn1227  1.940   .     S
O1218  Zn1222  1.940   .     S
O1219  C1344   1.282   .     A
O1219  Zn1236  1.940   .     S
O1220  Zn1224  1.940   .     S
Zn1223 O340    1.946   1_565 S
Zn1226 O1587   1.946   .     S
Zn1228 O329    1.946   1_565 S
Zn1230 O1604   1.937   1_455 S
Zn1231 O1595   1.937   1_455 S
Zn1234 O1601   1.937   1_455 S
Zn1235 O1610   1.937   1_455 S
Zn1236 O1598   1.946   .     S
C1237  C1314   1.393   .     A
C1237  O1613   1.387   .     S
C1237  C1332   1.420   .     A
C1238  O1623   1.387   .     S
C1238  C1324   1.393   .     A
C1238  C1337   1.420   .     S
C1239  C1380   1.402   .     A
C1239  C1351   1.455   .     S
C1239  C1387   1.402   .     A
C1240  C1390   1.402   .     A
C1240  C1352   1.455   .     S
C1240  C1379   1.402   .     A
C1241  C1378   1.402   .     A
C1241  C1353   1.455   .     S
C1241  C1389   1.402   .     A
C1242  C1377   1.402   .     A
C1242  C1392   1.402   .     A
C1242  C1354   1.455   .     S
C1243  C1355   1.455   .     S
C1243  C1376   1.402   .     A
C1243  C1391   1.402   .     A
C1244  C1365   1.455   .     S
C1244  C1395   1.402   .     A
C1244  C1375   1.402   .     A
C1245  C1366   1.455   .     S
C1245  C1393   1.402   .     A
C1245  C1374   1.402   .     A
C1246  C1358   1.455   .     S
C1246  C1397   1.402   .     A
C1246  C1373   1.402   .     A
C1247  C1396   1.402   .     A
C1247  C1371   1.402   .     A
C1247  C1359   1.455   .     S
C1248  C1399   1.402   .     A
C1248  C1360   1.455   .     S
C1248  C1370   1.402   .     A
C1249  C514    1.419   1_565 A
C1249  O1624   1.386   .     S
C1249  C1325   1.393   .     A
C1250  C1362   1.455   .     S
C1250  C1369   1.402   .     A
C1250  C1398   1.402   .     A
C1251  C1368   1.402   .     A
C1251  C1363   1.455   .     S
C1251  C1401   1.402   .     A
C1252  C1367   1.402   .     A
C1252  C1400   1.402   .     A
C1252  C1364   1.455   .     S
C1253  C1314   1.396   .     S
C1253  C1348   1.457   .     S
C1254  C1347   1.463   .     S
C1254  C1315   1.398   .     S
C1255  C1321   1.396   .     S
C1255  C1346   1.457   .     S
C1256  C1322   1.398   .     A
C1256  C1345   1.463   .     S
C1257  C1344   1.463   .     S
C1257  C1327   1.398   .     S
C1258  C1343   1.457   .     S
C1258  C1324   1.396   .     S
C1259  C1342   1.463   .     S
C1259  C1330   1.398   .     S
C1260  O1625   1.387   .     S
C1260  C1326   1.393   .     A
C1260  C1340   1.420   .     A
C1261  C1341   1.457   .     S
C1261  C1326   1.396   .     A
C1262  C1263   1.535   .     S
C1262  O1613   1.415   .     S
C1262  H1509   1.111   1_554 S
C1262  H1511   1.109   1_554 S
C1263  H1513   1.111   .     S
C1263  H1512   1.112   .     S
C1263  C1264   1.526   .     S
C1264  H1516   1.110   .     S
C1264  H1515   1.110   .     S
C1264  H1514   1.110   .     S
C1265  C1266   1.535   .     S
C1265  O1614   1.414   .     S
C1265  H1517   1.111   1_556 S
C1265  H1518   1.109   1_556 S
C1266  C1267   1.526   .     S
C1266  H1519   1.112   .     S
C1266  H1520   1.111   .     S
C1267  H1524   1.111   .     S
C1267  H1522   1.110   .     S
C1267  H1523   1.110   .     S
C1268  C1269   1.535   .     S
C1268  O1615   1.415   .     S
C1268  H1525   1.111   1_554 S
C1268  H1526   1.109   1_554 S
C1269  H1528   1.111   .     S
C1269  H1527   1.112   .     S
C1269  C1270   1.526   .     S
C1270  H1530   1.110   .     S
C1270  H1531   1.110   .     S
C1270  H1529   1.110   .     S
C1271  C1336   1.419   .     A
C1271  O1626   1.386   .     S
C1271  C1327   1.393   .     A
C1272  C1273   1.535   .     S
C1272  O1616   1.414   .     S
C1272  H1533   1.111   1_556 S
C1272  H1534   1.109   1_556 S
C1273  C1274   1.526   .     S
C1273  H1535   1.112   .     S
C1273  H1536   1.111   .     S
C1274  H1538   1.110   .     S
C1274  H1539   1.111   .     S
C1274  H1537   1.110   .     S
C1275  C1276   1.535   .     S
C1275  O1617   1.415   .     S
C1275  H1540   1.111   1_554 S
C1275  H1541   1.109   1_554 S
C1276  H1542   1.112   .     S
C1276  H1544   1.111   .     S
C1276  C1277   1.526   .     S
C1277  H1545   1.110   .     S
C1277  H1547   1.110   .     S
C1277  H1546   1.110   .     S
C1278  O1618   1.414   .     S
C1278  C1279   1.535   .     S
C1278  H1548   1.111   1_556 S
C1278  H1549   1.109   1_556 S
C1279  H1550   1.112   .     S
C1279  H1551   1.111   .     S
C1279  C1280   1.526   .     S
C1280  H1552   1.110   .     S
C1280  H1553   1.110   .     S
C1280  H1555   1.111   .     S
C1281  C1283   1.535   .     S
C1281  O1619   1.415   .     S
C1281  H1556   1.111   1_554 S
C1281  H1557   1.109   1_554 S
C1282  O1627   1.387   .     S
C1282  C925    1.420   1_655 A
C1282  C1329   1.393   .     A
C1283  H1558   1.112   .     S
C1283  H1559   1.111   .     S
C1283  C1284   1.526   .     S
C1284  H1560   1.110   .     S
C1284  H1561   1.110   .     S
C1284  H1562   1.110   .     S
C1285  C1286   1.535   .     S
C1285  O1621   1.414   .     S
C1285  H1563   1.111   1_556 S
C1285  H1564   1.109   1_556 S
C1286  H1407   1.112   .     S
C1286  H1408   1.111   .     S
C1286  C1287   1.526   .     S
C1287  H1410   1.110   .     S
C1287  H1411   1.111   .     S
C1287  H1409   1.110   .     S
C1288  H1413   1.109   .     S
C1288  O1622   1.414   .     S
C1288  C1289   1.535   .     S
C1288  H1412   1.111   .     S
C1289  H1414   1.112   .     S
C1289  C1290   1.526   .     S
C1289  H1415   1.111   .     S
C1290  H1419   1.111   .     S
C1290  H1418   1.110   .     S
C1290  H1416   1.110   .     S
C1291  C1292   1.535   .     S
C1291  O1623   1.415   .     S
C1291  H1420   1.111   .     S
C1291  H1421   1.109   .     S
C1292  H1423   1.111   .     S
C1292  C1294   1.526   .     S
C1292  H1422   1.112   .     S
C1293  C1330   1.393   .     A
C1293  O1628   1.386   .     S
C1293  C1338   1.419   .     S
C1294  H1426   1.110   .     S
C1294  H1424   1.110   .     S
C1294  H1425   1.110   .     S
C1295  H1427   1.111   .     S
C1295  C1296   1.535   .     S
C1295  H1429   1.109   .     S
C1295  O1624   1.414   .     S
C1296  H1431   1.111   .     S
C1296  C1297   1.526   .     S
C1296  H1430   1.112   .     S
C1297  H1433   1.110   .     S
C1297  H1432   1.110   .     S
C1297  H1434   1.111   .     S
C1298  O1625   1.415   .     S
C1298  H1435   1.111   .     S
C1298  C1299   1.535   .     S
C1298  H1436   1.109   .     S
C1299  H1438   1.111   .     S
C1299  H1437   1.112   .     S
C1299  C1300   1.526   .     S
C1300  H1440   1.110   .     S
C1300  H1441   1.110   .     S
C1300  H1442   1.110   .     S
C1301  H1444   1.109   .     S
C1301  O1626   1.414   .     S
C1301  H1443   1.111   .     S
C1301  C1302   1.535   .     S
C1302  H1446   1.111   .     S
C1302  C1303   1.526   .     S
C1302  H1445   1.112   .     S
C1303  H1447   1.110   .     S
C1303  H1448   1.110   .     S
C1303  H1449   1.111   .     S
C1304  C1331   1.393   .     A
C1304  O1629   1.387   .     S
C1304  C516    1.420   1_565 S
C1305  C1306   1.535   .     S
C1305  H1452   1.109   .     S
C1305  H1451   1.111   .     S
C1305  O1627   1.415   .     S
C1306  H1454   1.111   .     S
C1306  C1307   1.526   .     S
C1306  H1453   1.112   .     S
C1307  H1457   1.110   .     S
C1307  H1456   1.110   .     S
C1307  H1455   1.110   .     S
C1308  C1309   1.535   .     S
C1308  O1628   1.414   .     S
C1308  H1459   1.109   .     S
C1308  H1458   1.111   .     S
C1309  H1462   1.111   .     S
C1309  C1310   1.526   .     S
C1309  H1460   1.112   .     S
C1310  H1464   1.110   .     S
C1310  H1465   1.111   .     S
C1310  H1463   1.110   .     S
C1311  C1312   1.535   .     S
C1311  H1466   1.111   .     S
C1311  H1467   1.109   .     S
C1311  O1629   1.415   .     S
C1312  H1468   1.111   .     S
C1312  H1469   1.111   .     S
C1312  C1313   1.526   .     S
C1313  H1471   1.110   .     S
C1313  H1473   1.110   .     S
C1313  H1470   1.110   .     S
C1314  H1492   1.084   .     S
C1315  H1493   1.084   .     S
C1315  C1317   1.393   .     A
C1316  C1328   1.393   .     A
C1316  C843    1.396   1_655 A
C1316  H1494   1.084   .     S
C1317  O1614   1.386   .     S
C1317  C1333   1.419   .     A
C1318  H1495   1.084   .     S
C1318  C1339   1.393   .     A
C1318  C844    1.398   1_655 S
C1319  C1350   1.393   .     A
C1319  H1496   1.084   .     S
C1319  C429    1.396   1_565 A
C1320  C430    1.398   1_565 A
C1320  H1497   1.084   .     S
C1320  C1361   1.393   .     A
C1321  C1372   1.393   .     A
C1321  H1498   1.084   .     S
C1322  C1383   1.393   .     A
C1322  H1500   1.084   .     S
C1323  H1501   1.084   .     S
C1323  C845    1.398   1_655 A
C1323  C1394   1.393   .     A
C1324  H1502   1.084   .     S
C1325  C435    1.398   1_565 A
C1325  H1503   1.084   .     S
C1326  H1504   1.084   .     S
C1327  H1505   1.084   .     S
C1328  O1615   1.387   .     S
C1328  C922    1.420   1_655 A
C1329  H1506   1.084   .     S
C1329  C846    1.396   1_655 A
C1330  H1507   1.084   .     S
C1331  H1508   1.084   .     S
C1331  C437    1.396   1_565 S
C1332  C1333   1.476   1_554 S
C1333  C1332   1.476   1_556 S
C1334  C1335   1.476   1_554 S
C1334  C1372   1.420   .     S
C1335  C1334   1.476   1_556 S
C1335  C1383   1.419   .     S
C1336  C1337   1.476   .     S
C1338  C1340   1.476   .     S
C1339  C923    1.419   1_655 A
C1339  O1616   1.386   .     S
C1341  O1632   1.280   .     A
C1342  O1620   1.282   .     S
C1343  O1630   1.280   .     S
C1344  O1568   1.282   .     S
C1345  O1569   1.282   .     S
C1345  O1573   1.282   .     S
C1346  O1574   1.280   .     A
C1346  O1570   1.280   .     S
C1347  O1571   1.282   .     A
C1347  O1575   1.282   .     A
C1348  O1572   1.280   .     A
C1348  O1577   1.280   .     A
C1349  O1578   1.280   .     A
C1349  C1404   1.455   .     S
C1349  O1606   1.280   .     A
C1350  O1617   1.387   .     S
C1350  C508    1.420   1_565 S
C1351  O1607   1.280   .     A
C1351  O1579   1.280   .     A
C1352  O1604   1.280   .     A
C1352  O1580   1.280   .     A
C1353  O1605   1.280   .     A
C1353  O1581   1.280   .     A
C1354  O1611   1.280   .     A
C1354  O1582   1.280   .     A
C1355  O1583   1.280   .     A
C1355  O1612   1.280   .     A
C1356  C1402   1.455   .     S
C1356  O1584   1.280   .     A
C1356  O1608   1.280   .     A
C1357  O1585   1.280   .     A
C1357  C1403   1.455   .     S
C1357  O1610   1.280   .     A
C1358  O1586   1.280   .     A
C1358  O1597   1.280   .     A
C1359  O1599   1.280   .     A
C1359  O1588   1.280   .     A
C1360  O1589   1.280   .     A
C1360  O1595   1.280   .     A
C1361  O1618   1.386   .     S
C1361  C509    1.419   1_565 S
C1362  O1596   1.280   .     A
C1362  O1590   1.280   .     A
C1363  O1602   1.280   .     A
C1363  O1591   1.280   .     A
C1364  O1603   1.280   .     A
C1364  O1592   1.280   .     A
C1365  O1600   1.280   .     A
C1365  O1593   1.280   .     A
C1366  O1601   1.280   .     A
C1366  O1594   1.280   .     A
C1367  H1405   1.083   .     S
C1367  C1384   1.386   .     A
C1368  C1382   1.386   .     A
C1368  H1477   1.083   .     S
C1369  C1381   1.386   .     A
C1369  H1488   1.083   .     S
C1370  H1499   1.083   .     S
C1370  C1380   1.386   .     A
C1371  C1379   1.386   .     A
C1371  H1510   1.083   .     S
C1372  O1619   1.387   .     S
C1373  C1378   1.386   .     A
C1373  H1521   1.083   .     S
C1374  C1377   1.386   .     A
C1374  H1532   1.083   .     S
C1375  C1376   1.386   .     A
C1375  H1543   1.083   .     S
C1376  H1554   1.083   .     S
C1377  H1406   1.083   .     S
C1378  H1417   1.083   .     S
C1379  H1428   1.083   .     S
C1380  H1439   1.083   .     S
C1381  H1450   1.083   .     S
C1381  C1404   1.402   .     A
C1382  H1461   1.083   .     S
C1382  C1403   1.402   .     A
C1383  O1621   1.386   .     S
C1384  C1402   1.402   .     A
C1384  H1472   1.083   .     S
C1385  C1401   1.386   .     A
C1385  C1403   1.402   .     A
C1385  H1474   1.083   .     S
C1386  C1402   1.402   .     A
C1386  C1400   1.386   .     A
C1386  H1475   1.083   .     S
C1387  H1476   1.083   .     S
C1387  C1399   1.386   .     A
C1388  C1404   1.402   .     A
C1388  C1398   1.386   .     A
C1388  H1478   1.083   .     S
C1389  C1397   1.386   .     A
C1389  H1479   1.083   .     S
C1390  C1396   1.386   .     A
C1390  H1480   1.083   .     S
C1391  H1481   1.083   .     S
C1391  C1395   1.386   .     A
C1392  H1482   1.083   .     S
C1392  C1393   1.386   .     A
C1393  H1483   1.083   .     S
C1394  O1622   1.386   .     S
C1394  C924    1.419   1_655 S
C1395  H1484   1.083   .     S
C1396  H1485   1.083   .     S
C1397  H1486   1.083   .     S
C1398  H1487   1.083   .     S
C1399  H1489   1.083   .     S
C1400  H1490   1.083   .     S
C1401  H1491   1.083   .     S
H1509  C1262   1.111   1_556 S
H1511  C1262   1.109   1_556 S
H1517  C1265   1.111   1_554 S
H1518  C1265   1.109   1_554 S
H1525  C1268   1.111   1_556 S
H1526  C1268   1.109   1_556 S
H1533  C1272   1.111   1_554 S
H1534  C1272   1.109   1_554 S
H1540  C1275   1.111   1_556 S
H1541  C1275   1.109   1_556 S
H1548  C1278   1.111   1_554 S
H1549  C1278   1.109   1_554 S
H1556  C1281   1.111   1_556 S
H1557  C1281   1.109   1_556 S
H1563  C1285   1.111   1_554 S
H1564  C1285   1.109   1_554 S
O1565  Zn1636  1.946   .     S
O1565  Zn1633  1.946   .     S
O1565  Zn1644  1.946   .     S
O1566  Zn1635  1.940   .     S
O1566  C518    1.282   1_565 A
O1567  C931    1.280   1_655 A
O1567  Zn1638  1.940   .     S
O1568  Zn1637  1.940   .     S
O1569  Zn1647  1.940   .     S
O1570  Zn1646  1.940   .     S
O1571  Zn1641  1.940   .     S
O1572  Zn1633  1.940   .     S
O1573  Zn1643  1.940   .     S
O1574  Zn1642  1.940   .     S
O1575  Zn1645  1.940   .     S
O1576  Zn1639  1.946   .     S
O1576  Zn1641  1.946   .     S
O1576  Zn1645  1.946   .     S
O1577  Zn1644  1.940   .     S
O1578  Zn1636  1.937   .     S
O1579  Zn1635  1.937   .     S
O1580  Zn1638  1.937   .     S
O1581  Zn1637  1.937   .     S
O1582  Zn1640  1.937   .     S
O1583  Zn1639  1.937   .     S
O1584  Zn1634  1.937   .     S
O1585  Zn1648  1.937   .     S
O1586  Zn1635  1.937   .     S
O1587  Zn1646  1.946   .     S
O1587  Zn1642  1.946   .     S
O1587  Zn1634  1.946   .     S
O1588  Zn1636  1.937   .     S
O1589  Zn1648  1.937   .     S
O1590  Zn1634  1.937   .     S
O1591  Zn1639  1.937   .     S
O1592  Zn1640  1.937   .     S
O1593  Zn1637  1.937   .     S
O1594  Zn1638  1.937   .     S
O1595  Zn1231  1.937   1_655 S
O1596  Zn1642  1.937   .     S
O1597  Zn821   1.937   1_565 S
O1598  Zn1647  1.946   .     S
O1598  Zn1643  1.946   .     S
O1598  Zn1637  1.946   .     S
O1599  Zn1644  1.937   .     S
O1600  Zn1647  1.937   .     S
O1601  Zn1234  1.937   1_655 S
O1602  Zn1641  1.937   .     S
O1603  Zn809   1.937   1_565 S
O1604  Zn1230  1.937   1_655 S
O1605  Zn1643  1.937   .     S
O1606  Zn1633  1.937   .     S
O1607  Zn817   1.937   1_565 S
O1608  Zn1646  1.937   .     S
O1609  Zn1640  1.940   .     S
O1609  C517    1.280   1_565 S
O1610  Zn1235  1.937   1_655 S
O1611  Zn820   1.937   1_565 S
O1612  Zn1645  1.937   .     S
O1620  Zn1639  1.940   .     S
O1630  Zn1634  1.940   .     S
O1631  C932    1.282   1_655 A
O1631  Zn1648  1.940   .     S
O1632  Zn1636  1.940   .     S
Zn1635 O752    1.946   1_565 S
Zn1638 O1175   1.946   1_655 S
Zn1640 O741    1.946   1_565 S
Zn1648 O1186   1.946   1_655 S
