data_str_m1_o10_o18_pcu_sym.118
_audit_creation_date              2020-01-03
_audit_creation_method            'Materials Studio'
_symmetry_space_group_name_H-M    'P1'
_symmetry_Int_Tables_number       1
_symmetry_cell_setting            triclinic
loop_
_symmetry_equiv_pos_as_xyz
  x,y,z
_cell_length_a                    32.4776
_cell_length_b                    32.6433
_cell_length_c                    35.7076
_cell_angle_alpha                 98.3622
_cell_angle_beta                  72.9043
_cell_angle_gamma                 98.4239
loop_
_atom_site_label
_atom_site_type_symbol
_atom_site_fract_x
_atom_site_fract_y
_atom_site_fract_z
_atom_site_U_iso_or_equiv
_atom_site_adp_type
_atom_site_occupancy
C1     C     0.05237   0.15965   0.25926   0.00000  Uiso   1.00
C2     C     0.19462   0.12629   0.46031   0.00000  Uiso   1.00
C3     C     0.21659   0.10762   0.47989   0.00000  Uiso   1.00
C4     C     0.28110   0.17358   0.24112   0.00000  Uiso   1.00
C5     C     0.21007   0.11689   0.02043   0.00000  Uiso   1.00
C6     C     0.17835   0.14360   0.04221   0.00000  Uiso   1.00
C7     C     0.23513   0.09983   0.03945   0.00000  Uiso   1.00
C8     C     0.22776   0.10806   0.08038   0.00000  Uiso   1.00
C9     C     0.17536   0.15499   0.08236   0.00000  Uiso   1.00
C10    C     0.32742   0.17599   0.23707   0.00000  Uiso   1.00
C11    C     0.00705   0.15806   0.26244   0.00000  Uiso   1.00
C12    C     0.09858   0.21535   0.42155   0.00000  Uiso   1.00
C13    C     0.17874   0.32193   0.23838   0.00000  Uiso   1.00
C14    C     0.15011   0.01250   0.26381   0.00000  Uiso   1.00
C15    C     0.15642   0.05626   0.25853   0.00000  Uiso   1.00
C16    C     0.17652   0.27767   0.24149   0.00000  Uiso   1.00
C17    C     0.18833   0.14518   0.14409   0.00000  Uiso   1.00
C18    C     0.14530   0.18767   0.35624   0.00000  Uiso   1.00
C19    C     0.13347   0.19347   0.39960   0.00000  Uiso   1.00
C20    C     0.19784   0.13605   0.10155   0.00000  Uiso   1.00
C21    C     0.08591   0.21754   0.46254   0.00000  Uiso   1.00
C22    C     0.30627   0.09746   0.00645   0.00000  Uiso   1.00
C23    C     0.15588   0.17450   0.41915   0.00000  Uiso   1.00
C24    C     0.00691   0.06894   0.48234   0.00000  Uiso   1.00
C25    C     0.05180   0.09318   0.46992   0.00000  Uiso   1.00
C26    C     0.03036   0.23705   0.21522   0.00000  Uiso   1.00
C27    C     0.07146   0.25477   0.18599   0.00000  Uiso   1.00
C28    C     0.07983   0.30193   0.19472   0.00000  Uiso   1.00
C29    C     0.08570   0.02212   0.31381   0.00000  Uiso   1.00
C30    C     0.27845   0.11194   0.11479   0.00000  Uiso   1.00
C31    C     0.06689   0.13950   0.08813   0.00000  Uiso   1.00
C32    C     0.14261   0.17479   0.46046   0.00000  Uiso   1.00
C33    C     0.10751   0.19736   0.48209   0.00000  Uiso   1.00
C34    C     0.16358   0.15378   0.48073   0.00000  Uiso   1.00
C35    C     0.15212   0.15928   0.02274   0.00000  Uiso   1.00
C36    C     0.11393   0.17879   0.04329   0.00000  Uiso   1.00
C37    C     0.09328   0.19852   0.02292   0.00000  Uiso   1.00
H38    H     0.06498   0.21396   0.03938   0.00000  Uiso   1.00
H39    H     0.31666   0.11318   0.03252   0.00000  Uiso   1.00
H40    H     0.30478   0.12153   0.48783   0.00000  Uiso   1.00
H41    H     0.00815   0.04420   0.00022   0.00000  Uiso   1.00
H42    H     0.33097   0.05383   0.45557   0.00000  Uiso   1.00
H43    H     0.05143   0.11816   0.45198   0.00000  Uiso   1.00
H44    H     0.07559   0.07178   0.45194   0.00000  Uiso   1.00
H45    H     0.06232   0.10729   0.49630   0.00000  Uiso   1.00
H46    H     0.03437   0.24528   0.24551   0.00000  Uiso   1.00
H47    H     0.00222   0.25153   0.21321   0.00000  Uiso   1.00
H48    H     0.09962   0.24023   0.18780   0.00000  Uiso   1.00
H49    H     0.31754   0.14365   0.28707   0.00000  Uiso   1.00
H50    H     0.06823   0.24717   0.15553   0.00000  Uiso   1.00
H51    H     0.05284   0.31727   0.19160   0.00000  Uiso   1.00
H52    H     0.11042   0.31369   0.17366   0.00000  Uiso   1.00
H53    H     0.08295   0.31017   0.22511   0.00000  Uiso   1.00
H54    H     0.07005   0.02906   0.29193   0.00000  Uiso   1.00
H55    H     0.09815   0.05131   0.32914   0.00000  Uiso   1.00
H56    H     0.06039   0.00539   0.33639   0.00000  Uiso   1.00
H57    H     0.26520   0.11835   0.14719   0.00000  Uiso   1.00
H58    H     0.28975   0.14196   0.10155   0.00000  Uiso   1.00
H59    H     0.30725   0.09508   0.10943   0.00000  Uiso   1.00
H60    H     0.20412   0.00195   0.21453   0.00000  Uiso   1.00
H61    H     0.08563   0.11207   0.07796   0.00000  Uiso   1.00
H62    H     0.04144   0.13735   0.07257   0.00000  Uiso   1.00
H63    H     0.05033   0.13859   0.12000   0.00000  Uiso   1.00
H64    H     0.15645   0.17926   0.09953   0.00000  Uiso   1.00
H65    H     0.23968   0.08646   0.46271   0.00000  Uiso   1.00
H66    H     0.05869   0.23447   0.47897   0.00000  Uiso   1.00
H67    H     0.08070   0.23022   0.40706   0.00000  Uiso   1.00
H68    H     0.18403   0.16011   0.40133   0.00000  Uiso   1.00
H69    H     0.20173   0.11722   0.42904   0.00000  Uiso   1.00
O70    O     0.16667   0.16667   0.25000   0.00000  Uiso   1.00
O71    O     0.15693   0.12393   0.16625   0.00000  Uiso   1.00
O72    O     0.12687   0.20646   0.33749   0.00000  Uiso   1.00
O73    O     0.21088   0.17493   0.15877   0.00000  Uiso   1.00
O74    O     0.17198   0.16135   0.33749   0.00000  Uiso   1.00
O75    O     0.26567   0.07341   0.01836   0.00000  Uiso   1.00
O76    O     0.02416   0.19351   0.20556   0.00000  Uiso   1.00
O77    O     0.11900   0.32960   0.29603   0.00000  Uiso   1.00
O78    O     0.24749   0.08567   0.09911   0.00000  Uiso   1.00
O79    O     0.09433   0.17716   0.08308   0.00000  Uiso   1.00
O80    O     0.17849   0.08101   0.27820   0.00000  Uiso   1.00
O81    O     0.14581   0.26136   0.26767   0.00000  Uiso   1.00
O82    O     0.07452   0.13251   0.23607   0.00000  Uiso   1.00
O83    O     0.26785   0.19179   0.21805   0.00000  Uiso   1.00
O84    O     0.06990   0.18960   0.27820   0.00000  Uiso   1.00
O85    O     0.25440   0.15277   0.26767   0.00000  Uiso   1.00
O86    O     0.13800   0.06903   0.23607   0.00000  Uiso   1.00
O87    O     0.20437   0.25527   0.21805   0.00000  Uiso   1.00
Zn88   Zn    0.19244   0.14090   0.28277   0.00000  Uiso   1.00
Zn89   Zn    0.13459   0.12378   0.22257   0.00000  Uiso   1.00
Zn90   Zn    0.21166   0.19664   0.21188   0.00000  Uiso   1.00
Zn91   Zn    0.12798   0.20535   0.28277   0.00000  Uiso   1.00
C92    C     0.38570   0.15965   0.25926   0.00000  Uiso   1.00
C93    C     0.52796   0.12629   0.46031   0.00000  Uiso   1.00
C94    C     0.54993   0.10762   0.47989   0.00000  Uiso   1.00
C95    C     0.61444   0.17358   0.24112   0.00000  Uiso   1.00
C96    C     0.54341   0.11689   0.02043   0.00000  Uiso   1.00
C97    C     0.51168   0.14360   0.04221   0.00000  Uiso   1.00
C98    C     0.56846   0.09983   0.03945   0.00000  Uiso   1.00
C99    C     0.56109   0.10806   0.08038   0.00000  Uiso   1.00
C100   C     0.50870   0.15499   0.08236   0.00000  Uiso   1.00
C101   C     0.66075   0.17599   0.23707   0.00000  Uiso   1.00
C102   C     0.34039   0.15806   0.26244   0.00000  Uiso   1.00
C103   C     0.43192   0.21535   0.42155   0.00000  Uiso   1.00
C104   C     0.51208   0.32193   0.23838   0.00000  Uiso   1.00
C105   C     0.48344   0.01250   0.26381   0.00000  Uiso   1.00
C106   C     0.48975   0.05626   0.25853   0.00000  Uiso   1.00
C107   C     0.50985   0.27767   0.24149   0.00000  Uiso   1.00
C108   C     0.52167   0.14518   0.14409   0.00000  Uiso   1.00
C109   C     0.47863   0.18767   0.35624   0.00000  Uiso   1.00
C110   C     0.46680   0.19347   0.39960   0.00000  Uiso   1.00
C111   C     0.53117   0.13605   0.10155   0.00000  Uiso   1.00
C112   C     0.41924   0.21754   0.46254   0.00000  Uiso   1.00
C113   C     0.63961   0.09746   0.00645   0.00000  Uiso   1.00
C114   C     0.48922   0.17450   0.41915   0.00000  Uiso   1.00
C115   C     0.34025   0.06894   0.48234   0.00000  Uiso   1.00
C116   C     0.38513   0.09318   0.46992   0.00000  Uiso   1.00
C117   C     0.36369   0.23705   0.21522   0.00000  Uiso   1.00
C118   C     0.40479   0.25477   0.18599   0.00000  Uiso   1.00
C119   C     0.41316   0.30193   0.19472   0.00000  Uiso   1.00
C120   C     0.41903   0.02212   0.31381   0.00000  Uiso   1.00
C121   C     0.61178   0.11194   0.11479   0.00000  Uiso   1.00
C122   C     0.40022   0.13950   0.08813   0.00000  Uiso   1.00
C123   C     0.47595   0.17479   0.46046   0.00000  Uiso   1.00
C124   C     0.44084   0.19736   0.48209   0.00000  Uiso   1.00
C125   C     0.49691   0.15378   0.48073   0.00000  Uiso   1.00
C126   C     0.48545   0.15928   0.02274   0.00000  Uiso   1.00
C127   C     0.44727   0.17879   0.04329   0.00000  Uiso   1.00
C128   C     0.42662   0.19852   0.02292   0.00000  Uiso   1.00
H129   H     0.39832   0.21396   0.03938   0.00000  Uiso   1.00
H130   H     0.64999   0.11318   0.03252   0.00000  Uiso   1.00
H131   H     0.63811   0.12153   0.48783   0.00000  Uiso   1.00
H132   H     0.34149   0.04420   0.00022   0.00000  Uiso   1.00
H133   H     0.66430   0.05383   0.45557   0.00000  Uiso   1.00
H134   H     0.38476   0.11816   0.45198   0.00000  Uiso   1.00
H135   H     0.40892   0.07178   0.45194   0.00000  Uiso   1.00
H136   H     0.39565   0.10729   0.49630   0.00000  Uiso   1.00
H137   H     0.36770   0.24528   0.24551   0.00000  Uiso   1.00
H138   H     0.33555   0.25153   0.21321   0.00000  Uiso   1.00
H139   H     0.43295   0.24023   0.18780   0.00000  Uiso   1.00
H140   H     0.65088   0.14365   0.28707   0.00000  Uiso   1.00
H141   H     0.40157   0.24717   0.15553   0.00000  Uiso   1.00
H142   H     0.38617   0.31727   0.19160   0.00000  Uiso   1.00
H143   H     0.44376   0.31369   0.17366   0.00000  Uiso   1.00
H144   H     0.41628   0.31017   0.22511   0.00000  Uiso   1.00
H145   H     0.40338   0.02906   0.29193   0.00000  Uiso   1.00
H146   H     0.43149   0.05131   0.32914   0.00000  Uiso   1.00
H147   H     0.39373   0.00539   0.33639   0.00000  Uiso   1.00
H148   H     0.59853   0.11835   0.14719   0.00000  Uiso   1.00
H149   H     0.62309   0.14196   0.10155   0.00000  Uiso   1.00
H150   H     0.64058   0.09508   0.10943   0.00000  Uiso   1.00
H151   H     0.53745   0.00195   0.21453   0.00000  Uiso   1.00
H152   H     0.41896   0.11207   0.07796   0.00000  Uiso   1.00
H153   H     0.37477   0.13735   0.07257   0.00000  Uiso   1.00
H154   H     0.38366   0.13859   0.12000   0.00000  Uiso   1.00
H155   H     0.48978   0.17926   0.09953   0.00000  Uiso   1.00
H156   H     0.57301   0.08646   0.46271   0.00000  Uiso   1.00
H157   H     0.39202   0.23447   0.47897   0.00000  Uiso   1.00
H158   H     0.41404   0.23022   0.40706   0.00000  Uiso   1.00
H159   H     0.51736   0.16011   0.40133   0.00000  Uiso   1.00
H160   H     0.53507   0.11722   0.42904   0.00000  Uiso   1.00
O161   O     0.50000   0.16667   0.25000   0.00000  Uiso   1.00
O162   O     0.49027   0.12393   0.16625   0.00000  Uiso   1.00
O163   O     0.46020   0.20646   0.33749   0.00000  Uiso   1.00
O164   O     0.54421   0.17493   0.15877   0.00000  Uiso   1.00
O165   O     0.50532   0.16135   0.33749   0.00000  Uiso   1.00
O166   O     0.59900   0.07341   0.01836   0.00000  Uiso   1.00
O167   O     0.35749   0.19351   0.20556   0.00000  Uiso   1.00
O168   O     0.45233   0.32960   0.29603   0.00000  Uiso   1.00
O169   O     0.58082   0.08567   0.09911   0.00000  Uiso   1.00
O170   O     0.42766   0.17716   0.08308   0.00000  Uiso   1.00
O171   O     0.51182   0.08101   0.27820   0.00000  Uiso   1.00
O172   O     0.47914   0.26136   0.26767   0.00000  Uiso   1.00
O173   O     0.40785   0.13251   0.23607   0.00000  Uiso   1.00
O174   O     0.60119   0.19179   0.21805   0.00000  Uiso   1.00
O175   O     0.40323   0.18960   0.27820   0.00000  Uiso   1.00
O176   O     0.58773   0.15277   0.26767   0.00000  Uiso   1.00
O177   O     0.47133   0.06903   0.23607   0.00000  Uiso   1.00
O178   O     0.53771   0.25527   0.21805   0.00000  Uiso   1.00
Zn179  Zn    0.52577   0.14090   0.28277   0.00000  Uiso   1.00
Zn180  Zn    0.46792   0.12378   0.22257   0.00000  Uiso   1.00
Zn181  Zn    0.54500   0.19664   0.21188   0.00000  Uiso   1.00
Zn182  Zn    0.46131   0.20535   0.28277   0.00000  Uiso   1.00
C183   C     0.71904   0.15965   0.25926   0.00000  Uiso   1.00
C184   C     0.86129   0.12629   0.46031   0.00000  Uiso   1.00
C185   C     0.88326   0.10762   0.47989   0.00000  Uiso   1.00
C186   C     0.94777   0.17358   0.24112   0.00000  Uiso   1.00
C187   C     0.87674   0.11689   0.02043   0.00000  Uiso   1.00
C188   C     0.84501   0.14360   0.04221   0.00000  Uiso   1.00
C189   C     0.90179   0.09983   0.03945   0.00000  Uiso   1.00
C190   C     0.89443   0.10806   0.08038   0.00000  Uiso   1.00
C191   C     0.84203   0.15499   0.08236   0.00000  Uiso   1.00
C192   C     0.99408   0.17599   0.23707   0.00000  Uiso   1.00
C193   C     0.67372   0.15806   0.26244   0.00000  Uiso   1.00
C194   C     0.76525   0.21535   0.42155   0.00000  Uiso   1.00
C195   C     0.84541   0.32193   0.23838   0.00000  Uiso   1.00
C196   C     0.81677   0.01250   0.26381   0.00000  Uiso   1.00
C197   C     0.82308   0.05626   0.25853   0.00000  Uiso   1.00
C198   C     0.84319   0.27767   0.24149   0.00000  Uiso   1.00
C199   C     0.85500   0.14518   0.14409   0.00000  Uiso   1.00
C200   C     0.81196   0.18767   0.35624   0.00000  Uiso   1.00
C201   C     0.80013   0.19347   0.39960   0.00000  Uiso   1.00
C202   C     0.86451   0.13605   0.10155   0.00000  Uiso   1.00
C203   C     0.75258   0.21754   0.46254   0.00000  Uiso   1.00
C204   C     0.97294   0.09746   0.00645   0.00000  Uiso   1.00
C205   C     0.82255   0.17450   0.41915   0.00000  Uiso   1.00
C206   C     0.67358   0.06894   0.48234   0.00000  Uiso   1.00
C207   C     0.71846   0.09318   0.46992   0.00000  Uiso   1.00
C208   C     0.69702   0.23705   0.21522   0.00000  Uiso   1.00
C209   C     0.73813   0.25477   0.18599   0.00000  Uiso   1.00
C210   C     0.74650   0.30193   0.19472   0.00000  Uiso   1.00
C211   C     0.75236   0.02212   0.31381   0.00000  Uiso   1.00
C212   C     0.94511   0.11194   0.11479   0.00000  Uiso   1.00
C213   C     0.73355   0.13950   0.08813   0.00000  Uiso   1.00
C214   C     0.80928   0.17479   0.46046   0.00000  Uiso   1.00
C215   C     0.77417   0.19736   0.48209   0.00000  Uiso   1.00
C216   C     0.83025   0.15378   0.48073   0.00000  Uiso   1.00
C217   C     0.81878   0.15928   0.02274   0.00000  Uiso   1.00
C218   C     0.78060   0.17879   0.04329   0.00000  Uiso   1.00
C219   C     0.75995   0.19852   0.02292   0.00000  Uiso   1.00
H220   H     0.73165   0.21396   0.03938   0.00000  Uiso   1.00
H221   H     0.98332   0.11318   0.03252   0.00000  Uiso   1.00
H222   H     0.97144   0.12153   0.48783   0.00000  Uiso   1.00
H223   H     0.67482   0.04420   0.00022   0.00000  Uiso   1.00
H224   H     0.99764   0.05383   0.45557   0.00000  Uiso   1.00
H225   H     0.71809   0.11816   0.45198   0.00000  Uiso   1.00
H226   H     0.74225   0.07178   0.45194   0.00000  Uiso   1.00
H227   H     0.72899   0.10729   0.49630   0.00000  Uiso   1.00
H228   H     0.70103   0.24528   0.24551   0.00000  Uiso   1.00
H229   H     0.66888   0.25153   0.21321   0.00000  Uiso   1.00
H230   H     0.76629   0.24023   0.18780   0.00000  Uiso   1.00
H231   H     0.98421   0.14365   0.28707   0.00000  Uiso   1.00
H232   H     0.73490   0.24717   0.15553   0.00000  Uiso   1.00
H233   H     0.71950   0.31727   0.19160   0.00000  Uiso   1.00
H234   H     0.77709   0.31369   0.17366   0.00000  Uiso   1.00
H235   H     0.74962   0.31017   0.22511   0.00000  Uiso   1.00
H236   H     0.73671   0.02906   0.29193   0.00000  Uiso   1.00
H237   H     0.76482   0.05131   0.32914   0.00000  Uiso   1.00
H238   H     0.72706   0.00539   0.33639   0.00000  Uiso   1.00
H239   H     0.93186   0.11835   0.14719   0.00000  Uiso   1.00
H240   H     0.95642   0.14196   0.10155   0.00000  Uiso   1.00
H241   H     0.97391   0.09508   0.10943   0.00000  Uiso   1.00
H242   H     0.87078   0.00195   0.21453   0.00000  Uiso   1.00
H243   H     0.75229   0.11207   0.07796   0.00000  Uiso   1.00
H244   H     0.70810   0.13735   0.07257   0.00000  Uiso   1.00
H245   H     0.71700   0.13859   0.12000   0.00000  Uiso   1.00
H246   H     0.82312   0.17926   0.09953   0.00000  Uiso   1.00
H247   H     0.90635   0.08646   0.46271   0.00000  Uiso   1.00
H248   H     0.72536   0.23447   0.47897   0.00000  Uiso   1.00
H249   H     0.74737   0.23022   0.40706   0.00000  Uiso   1.00
H250   H     0.85069   0.16011   0.40133   0.00000  Uiso   1.00
H251   H     0.86840   0.11722   0.42904   0.00000  Uiso   1.00
O252   O     0.83333   0.16667   0.25000   0.00000  Uiso   1.00
O253   O     0.82360   0.12393   0.16625   0.00000  Uiso   1.00
O254   O     0.79354   0.20646   0.33749   0.00000  Uiso   1.00
O255   O     0.87755   0.17493   0.15877   0.00000  Uiso   1.00
O256   O     0.83865   0.16135   0.33749   0.00000  Uiso   1.00
O257   O     0.93234   0.07341   0.01836   0.00000  Uiso   1.00
O258   O     0.69082   0.19351   0.20556   0.00000  Uiso   1.00
O259   O     0.78566   0.32960   0.29603   0.00000  Uiso   1.00
O260   O     0.91415   0.08567   0.09911   0.00000  Uiso   1.00
O261   O     0.76100   0.17716   0.08308   0.00000  Uiso   1.00
O262   O     0.84515   0.08101   0.27820   0.00000  Uiso   1.00
O263   O     0.81247   0.26136   0.26767   0.00000  Uiso   1.00
O264   O     0.74119   0.13251   0.23607   0.00000  Uiso   1.00
O265   O     0.93452   0.19179   0.21805   0.00000  Uiso   1.00
O266   O     0.73656   0.18960   0.27820   0.00000  Uiso   1.00
O267   O     0.92106   0.15277   0.26767   0.00000  Uiso   1.00
O268   O     0.80467   0.06903   0.23607   0.00000  Uiso   1.00
O269   O     0.87104   0.25527   0.21805   0.00000  Uiso   1.00
Zn270  Zn    0.85910   0.14090   0.28277   0.00000  Uiso   1.00
Zn271  Zn    0.80125   0.12378   0.22257   0.00000  Uiso   1.00
Zn272  Zn    0.87833   0.19664   0.21188   0.00000  Uiso   1.00
Zn273  Zn    0.79465   0.20535   0.28277   0.00000  Uiso   1.00
C274   C     0.05237   0.49299   0.25926   0.00000  Uiso   1.00
C275   C     0.19462   0.45962   0.46031   0.00000  Uiso   1.00
C276   C     0.21659   0.44096   0.47989   0.00000  Uiso   1.00
C277   C     0.28110   0.50691   0.24112   0.00000  Uiso   1.00
C278   C     0.21007   0.45022   0.02043   0.00000  Uiso   1.00
C279   C     0.17835   0.47694   0.04221   0.00000  Uiso   1.00
C280   C     0.23513   0.43316   0.03945   0.00000  Uiso   1.00
C281   C     0.22776   0.44139   0.08038   0.00000  Uiso   1.00
C282   C     0.17536   0.48832   0.08236   0.00000  Uiso   1.00
C283   C     0.32742   0.50933   0.23707   0.00000  Uiso   1.00
C284   C     0.00705   0.49139   0.26244   0.00000  Uiso   1.00
C285   C     0.09858   0.54868   0.42155   0.00000  Uiso   1.00
C286   C     0.17874   0.65526   0.23838   0.00000  Uiso   1.00
C287   C     0.15011   0.34583   0.26381   0.00000  Uiso   1.00
C288   C     0.15642   0.38959   0.25853   0.00000  Uiso   1.00
C289   C     0.17652   0.61101   0.24149   0.00000  Uiso   1.00
C290   C     0.18833   0.47851   0.14409   0.00000  Uiso   1.00
C291   C     0.14530   0.52101   0.35624   0.00000  Uiso   1.00
C292   C     0.13347   0.52681   0.39960   0.00000  Uiso   1.00
C293   C     0.19784   0.46939   0.10155   0.00000  Uiso   1.00
C294   C     0.08591   0.55087   0.46254   0.00000  Uiso   1.00
C295   C     0.30627   0.43080   0.00645   0.00000  Uiso   1.00
C296   C     0.15588   0.50783   0.41915   0.00000  Uiso   1.00
C297   C     0.00691   0.40227   0.48234   0.00000  Uiso   1.00
C298   C     0.05180   0.42651   0.46992   0.00000  Uiso   1.00
C299   C     0.03036   0.57039   0.21522   0.00000  Uiso   1.00
C300   C     0.07146   0.58810   0.18599   0.00000  Uiso   1.00
C301   C     0.07983   0.63527   0.19472   0.00000  Uiso   1.00
C302   C     0.08570   0.35546   0.31381   0.00000  Uiso   1.00
C303   C     0.27845   0.44527   0.11479   0.00000  Uiso   1.00
C304   C     0.06689   0.47283   0.08813   0.00000  Uiso   1.00
C305   C     0.14261   0.50813   0.46046   0.00000  Uiso   1.00
C306   C     0.10751   0.53070   0.48209   0.00000  Uiso   1.00
C307   C     0.16358   0.48712   0.48073   0.00000  Uiso   1.00
C308   C     0.15212   0.49261   0.02274   0.00000  Uiso   1.00
C309   C     0.11393   0.51212   0.04329   0.00000  Uiso   1.00
C310   C     0.09328   0.53185   0.02292   0.00000  Uiso   1.00
H311   H     0.06498   0.54730   0.03938   0.00000  Uiso   1.00
H312   H     0.31666   0.44651   0.03252   0.00000  Uiso   1.00
H313   H     0.30478   0.45486   0.48783   0.00000  Uiso   1.00
H314   H     0.00815   0.37753   0.00022   0.00000  Uiso   1.00
H315   H     0.33097   0.38716   0.45557   0.00000  Uiso   1.00
H316   H     0.05143   0.45149   0.45198   0.00000  Uiso   1.00
H317   H     0.07559   0.40511   0.45194   0.00000  Uiso   1.00
H318   H     0.06232   0.44063   0.49630   0.00000  Uiso   1.00
H319   H     0.03437   0.57861   0.24551   0.00000  Uiso   1.00
H320   H     0.00222   0.58487   0.21321   0.00000  Uiso   1.00
H321   H     0.09962   0.57356   0.18780   0.00000  Uiso   1.00
H322   H     0.31754   0.47698   0.28707   0.00000  Uiso   1.00
H323   H     0.06823   0.58050   0.15553   0.00000  Uiso   1.00
H324   H     0.05284   0.65060   0.19160   0.00000  Uiso   1.00
H325   H     0.11042   0.64703   0.17366   0.00000  Uiso   1.00
H326   H     0.08295   0.64351   0.22511   0.00000  Uiso   1.00
H327   H     0.07005   0.36239   0.29193   0.00000  Uiso   1.00
H328   H     0.09815   0.38464   0.32914   0.00000  Uiso   1.00
H329   H     0.06039   0.33873   0.33639   0.00000  Uiso   1.00
H330   H     0.26520   0.45168   0.14719   0.00000  Uiso   1.00
H331   H     0.28975   0.47529   0.10155   0.00000  Uiso   1.00
H332   H     0.30725   0.42841   0.10943   0.00000  Uiso   1.00
H333   H     0.20412   0.33529   0.21453   0.00000  Uiso   1.00
H334   H     0.08563   0.44541   0.07796   0.00000  Uiso   1.00
H335   H     0.04144   0.47068   0.07257   0.00000  Uiso   1.00
H336   H     0.05033   0.47193   0.12000   0.00000  Uiso   1.00
H337   H     0.15645   0.51259   0.09953   0.00000  Uiso   1.00
H338   H     0.23968   0.41979   0.46271   0.00000  Uiso   1.00
H339   H     0.05869   0.56780   0.47897   0.00000  Uiso   1.00
H340   H     0.08070   0.56355   0.40706   0.00000  Uiso   1.00
H341   H     0.18403   0.49344   0.40133   0.00000  Uiso   1.00
H342   H     0.20173   0.45055   0.42904   0.00000  Uiso   1.00
O343   O     0.16667   0.50000   0.25000   0.00000  Uiso   1.00
O344   O     0.15693   0.45726   0.16625   0.00000  Uiso   1.00
O345   O     0.12687   0.53979   0.33749   0.00000  Uiso   1.00
O346   O     0.21088   0.50826   0.15877   0.00000  Uiso   1.00
O347   O     0.17198   0.49468   0.33749   0.00000  Uiso   1.00
O348   O     0.26567   0.40674   0.01836   0.00000  Uiso   1.00
O349   O     0.02416   0.52684   0.20556   0.00000  Uiso   1.00
O350   O     0.11900   0.66294   0.29603   0.00000  Uiso   1.00
O351   O     0.24749   0.41900   0.09911   0.00000  Uiso   1.00
O352   O     0.09433   0.51050   0.08308   0.00000  Uiso   1.00
O353   O     0.17849   0.41434   0.27820   0.00000  Uiso   1.00
O354   O     0.14581   0.59469   0.26767   0.00000  Uiso   1.00
O355   O     0.07452   0.46584   0.23607   0.00000  Uiso   1.00
O356   O     0.26785   0.52512   0.21805   0.00000  Uiso   1.00
O357   O     0.06990   0.52293   0.27820   0.00000  Uiso   1.00
O358   O     0.25440   0.48610   0.26767   0.00000  Uiso   1.00
O359   O     0.13800   0.40236   0.23607   0.00000  Uiso   1.00
O360   O     0.20437   0.58860   0.21805   0.00000  Uiso   1.00
Zn361  Zn    0.19244   0.47423   0.28277   0.00000  Uiso   1.00
Zn362  Zn    0.13459   0.45711   0.22257   0.00000  Uiso   1.00
Zn363  Zn    0.21166   0.52997   0.21188   0.00000  Uiso   1.00
Zn364  Zn    0.12798   0.53868   0.28277   0.00000  Uiso   1.00
C365   C     0.38570   0.49299   0.25926   0.00000  Uiso   1.00
C366   C     0.52796   0.45962   0.46031   0.00000  Uiso   1.00
C367   C     0.54993   0.44096   0.47989   0.00000  Uiso   1.00
C368   C     0.61444   0.50691   0.24112   0.00000  Uiso   1.00
C369   C     0.54341   0.45022   0.02043   0.00000  Uiso   1.00
C370   C     0.51168   0.47694   0.04221   0.00000  Uiso   1.00
C371   C     0.56846   0.43316   0.03945   0.00000  Uiso   1.00
C372   C     0.56109   0.44139   0.08038   0.00000  Uiso   1.00
C373   C     0.50870   0.48832   0.08236   0.00000  Uiso   1.00
C374   C     0.66075   0.50933   0.23707   0.00000  Uiso   1.00
C375   C     0.34039   0.49139   0.26244   0.00000  Uiso   1.00
C376   C     0.43192   0.54868   0.42155   0.00000  Uiso   1.00
C377   C     0.51208   0.65526   0.23838   0.00000  Uiso   1.00
C378   C     0.48344   0.34583   0.26381   0.00000  Uiso   1.00
C379   C     0.48975   0.38959   0.25853   0.00000  Uiso   1.00
C380   C     0.50985   0.61101   0.24149   0.00000  Uiso   1.00
C381   C     0.52167   0.47851   0.14409   0.00000  Uiso   1.00
C382   C     0.47863   0.52101   0.35624   0.00000  Uiso   1.00
C383   C     0.46680   0.52681   0.39960   0.00000  Uiso   1.00
C384   C     0.53117   0.46939   0.10155   0.00000  Uiso   1.00
C385   C     0.41924   0.55087   0.46254   0.00000  Uiso   1.00
C386   C     0.63961   0.43080   0.00645   0.00000  Uiso   1.00
C387   C     0.48922   0.50783   0.41915   0.00000  Uiso   1.00
C388   C     0.34025   0.40227   0.48234   0.00000  Uiso   1.00
C389   C     0.38513   0.42651   0.46992   0.00000  Uiso   1.00
C390   C     0.36369   0.57039   0.21522   0.00000  Uiso   1.00
C391   C     0.40479   0.58810   0.18599   0.00000  Uiso   1.00
C392   C     0.41316   0.63527   0.19472   0.00000  Uiso   1.00
C393   C     0.41903   0.35546   0.31381   0.00000  Uiso   1.00
C394   C     0.61178   0.44527   0.11479   0.00000  Uiso   1.00
C395   C     0.40022   0.47283   0.08813   0.00000  Uiso   1.00
C396   C     0.47595   0.50813   0.46046   0.00000  Uiso   1.00
C397   C     0.44084   0.53070   0.48209   0.00000  Uiso   1.00
C398   C     0.49691   0.48712   0.48073   0.00000  Uiso   1.00
C399   C     0.48545   0.49261   0.02274   0.00000  Uiso   1.00
C400   C     0.44727   0.51212   0.04329   0.00000  Uiso   1.00
C401   C     0.42662   0.53185   0.02292   0.00000  Uiso   1.00
H402   H     0.39832   0.54730   0.03938   0.00000  Uiso   1.00
H403   H     0.64999   0.44651   0.03252   0.00000  Uiso   1.00
H404   H     0.63811   0.45486   0.48783   0.00000  Uiso   1.00
H405   H     0.34149   0.37753   0.00022   0.00000  Uiso   1.00
H406   H     0.66430   0.38716   0.45557   0.00000  Uiso   1.00
H407   H     0.38476   0.45149   0.45198   0.00000  Uiso   1.00
H408   H     0.40892   0.40511   0.45194   0.00000  Uiso   1.00
H409   H     0.39565   0.44063   0.49630   0.00000  Uiso   1.00
H410   H     0.36770   0.57861   0.24551   0.00000  Uiso   1.00
H411   H     0.33555   0.58487   0.21321   0.00000  Uiso   1.00
H412   H     0.43295   0.57356   0.18780   0.00000  Uiso   1.00
H413   H     0.65088   0.47698   0.28707   0.00000  Uiso   1.00
H414   H     0.40157   0.58050   0.15553   0.00000  Uiso   1.00
H415   H     0.38617   0.65060   0.19160   0.00000  Uiso   1.00
H416   H     0.44376   0.64703   0.17366   0.00000  Uiso   1.00
H417   H     0.41628   0.64351   0.22511   0.00000  Uiso   1.00
H418   H     0.40338   0.36239   0.29193   0.00000  Uiso   1.00
H419   H     0.43149   0.38464   0.32914   0.00000  Uiso   1.00
H420   H     0.39373   0.33873   0.33639   0.00000  Uiso   1.00
H421   H     0.59853   0.45168   0.14719   0.00000  Uiso   1.00
H422   H     0.62309   0.47529   0.10155   0.00000  Uiso   1.00
H423   H     0.64058   0.42841   0.10943   0.00000  Uiso   1.00
H424   H     0.53745   0.33529   0.21453   0.00000  Uiso   1.00
H425   H     0.41896   0.44541   0.07796   0.00000  Uiso   1.00
H426   H     0.37477   0.47068   0.07257   0.00000  Uiso   1.00
H427   H     0.38366   0.47193   0.12000   0.00000  Uiso   1.00
H428   H     0.48978   0.51259   0.09953   0.00000  Uiso   1.00
H429   H     0.57301   0.41979   0.46271   0.00000  Uiso   1.00
H430   H     0.39202   0.56780   0.47897   0.00000  Uiso   1.00
H431   H     0.41404   0.56355   0.40706   0.00000  Uiso   1.00
H432   H     0.51736   0.49344   0.40133   0.00000  Uiso   1.00
H433   H     0.53507   0.45055   0.42904   0.00000  Uiso   1.00
O434   O     0.50000   0.50000   0.25000   0.00000  Uiso   1.00
O435   O     0.49027   0.45726   0.16625   0.00000  Uiso   1.00
O436   O     0.46020   0.53979   0.33749   0.00000  Uiso   1.00
O437   O     0.54421   0.50826   0.15877   0.00000  Uiso   1.00
O438   O     0.50532   0.49468   0.33749   0.00000  Uiso   1.00
O439   O     0.59900   0.40674   0.01836   0.00000  Uiso   1.00
O440   O     0.35749   0.52684   0.20556   0.00000  Uiso   1.00
O441   O     0.45233   0.66294   0.29603   0.00000  Uiso   1.00
O442   O     0.58082   0.41900   0.09911   0.00000  Uiso   1.00
O443   O     0.42766   0.51050   0.08308   0.00000  Uiso   1.00
O444   O     0.51182   0.41434   0.27820   0.00000  Uiso   1.00
O445   O     0.47914   0.59469   0.26767   0.00000  Uiso   1.00
O446   O     0.40785   0.46584   0.23607   0.00000  Uiso   1.00
O447   O     0.60119   0.52512   0.21805   0.00000  Uiso   1.00
O448   O     0.40323   0.52293   0.27820   0.00000  Uiso   1.00
O449   O     0.58773   0.48610   0.26767   0.00000  Uiso   1.00
O450   O     0.47133   0.40236   0.23607   0.00000  Uiso   1.00
O451   O     0.53771   0.58860   0.21805   0.00000  Uiso   1.00
Zn452  Zn    0.52577   0.47423   0.28277   0.00000  Uiso   1.00
Zn453  Zn    0.46792   0.45711   0.22257   0.00000  Uiso   1.00
Zn454  Zn    0.54500   0.52997   0.21188   0.00000  Uiso   1.00
Zn455  Zn    0.46131   0.53868   0.28277   0.00000  Uiso   1.00
C456   C     0.71904   0.49299   0.25926   0.00000  Uiso   1.00
C457   C     0.86129   0.45962   0.46031   0.00000  Uiso   1.00
C458   C     0.88326   0.44096   0.47989   0.00000  Uiso   1.00
C459   C     0.94777   0.50691   0.24112   0.00000  Uiso   1.00
C460   C     0.87674   0.45022   0.02043   0.00000  Uiso   1.00
C461   C     0.84501   0.47694   0.04221   0.00000  Uiso   1.00
C462   C     0.90179   0.43316   0.03945   0.00000  Uiso   1.00
C463   C     0.89443   0.44139   0.08038   0.00000  Uiso   1.00
C464   C     0.84203   0.48832   0.08236   0.00000  Uiso   1.00
C465   C     0.99408   0.50933   0.23707   0.00000  Uiso   1.00
C466   C     0.67372   0.49139   0.26244   0.00000  Uiso   1.00
C467   C     0.76525   0.54868   0.42155   0.00000  Uiso   1.00
C468   C     0.84541   0.65526   0.23838   0.00000  Uiso   1.00
C469   C     0.81677   0.34583   0.26381   0.00000  Uiso   1.00
C470   C     0.82308   0.38959   0.25853   0.00000  Uiso   1.00
C471   C     0.84319   0.61101   0.24149   0.00000  Uiso   1.00
C472   C     0.85500   0.47851   0.14409   0.00000  Uiso   1.00
C473   C     0.81196   0.52101   0.35624   0.00000  Uiso   1.00
C474   C     0.80013   0.52681   0.39960   0.00000  Uiso   1.00
C475   C     0.86451   0.46939   0.10155   0.00000  Uiso   1.00
C476   C     0.75258   0.55087   0.46254   0.00000  Uiso   1.00
C477   C     0.97294   0.43080   0.00645   0.00000  Uiso   1.00
C478   C     0.82255   0.50783   0.41915   0.00000  Uiso   1.00
C479   C     0.67358   0.40227   0.48234   0.00000  Uiso   1.00
C480   C     0.71846   0.42651   0.46992   0.00000  Uiso   1.00
C481   C     0.69702   0.57039   0.21522   0.00000  Uiso   1.00
C482   C     0.73813   0.58810   0.18599   0.00000  Uiso   1.00
C483   C     0.74650   0.63527   0.19472   0.00000  Uiso   1.00
C484   C     0.75236   0.35546   0.31381   0.00000  Uiso   1.00
C485   C     0.94511   0.44527   0.11479   0.00000  Uiso   1.00
C486   C     0.73355   0.47283   0.08813   0.00000  Uiso   1.00
C487   C     0.80928   0.50813   0.46046   0.00000  Uiso   1.00
C488   C     0.77417   0.53070   0.48209   0.00000  Uiso   1.00
C489   C     0.83025   0.48712   0.48073   0.00000  Uiso   1.00
C490   C     0.81878   0.49261   0.02274   0.00000  Uiso   1.00
C491   C     0.78060   0.51212   0.04329   0.00000  Uiso   1.00
C492   C     0.75995   0.53185   0.02292   0.00000  Uiso   1.00
H493   H     0.73165   0.54730   0.03938   0.00000  Uiso   1.00
H494   H     0.98332   0.44651   0.03252   0.00000  Uiso   1.00
H495   H     0.97144   0.45486   0.48783   0.00000  Uiso   1.00
H496   H     0.67482   0.37753   0.00022   0.00000  Uiso   1.00
H497   H     0.99764   0.38716   0.45557   0.00000  Uiso   1.00
H498   H     0.71809   0.45149   0.45198   0.00000  Uiso   1.00
H499   H     0.74225   0.40511   0.45194   0.00000  Uiso   1.00
H500   H     0.72899   0.44063   0.49630   0.00000  Uiso   1.00
H501   H     0.70103   0.57861   0.24551   0.00000  Uiso   1.00
H502   H     0.66888   0.58487   0.21321   0.00000  Uiso   1.00
H503   H     0.76629   0.57356   0.18780   0.00000  Uiso   1.00
H504   H     0.98421   0.47698   0.28707   0.00000  Uiso   1.00
H505   H     0.73490   0.58050   0.15553   0.00000  Uiso   1.00
H506   H     0.71950   0.65060   0.19160   0.00000  Uiso   1.00
H507   H     0.77709   0.64703   0.17366   0.00000  Uiso   1.00
H508   H     0.74962   0.64351   0.22511   0.00000  Uiso   1.00
H509   H     0.73671   0.36239   0.29193   0.00000  Uiso   1.00
H510   H     0.76482   0.38464   0.32914   0.00000  Uiso   1.00
H511   H     0.72706   0.33873   0.33639   0.00000  Uiso   1.00
H512   H     0.93186   0.45168   0.14719   0.00000  Uiso   1.00
H513   H     0.95642   0.47529   0.10155   0.00000  Uiso   1.00
H514   H     0.97391   0.42841   0.10943   0.00000  Uiso   1.00
H515   H     0.87078   0.33529   0.21453   0.00000  Uiso   1.00
H516   H     0.75229   0.44541   0.07796   0.00000  Uiso   1.00
H517   H     0.70810   0.47068   0.07257   0.00000  Uiso   1.00
H518   H     0.71700   0.47193   0.12000   0.00000  Uiso   1.00
H519   H     0.82312   0.51259   0.09953   0.00000  Uiso   1.00
H520   H     0.90635   0.41979   0.46271   0.00000  Uiso   1.00
H521   H     0.72536   0.56780   0.47897   0.00000  Uiso   1.00
H522   H     0.74737   0.56355   0.40706   0.00000  Uiso   1.00
H523   H     0.85069   0.49344   0.40133   0.00000  Uiso   1.00
H524   H     0.86840   0.45055   0.42904   0.00000  Uiso   1.00
O525   O     0.83333   0.50000   0.25000   0.00000  Uiso   1.00
O526   O     0.82360   0.45726   0.16625   0.00000  Uiso   1.00
O527   O     0.79354   0.53979   0.33749   0.00000  Uiso   1.00
O528   O     0.87755   0.50826   0.15877   0.00000  Uiso   1.00
O529   O     0.83865   0.49468   0.33749   0.00000  Uiso   1.00
O530   O     0.93234   0.40674   0.01836   0.00000  Uiso   1.00
O531   O     0.69082   0.52684   0.20556   0.00000  Uiso   1.00
O532   O     0.78566   0.66294   0.29603   0.00000  Uiso   1.00
O533   O     0.91415   0.41900   0.09911   0.00000  Uiso   1.00
O534   O     0.76100   0.51050   0.08308   0.00000  Uiso   1.00
O535   O     0.84515   0.41434   0.27820   0.00000  Uiso   1.00
O536   O     0.81247   0.59469   0.26767   0.00000  Uiso   1.00
O537   O     0.74119   0.46584   0.23607   0.00000  Uiso   1.00
O538   O     0.93452   0.52512   0.21805   0.00000  Uiso   1.00
O539   O     0.73656   0.52293   0.27820   0.00000  Uiso   1.00
O540   O     0.92106   0.48610   0.26767   0.00000  Uiso   1.00
O541   O     0.80467   0.40236   0.23607   0.00000  Uiso   1.00
O542   O     0.87104   0.58860   0.21805   0.00000  Uiso   1.00
Zn543  Zn    0.85910   0.47423   0.28277   0.00000  Uiso   1.00
Zn544  Zn    0.80125   0.45711   0.22257   0.00000  Uiso   1.00
Zn545  Zn    0.87833   0.52997   0.21188   0.00000  Uiso   1.00
Zn546  Zn    0.79465   0.53868   0.28277   0.00000  Uiso   1.00
C547   C     0.05237   0.82632   0.25926   0.00000  Uiso   1.00
C548   C     0.19462   0.79296   0.46031   0.00000  Uiso   1.00
C549   C     0.21659   0.77429   0.47989   0.00000  Uiso   1.00
C550   C     0.28110   0.84025   0.24112   0.00000  Uiso   1.00
C551   C     0.21007   0.78355   0.02043   0.00000  Uiso   1.00
C552   C     0.17835   0.81027   0.04221   0.00000  Uiso   1.00
C553   C     0.23513   0.76649   0.03945   0.00000  Uiso   1.00
C554   C     0.22776   0.77472   0.08038   0.00000  Uiso   1.00
C555   C     0.17536   0.82166   0.08236   0.00000  Uiso   1.00
C556   C     0.32742   0.84266   0.23707   0.00000  Uiso   1.00
C557   C     0.00705   0.82473   0.26244   0.00000  Uiso   1.00
C558   C     0.09858   0.88201   0.42155   0.00000  Uiso   1.00
C559   C     0.17874   0.98860   0.23838   0.00000  Uiso   1.00
C560   C     0.15011   0.67917   0.26381   0.00000  Uiso   1.00
C561   C     0.15642   0.72292   0.25853   0.00000  Uiso   1.00
C562   C     0.17652   0.94434   0.24149   0.00000  Uiso   1.00
C563   C     0.18833   0.81185   0.14409   0.00000  Uiso   1.00
C564   C     0.14530   0.85434   0.35624   0.00000  Uiso   1.00
C565   C     0.13347   0.86014   0.39960   0.00000  Uiso   1.00
C566   C     0.19784   0.80272   0.10155   0.00000  Uiso   1.00
C567   C     0.08591   0.88421   0.46254   0.00000  Uiso   1.00
C568   C     0.30627   0.76413   0.00645   0.00000  Uiso   1.00
C569   C     0.15588   0.84116   0.41915   0.00000  Uiso   1.00
C570   C     0.00691   0.73560   0.48234   0.00000  Uiso   1.00
C571   C     0.05180   0.75985   0.46992   0.00000  Uiso   1.00
C572   C     0.03036   0.90372   0.21522   0.00000  Uiso   1.00
C573   C     0.07146   0.92144   0.18599   0.00000  Uiso   1.00
C574   C     0.07983   0.96860   0.19472   0.00000  Uiso   1.00
C575   C     0.08570   0.68879   0.31381   0.00000  Uiso   1.00
C576   C     0.27845   0.77861   0.11479   0.00000  Uiso   1.00
C577   C     0.06689   0.80616   0.08813   0.00000  Uiso   1.00
C578   C     0.14261   0.84146   0.46046   0.00000  Uiso   1.00
C579   C     0.10751   0.86403   0.48209   0.00000  Uiso   1.00
C580   C     0.16358   0.82045   0.48073   0.00000  Uiso   1.00
C581   C     0.15212   0.82595   0.02274   0.00000  Uiso   1.00
C582   C     0.11393   0.84546   0.04329   0.00000  Uiso   1.00
C583   C     0.09328   0.86519   0.02292   0.00000  Uiso   1.00
H584   H     0.06498   0.88063   0.03938   0.00000  Uiso   1.00
H585   H     0.31666   0.77984   0.03252   0.00000  Uiso   1.00
H586   H     0.30478   0.78820   0.48783   0.00000  Uiso   1.00
H587   H     0.00815   0.71086   0.00022   0.00000  Uiso   1.00
H588   H     0.33097   0.72050   0.45557   0.00000  Uiso   1.00
H589   H     0.05143   0.78483   0.45198   0.00000  Uiso   1.00
H590   H     0.07559   0.73844   0.45194   0.00000  Uiso   1.00
H591   H     0.06232   0.77396   0.49630   0.00000  Uiso   1.00
H592   H     0.03437   0.91195   0.24551   0.00000  Uiso   1.00
H593   H     0.00222   0.91820   0.21321   0.00000  Uiso   1.00
H594   H     0.09962   0.90689   0.18780   0.00000  Uiso   1.00
H595   H     0.31754   0.81032   0.28707   0.00000  Uiso   1.00
H596   H     0.06823   0.91384   0.15553   0.00000  Uiso   1.00
H597   H     0.05284   0.98394   0.19160   0.00000  Uiso   1.00
H598   H     0.11042   0.98036   0.17366   0.00000  Uiso   1.00
H599   H     0.08295   0.97684   0.22511   0.00000  Uiso   1.00
H600   H     0.07005   0.69573   0.29193   0.00000  Uiso   1.00
H601   H     0.09815   0.71797   0.32914   0.00000  Uiso   1.00
H602   H     0.06039   0.67206   0.33639   0.00000  Uiso   1.00
H603   H     0.26520   0.78502   0.14719   0.00000  Uiso   1.00
H604   H     0.28975   0.80862   0.10155   0.00000  Uiso   1.00
H605   H     0.30725   0.76174   0.10943   0.00000  Uiso   1.00
H606   H     0.20412   0.66862   0.21453   0.00000  Uiso   1.00
H607   H     0.08563   0.77874   0.07796   0.00000  Uiso   1.00
H608   H     0.04144   0.80402   0.07257   0.00000  Uiso   1.00
H609   H     0.05033   0.80526   0.12000   0.00000  Uiso   1.00
H610   H     0.15645   0.84593   0.09953   0.00000  Uiso   1.00
H611   H     0.23968   0.75313   0.46271   0.00000  Uiso   1.00
H612   H     0.05869   0.90113   0.47897   0.00000  Uiso   1.00
H613   H     0.08070   0.89689   0.40706   0.00000  Uiso   1.00
H614   H     0.18403   0.82677   0.40133   0.00000  Uiso   1.00
H615   H     0.20173   0.78388   0.42904   0.00000  Uiso   1.00
O616   O     0.16667   0.83333   0.25000   0.00000  Uiso   1.00
O617   O     0.15693   0.79060   0.16625   0.00000  Uiso   1.00
O618   O     0.12687   0.87313   0.33749   0.00000  Uiso   1.00
O619   O     0.21088   0.84159   0.15877   0.00000  Uiso   1.00
O620   O     0.17198   0.82802   0.33749   0.00000  Uiso   1.00
O621   O     0.26567   0.74008   0.01836   0.00000  Uiso   1.00
O622   O     0.02416   0.86017   0.20556   0.00000  Uiso   1.00
O623   O     0.11900   0.99627   0.29603   0.00000  Uiso   1.00
O624   O     0.24749   0.75233   0.09911   0.00000  Uiso   1.00
O625   O     0.09433   0.84383   0.08308   0.00000  Uiso   1.00
O626   O     0.17849   0.74768   0.27820   0.00000  Uiso   1.00
O627   O     0.14581   0.92803   0.26767   0.00000  Uiso   1.00
O628   O     0.07452   0.79917   0.23607   0.00000  Uiso   1.00
O629   O     0.26785   0.85845   0.21805   0.00000  Uiso   1.00
O630   O     0.06990   0.85627   0.27820   0.00000  Uiso   1.00
O631   O     0.25440   0.81944   0.26767   0.00000  Uiso   1.00
O632   O     0.13800   0.73570   0.23607   0.00000  Uiso   1.00
O633   O     0.20437   0.92193   0.21805   0.00000  Uiso   1.00
Zn634  Zn    0.19244   0.80756   0.28277   0.00000  Uiso   1.00
Zn635  Zn    0.13459   0.79044   0.22257   0.00000  Uiso   1.00
Zn636  Zn    0.21166   0.86331   0.21188   0.00000  Uiso   1.00
Zn637  Zn    0.12798   0.87202   0.28277   0.00000  Uiso   1.00
C638   C     0.38570   0.82632   0.25926   0.00000  Uiso   1.00
C639   C     0.52796   0.79296   0.46031   0.00000  Uiso   1.00
C640   C     0.54993   0.77429   0.47989   0.00000  Uiso   1.00
C641   C     0.61444   0.84025   0.24112   0.00000  Uiso   1.00
C642   C     0.54341   0.78355   0.02043   0.00000  Uiso   1.00
C643   C     0.51168   0.81027   0.04221   0.00000  Uiso   1.00
C644   C     0.56846   0.76649   0.03945   0.00000  Uiso   1.00
C645   C     0.56109   0.77472   0.08038   0.00000  Uiso   1.00
C646   C     0.50870   0.82166   0.08236   0.00000  Uiso   1.00
C647   C     0.66075   0.84266   0.23707   0.00000  Uiso   1.00
C648   C     0.34039   0.82473   0.26244   0.00000  Uiso   1.00
C649   C     0.43192   0.88201   0.42155   0.00000  Uiso   1.00
C650   C     0.51208   0.98860   0.23838   0.00000  Uiso   1.00
C651   C     0.48344   0.67917   0.26381   0.00000  Uiso   1.00
C652   C     0.48975   0.72292   0.25853   0.00000  Uiso   1.00
C653   C     0.50985   0.94434   0.24149   0.00000  Uiso   1.00
C654   C     0.52167   0.81185   0.14409   0.00000  Uiso   1.00
C655   C     0.47863   0.85434   0.35624   0.00000  Uiso   1.00
C656   C     0.46680   0.86014   0.39960   0.00000  Uiso   1.00
C657   C     0.53117   0.80272   0.10155   0.00000  Uiso   1.00
C658   C     0.41924   0.88421   0.46254   0.00000  Uiso   1.00
C659   C     0.63961   0.76413   0.00645   0.00000  Uiso   1.00
C660   C     0.48922   0.84116   0.41915   0.00000  Uiso   1.00
C661   C     0.34025   0.73560   0.48234   0.00000  Uiso   1.00
C662   C     0.38513   0.75985   0.46992   0.00000  Uiso   1.00
C663   C     0.36369   0.90372   0.21522   0.00000  Uiso   1.00
C664   C     0.40479   0.92144   0.18599   0.00000  Uiso   1.00
C665   C     0.41316   0.96860   0.19472   0.00000  Uiso   1.00
C666   C     0.41903   0.68879   0.31381   0.00000  Uiso   1.00
C667   C     0.61178   0.77861   0.11479   0.00000  Uiso   1.00
C668   C     0.40022   0.80616   0.08813   0.00000  Uiso   1.00
C669   C     0.47595   0.84146   0.46046   0.00000  Uiso   1.00
C670   C     0.44084   0.86403   0.48209   0.00000  Uiso   1.00
C671   C     0.49691   0.82045   0.48073   0.00000  Uiso   1.00
C672   C     0.48545   0.82595   0.02274   0.00000  Uiso   1.00
C673   C     0.44727   0.84546   0.04329   0.00000  Uiso   1.00
C674   C     0.42662   0.86519   0.02292   0.00000  Uiso   1.00
H675   H     0.39832   0.88063   0.03938   0.00000  Uiso   1.00
H676   H     0.64999   0.77984   0.03252   0.00000  Uiso   1.00
H677   H     0.63811   0.78820   0.48783   0.00000  Uiso   1.00
H678   H     0.34149   0.71086   0.00022   0.00000  Uiso   1.00
H679   H     0.66430   0.72050   0.45557   0.00000  Uiso   1.00
H680   H     0.38476   0.78483   0.45198   0.00000  Uiso   1.00
H681   H     0.40892   0.73844   0.45194   0.00000  Uiso   1.00
H682   H     0.39565   0.77396   0.49630   0.00000  Uiso   1.00
H683   H     0.36770   0.91195   0.24551   0.00000  Uiso   1.00
H684   H     0.33555   0.91820   0.21321   0.00000  Uiso   1.00
H685   H     0.43295   0.90689   0.18780   0.00000  Uiso   1.00
H686   H     0.65088   0.81032   0.28707   0.00000  Uiso   1.00
H687   H     0.40157   0.91384   0.15553   0.00000  Uiso   1.00
H688   H     0.38617   0.98394   0.19160   0.00000  Uiso   1.00
H689   H     0.44376   0.98036   0.17366   0.00000  Uiso   1.00
H690   H     0.41628   0.97684   0.22511   0.00000  Uiso   1.00
H691   H     0.40338   0.69573   0.29193   0.00000  Uiso   1.00
H692   H     0.43149   0.71797   0.32914   0.00000  Uiso   1.00
H693   H     0.39373   0.67206   0.33639   0.00000  Uiso   1.00
H694   H     0.59853   0.78502   0.14719   0.00000  Uiso   1.00
H695   H     0.62309   0.80862   0.10155   0.00000  Uiso   1.00
H696   H     0.64058   0.76174   0.10943   0.00000  Uiso   1.00
H697   H     0.53745   0.66862   0.21453   0.00000  Uiso   1.00
H698   H     0.41896   0.77874   0.07796   0.00000  Uiso   1.00
H699   H     0.37477   0.80402   0.07257   0.00000  Uiso   1.00
H700   H     0.38366   0.80526   0.12000   0.00000  Uiso   1.00
H701   H     0.48978   0.84593   0.09953   0.00000  Uiso   1.00
H702   H     0.57301   0.75313   0.46271   0.00000  Uiso   1.00
H703   H     0.39202   0.90113   0.47897   0.00000  Uiso   1.00
H704   H     0.41404   0.89689   0.40706   0.00000  Uiso   1.00
H705   H     0.51736   0.82677   0.40133   0.00000  Uiso   1.00
H706   H     0.53507   0.78388   0.42904   0.00000  Uiso   1.00
O707   O     0.50000   0.83333   0.25000   0.00000  Uiso   1.00
O708   O     0.49027   0.79060   0.16625   0.00000  Uiso   1.00
O709   O     0.46020   0.87313   0.33749   0.00000  Uiso   1.00
O710   O     0.54421   0.84159   0.15877   0.00000  Uiso   1.00
O711   O     0.50532   0.82802   0.33749   0.00000  Uiso   1.00
O712   O     0.59900   0.74008   0.01836   0.00000  Uiso   1.00
O713   O     0.35749   0.86017   0.20556   0.00000  Uiso   1.00
O714   O     0.45233   0.99627   0.29603   0.00000  Uiso   1.00
O715   O     0.58082   0.75233   0.09911   0.00000  Uiso   1.00
O716   O     0.42766   0.84383   0.08308   0.00000  Uiso   1.00
O717   O     0.51182   0.74768   0.27820   0.00000  Uiso   1.00
O718   O     0.47914   0.92803   0.26767   0.00000  Uiso   1.00
O719   O     0.40785   0.79917   0.23607   0.00000  Uiso   1.00
O720   O     0.60119   0.85845   0.21805   0.00000  Uiso   1.00
O721   O     0.40323   0.85627   0.27820   0.00000  Uiso   1.00
O722   O     0.58773   0.81944   0.26767   0.00000  Uiso   1.00
O723   O     0.47133   0.73570   0.23607   0.00000  Uiso   1.00
O724   O     0.53771   0.92193   0.21805   0.00000  Uiso   1.00
Zn725  Zn    0.52577   0.80756   0.28277   0.00000  Uiso   1.00
Zn726  Zn    0.46792   0.79044   0.22257   0.00000  Uiso   1.00
Zn727  Zn    0.54500   0.86331   0.21188   0.00000  Uiso   1.00
Zn728  Zn    0.46131   0.87202   0.28277   0.00000  Uiso   1.00
C729   C     0.71904   0.82632   0.25926   0.00000  Uiso   1.00
C730   C     0.86129   0.79296   0.46031   0.00000  Uiso   1.00
C731   C     0.88326   0.77429   0.47989   0.00000  Uiso   1.00
C732   C     0.94777   0.84025   0.24112   0.00000  Uiso   1.00
C733   C     0.87674   0.78355   0.02043   0.00000  Uiso   1.00
C734   C     0.84501   0.81027   0.04221   0.00000  Uiso   1.00
C735   C     0.90179   0.76649   0.03945   0.00000  Uiso   1.00
C736   C     0.89443   0.77472   0.08038   0.00000  Uiso   1.00
C737   C     0.84203   0.82166   0.08236   0.00000  Uiso   1.00
C738   C     0.99408   0.84266   0.23707   0.00000  Uiso   1.00
C739   C     0.67372   0.82473   0.26244   0.00000  Uiso   1.00
C740   C     0.76525   0.88201   0.42155   0.00000  Uiso   1.00
C741   C     0.84541   0.98860   0.23838   0.00000  Uiso   1.00
C742   C     0.81677   0.67917   0.26381   0.00000  Uiso   1.00
C743   C     0.82308   0.72292   0.25853   0.00000  Uiso   1.00
C744   C     0.84319   0.94434   0.24149   0.00000  Uiso   1.00
C745   C     0.85500   0.81185   0.14409   0.00000  Uiso   1.00
C746   C     0.81196   0.85434   0.35624   0.00000  Uiso   1.00
C747   C     0.80013   0.86014   0.39960   0.00000  Uiso   1.00
C748   C     0.86451   0.80272   0.10155   0.00000  Uiso   1.00
C749   C     0.75258   0.88421   0.46254   0.00000  Uiso   1.00
C750   C     0.97294   0.76413   0.00645   0.00000  Uiso   1.00
C751   C     0.82255   0.84116   0.41915   0.00000  Uiso   1.00
C752   C     0.67358   0.73560   0.48234   0.00000  Uiso   1.00
C753   C     0.71846   0.75985   0.46992   0.00000  Uiso   1.00
C754   C     0.69702   0.90372   0.21522   0.00000  Uiso   1.00
C755   C     0.73813   0.92144   0.18599   0.00000  Uiso   1.00
C756   C     0.74650   0.96860   0.19472   0.00000  Uiso   1.00
C757   C     0.75236   0.68879   0.31381   0.00000  Uiso   1.00
C758   C     0.94511   0.77861   0.11479   0.00000  Uiso   1.00
C759   C     0.73355   0.80616   0.08813   0.00000  Uiso   1.00
C760   C     0.80928   0.84146   0.46046   0.00000  Uiso   1.00
C761   C     0.77417   0.86403   0.48209   0.00000  Uiso   1.00
C762   C     0.83025   0.82045   0.48073   0.00000  Uiso   1.00
C763   C     0.81878   0.82595   0.02274   0.00000  Uiso   1.00
C764   C     0.78060   0.84546   0.04329   0.00000  Uiso   1.00
C765   C     0.75995   0.86519   0.02292   0.00000  Uiso   1.00
H766   H     0.73165   0.88063   0.03938   0.00000  Uiso   1.00
H767   H     0.98332   0.77984   0.03252   0.00000  Uiso   1.00
H768   H     0.97144   0.78820   0.48783   0.00000  Uiso   1.00
H769   H     0.67482   0.71086   0.00022   0.00000  Uiso   1.00
H770   H     0.99764   0.72050   0.45557   0.00000  Uiso   1.00
H771   H     0.71809   0.78483   0.45198   0.00000  Uiso   1.00
H772   H     0.74225   0.73844   0.45194   0.00000  Uiso   1.00
H773   H     0.72899   0.77396   0.49630   0.00000  Uiso   1.00
H774   H     0.70103   0.91195   0.24551   0.00000  Uiso   1.00
H775   H     0.66888   0.91820   0.21321   0.00000  Uiso   1.00
H776   H     0.76629   0.90689   0.18780   0.00000  Uiso   1.00
H777   H     0.98421   0.81032   0.28707   0.00000  Uiso   1.00
H778   H     0.73490   0.91384   0.15553   0.00000  Uiso   1.00
H779   H     0.71950   0.98394   0.19160   0.00000  Uiso   1.00
H780   H     0.77709   0.98036   0.17366   0.00000  Uiso   1.00
H781   H     0.74962   0.97684   0.22511   0.00000  Uiso   1.00
H782   H     0.73671   0.69573   0.29193   0.00000  Uiso   1.00
H783   H     0.76482   0.71797   0.32914   0.00000  Uiso   1.00
H784   H     0.72706   0.67206   0.33639   0.00000  Uiso   1.00
H785   H     0.93186   0.78502   0.14719   0.00000  Uiso   1.00
H786   H     0.95642   0.80862   0.10155   0.00000  Uiso   1.00
H787   H     0.97391   0.76174   0.10943   0.00000  Uiso   1.00
H788   H     0.87078   0.66862   0.21453   0.00000  Uiso   1.00
H789   H     0.75229   0.77874   0.07796   0.00000  Uiso   1.00
H790   H     0.70810   0.80402   0.07257   0.00000  Uiso   1.00
H791   H     0.71700   0.80526   0.12000   0.00000  Uiso   1.00
H792   H     0.82312   0.84593   0.09953   0.00000  Uiso   1.00
H793   H     0.90635   0.75313   0.46271   0.00000  Uiso   1.00
H794   H     0.72536   0.90113   0.47897   0.00000  Uiso   1.00
H795   H     0.74737   0.89689   0.40706   0.00000  Uiso   1.00
H796   H     0.85069   0.82677   0.40133   0.00000  Uiso   1.00
H797   H     0.86840   0.78388   0.42904   0.00000  Uiso   1.00
O798   O     0.83333   0.83333   0.25000   0.00000  Uiso   1.00
O799   O     0.82360   0.79060   0.16625   0.00000  Uiso   1.00
O800   O     0.79354   0.87313   0.33749   0.00000  Uiso   1.00
O801   O     0.87755   0.84159   0.15877   0.00000  Uiso   1.00
O802   O     0.83865   0.82802   0.33749   0.00000  Uiso   1.00
O803   O     0.93234   0.74008   0.01836   0.00000  Uiso   1.00
O804   O     0.69082   0.86017   0.20556   0.00000  Uiso   1.00
O805   O     0.78566   0.99627   0.29603   0.00000  Uiso   1.00
O806   O     0.91415   0.75233   0.09911   0.00000  Uiso   1.00
O807   O     0.76100   0.84383   0.08308   0.00000  Uiso   1.00
O808   O     0.84515   0.74768   0.27820   0.00000  Uiso   1.00
O809   O     0.81247   0.92803   0.26767   0.00000  Uiso   1.00
O810   O     0.74119   0.79917   0.23607   0.00000  Uiso   1.00
O811   O     0.93452   0.85845   0.21805   0.00000  Uiso   1.00
O812   O     0.73656   0.85627   0.27820   0.00000  Uiso   1.00
O813   O     0.92106   0.81944   0.26767   0.00000  Uiso   1.00
O814   O     0.80467   0.73570   0.23607   0.00000  Uiso   1.00
O815   O     0.87104   0.92193   0.21805   0.00000  Uiso   1.00
Zn816  Zn    0.85910   0.80756   0.28277   0.00000  Uiso   1.00
Zn817  Zn    0.80125   0.79044   0.22257   0.00000  Uiso   1.00
Zn818  Zn    0.87833   0.86331   0.21188   0.00000  Uiso   1.00
Zn819  Zn    0.79465   0.87202   0.28277   0.00000  Uiso   1.00
C820   C     0.05237   0.15965   0.75926   0.00000  Uiso   1.00
C821   C     0.19462   0.12629   0.96031   0.00000  Uiso   1.00
C822   C     0.21659   0.10762   0.97989   0.00000  Uiso   1.00
C823   C     0.28110   0.17358   0.74112   0.00000  Uiso   1.00
C824   C     0.21007   0.11689   0.52043   0.00000  Uiso   1.00
C825   C     0.17835   0.14360   0.54221   0.00000  Uiso   1.00
C826   C     0.23513   0.09983   0.53945   0.00000  Uiso   1.00
C827   C     0.22776   0.10806   0.58038   0.00000  Uiso   1.00
C828   C     0.17536   0.15499   0.58236   0.00000  Uiso   1.00
C829   C     0.32742   0.17599   0.73707   0.00000  Uiso   1.00
C830   C     0.00705   0.15806   0.76244   0.00000  Uiso   1.00
C831   C     0.09858   0.21535   0.92155   0.00000  Uiso   1.00
C832   C     0.17874   0.32193   0.73838   0.00000  Uiso   1.00
C833   C     0.15011   0.01250   0.76381   0.00000  Uiso   1.00
C834   C     0.15642   0.05626   0.75853   0.00000  Uiso   1.00
C835   C     0.17652   0.27767   0.74149   0.00000  Uiso   1.00
C836   C     0.18833   0.14518   0.64409   0.00000  Uiso   1.00
C837   C     0.14530   0.18767   0.85624   0.00000  Uiso   1.00
C838   C     0.13347   0.19347   0.89960   0.00000  Uiso   1.00
C839   C     0.19784   0.13605   0.60155   0.00000  Uiso   1.00
C840   C     0.08591   0.21754   0.96254   0.00000  Uiso   1.00
C841   C     0.30627   0.09746   0.50645   0.00000  Uiso   1.00
C842   C     0.15588   0.17450   0.91915   0.00000  Uiso   1.00
C843   C     0.00691   0.06894   0.98234   0.00000  Uiso   1.00
C844   C     0.05180   0.09318   0.96992   0.00000  Uiso   1.00
C845   C     0.03036   0.23705   0.71522   0.00000  Uiso   1.00
C846   C     0.07146   0.25477   0.68599   0.00000  Uiso   1.00
C847   C     0.07983   0.30193   0.69472   0.00000  Uiso   1.00
C848   C     0.08570   0.02212   0.81381   0.00000  Uiso   1.00
C849   C     0.27845   0.11194   0.61479   0.00000  Uiso   1.00
C850   C     0.06689   0.13950   0.58813   0.00000  Uiso   1.00
C851   C     0.14261   0.17479   0.96046   0.00000  Uiso   1.00
C852   C     0.10751   0.19736   0.98209   0.00000  Uiso   1.00
C853   C     0.16358   0.15378   0.98073   0.00000  Uiso   1.00
C854   C     0.15212   0.15928   0.52274   0.00000  Uiso   1.00
C855   C     0.11393   0.17879   0.54329   0.00000  Uiso   1.00
C856   C     0.09328   0.19852   0.52292   0.00000  Uiso   1.00
H857   H     0.06498   0.21396   0.53938   0.00000  Uiso   1.00
H858   H     0.31666   0.11318   0.53252   0.00000  Uiso   1.00
H859   H     0.30478   0.12153   0.98783   0.00000  Uiso   1.00
H860   H     0.00815   0.04420   0.50022   0.00000  Uiso   1.00
H861   H     0.33097   0.05383   0.95557   0.00000  Uiso   1.00
H862   H     0.05143   0.11816   0.95198   0.00000  Uiso   1.00
H863   H     0.07559   0.07178   0.95194   0.00000  Uiso   1.00
H864   H     0.06232   0.10729   0.99630   0.00000  Uiso   1.00
H865   H     0.03437   0.24528   0.74551   0.00000  Uiso   1.00
H866   H     0.00222   0.25153   0.71321   0.00000  Uiso   1.00
H867   H     0.09962   0.24023   0.68780   0.00000  Uiso   1.00
H868   H     0.31754   0.14365   0.78707   0.00000  Uiso   1.00
H869   H     0.06823   0.24717   0.65553   0.00000  Uiso   1.00
H870   H     0.05284   0.31727   0.69160   0.00000  Uiso   1.00
H871   H     0.11042   0.31369   0.67366   0.00000  Uiso   1.00
H872   H     0.08295   0.31017   0.72511   0.00000  Uiso   1.00
H873   H     0.07005   0.02906   0.79193   0.00000  Uiso   1.00
H874   H     0.09815   0.05131   0.82914   0.00000  Uiso   1.00
H875   H     0.06039   0.00539   0.83639   0.00000  Uiso   1.00
H876   H     0.26520   0.11835   0.64719   0.00000  Uiso   1.00
H877   H     0.28975   0.14196   0.60155   0.00000  Uiso   1.00
H878   H     0.30725   0.09508   0.60943   0.00000  Uiso   1.00
H879   H     0.20412   0.00195   0.71453   0.00000  Uiso   1.00
H880   H     0.08563   0.11207   0.57796   0.00000  Uiso   1.00
H881   H     0.04144   0.13735   0.57257   0.00000  Uiso   1.00
H882   H     0.05033   0.13859   0.62000   0.00000  Uiso   1.00
H883   H     0.15645   0.17926   0.59953   0.00000  Uiso   1.00
H884   H     0.23968   0.08646   0.96271   0.00000  Uiso   1.00
H885   H     0.05869   0.23447   0.97897   0.00000  Uiso   1.00
H886   H     0.08070   0.23022   0.90706   0.00000  Uiso   1.00
H887   H     0.18403   0.16011   0.90133   0.00000  Uiso   1.00
H888   H     0.20173   0.11722   0.92904   0.00000  Uiso   1.00
O889   O     0.16667   0.16667   0.75000   0.00000  Uiso   1.00
O890   O     0.15693   0.12393   0.66625   0.00000  Uiso   1.00
O891   O     0.12687   0.20646   0.83749   0.00000  Uiso   1.00
O892   O     0.21088   0.17493   0.65877   0.00000  Uiso   1.00
O893   O     0.17198   0.16135   0.83749   0.00000  Uiso   1.00
O894   O     0.26567   0.07341   0.51836   0.00000  Uiso   1.00
O895   O     0.02416   0.19351   0.70556   0.00000  Uiso   1.00
O896   O     0.11900   0.32960   0.79603   0.00000  Uiso   1.00
O897   O     0.24749   0.08567   0.59911   0.00000  Uiso   1.00
O898   O     0.09433   0.17716   0.58308   0.00000  Uiso   1.00
O899   O     0.17849   0.08101   0.77820   0.00000  Uiso   1.00
O900   O     0.14581   0.26136   0.76767   0.00000  Uiso   1.00
O901   O     0.07452   0.13251   0.73607   0.00000  Uiso   1.00
O902   O     0.26785   0.19179   0.71805   0.00000  Uiso   1.00
O903   O     0.06990   0.18960   0.77820   0.00000  Uiso   1.00
O904   O     0.25440   0.15277   0.76767   0.00000  Uiso   1.00
O905   O     0.13800   0.06903   0.73607   0.00000  Uiso   1.00
O906   O     0.20437   0.25527   0.71805   0.00000  Uiso   1.00
Zn907  Zn    0.19244   0.14090   0.78277   0.00000  Uiso   1.00
Zn908  Zn    0.13459   0.12378   0.72257   0.00000  Uiso   1.00
Zn909  Zn    0.21166   0.19664   0.71188   0.00000  Uiso   1.00
Zn910  Zn    0.12798   0.20535   0.78277   0.00000  Uiso   1.00
C911   C     0.38570   0.15965   0.75926   0.00000  Uiso   1.00
C912   C     0.52796   0.12629   0.96031   0.00000  Uiso   1.00
C913   C     0.54993   0.10762   0.97989   0.00000  Uiso   1.00
C914   C     0.61444   0.17358   0.74112   0.00000  Uiso   1.00
C915   C     0.54341   0.11689   0.52043   0.00000  Uiso   1.00
C916   C     0.51168   0.14360   0.54221   0.00000  Uiso   1.00
C917   C     0.56846   0.09983   0.53945   0.00000  Uiso   1.00
C918   C     0.56109   0.10806   0.58038   0.00000  Uiso   1.00
C919   C     0.50870   0.15499   0.58236   0.00000  Uiso   1.00
C920   C     0.66075   0.17599   0.73707   0.00000  Uiso   1.00
C921   C     0.34039   0.15806   0.76244   0.00000  Uiso   1.00
C922   C     0.43192   0.21535   0.92155   0.00000  Uiso   1.00
C923   C     0.51208   0.32193   0.73838   0.00000  Uiso   1.00
C924   C     0.48344   0.01250   0.76381   0.00000  Uiso   1.00
C925   C     0.48975   0.05626   0.75853   0.00000  Uiso   1.00
C926   C     0.50985   0.27767   0.74149   0.00000  Uiso   1.00
C927   C     0.52167   0.14518   0.64409   0.00000  Uiso   1.00
C928   C     0.47863   0.18767   0.85624   0.00000  Uiso   1.00
C929   C     0.46680   0.19347   0.89960   0.00000  Uiso   1.00
C930   C     0.53117   0.13605   0.60155   0.00000  Uiso   1.00
C931   C     0.41924   0.21754   0.96254   0.00000  Uiso   1.00
C932   C     0.63961   0.09746   0.50645   0.00000  Uiso   1.00
C933   C     0.48922   0.17450   0.91915   0.00000  Uiso   1.00
C934   C     0.34025   0.06894   0.98234   0.00000  Uiso   1.00
C935   C     0.38513   0.09318   0.96992   0.00000  Uiso   1.00
C936   C     0.36369   0.23705   0.71522   0.00000  Uiso   1.00
C937   C     0.40479   0.25477   0.68599   0.00000  Uiso   1.00
C938   C     0.41316   0.30193   0.69472   0.00000  Uiso   1.00
C939   C     0.41903   0.02212   0.81381   0.00000  Uiso   1.00
C940   C     0.61178   0.11194   0.61479   0.00000  Uiso   1.00
C941   C     0.40022   0.13950   0.58813   0.00000  Uiso   1.00
C942   C     0.47595   0.17479   0.96046   0.00000  Uiso   1.00
C943   C     0.44084   0.19736   0.98209   0.00000  Uiso   1.00
C944   C     0.49691   0.15378   0.98073   0.00000  Uiso   1.00
C945   C     0.48545   0.15928   0.52274   0.00000  Uiso   1.00
C946   C     0.44727   0.17879   0.54329   0.00000  Uiso   1.00
C947   C     0.42662   0.19852   0.52292   0.00000  Uiso   1.00
H948   H     0.39832   0.21396   0.53938   0.00000  Uiso   1.00
H949   H     0.64999   0.11318   0.53252   0.00000  Uiso   1.00
H950   H     0.63811   0.12153   0.98783   0.00000  Uiso   1.00
H951   H     0.34149   0.04420   0.50022   0.00000  Uiso   1.00
H952   H     0.66430   0.05383   0.95557   0.00000  Uiso   1.00
H953   H     0.38476   0.11816   0.95198   0.00000  Uiso   1.00
H954   H     0.40892   0.07178   0.95194   0.00000  Uiso   1.00
H955   H     0.39565   0.10729   0.99630   0.00000  Uiso   1.00
H956   H     0.36770   0.24528   0.74551   0.00000  Uiso   1.00
H957   H     0.33555   0.25153   0.71321   0.00000  Uiso   1.00
H958   H     0.43295   0.24023   0.68780   0.00000  Uiso   1.00
H959   H     0.65088   0.14365   0.78707   0.00000  Uiso   1.00
H960   H     0.40157   0.24717   0.65553   0.00000  Uiso   1.00
H961   H     0.38617   0.31727   0.69160   0.00000  Uiso   1.00
H962   H     0.44376   0.31369   0.67366   0.00000  Uiso   1.00
H963   H     0.41628   0.31017   0.72511   0.00000  Uiso   1.00
H964   H     0.40338   0.02906   0.79193   0.00000  Uiso   1.00
H965   H     0.43149   0.05131   0.82914   0.00000  Uiso   1.00
H966   H     0.39373   0.00539   0.83639   0.00000  Uiso   1.00
H967   H     0.59853   0.11835   0.64719   0.00000  Uiso   1.00
H968   H     0.62309   0.14196   0.60155   0.00000  Uiso   1.00
H969   H     0.64058   0.09508   0.60943   0.00000  Uiso   1.00
H970   H     0.53745   0.00195   0.71453   0.00000  Uiso   1.00
H971   H     0.41896   0.11207   0.57796   0.00000  Uiso   1.00
H972   H     0.37477   0.13735   0.57257   0.00000  Uiso   1.00
H973   H     0.38366   0.13859   0.62000   0.00000  Uiso   1.00
H974   H     0.48978   0.17926   0.59953   0.00000  Uiso   1.00
H975   H     0.57301   0.08646   0.96271   0.00000  Uiso   1.00
H976   H     0.39202   0.23447   0.97897   0.00000  Uiso   1.00
H977   H     0.41404   0.23022   0.90706   0.00000  Uiso   1.00
H978   H     0.51736   0.16011   0.90133   0.00000  Uiso   1.00
H979   H     0.53507   0.11722   0.92904   0.00000  Uiso   1.00
O980   O     0.50000   0.16667   0.75000   0.00000  Uiso   1.00
O981   O     0.49027   0.12393   0.66625   0.00000  Uiso   1.00
O982   O     0.46020   0.20646   0.83749   0.00000  Uiso   1.00
O983   O     0.54421   0.17493   0.65877   0.00000  Uiso   1.00
O984   O     0.50532   0.16135   0.83749   0.00000  Uiso   1.00
O985   O     0.59900   0.07341   0.51836   0.00000  Uiso   1.00
O986   O     0.35749   0.19351   0.70556   0.00000  Uiso   1.00
O987   O     0.45233   0.32960   0.79603   0.00000  Uiso   1.00
O988   O     0.58082   0.08567   0.59911   0.00000  Uiso   1.00
O989   O     0.42766   0.17716   0.58308   0.00000  Uiso   1.00
O990   O     0.51182   0.08101   0.77820   0.00000  Uiso   1.00
O991   O     0.47914   0.26136   0.76767   0.00000  Uiso   1.00
O992   O     0.40785   0.13251   0.73607   0.00000  Uiso   1.00
O993   O     0.60119   0.19179   0.71805   0.00000  Uiso   1.00
O994   O     0.40323   0.18960   0.77820   0.00000  Uiso   1.00
O995   O     0.58773   0.15277   0.76767   0.00000  Uiso   1.00
O996   O     0.47133   0.06903   0.73607   0.00000  Uiso   1.00
O997   O     0.53771   0.25527   0.71805   0.00000  Uiso   1.00
Zn998  Zn    0.52577   0.14090   0.78277   0.00000  Uiso   1.00
Zn999  Zn    0.46792   0.12378   0.72257   0.00000  Uiso   1.00
Zn1000 Zn    0.54500   0.19664   0.71188   0.00000  Uiso   1.00
Zn1001 Zn    0.46131   0.20535   0.78277   0.00000  Uiso   1.00
C1002  C     0.71904   0.15965   0.75926   0.00000  Uiso   1.00
C1003  C     0.86129   0.12629   0.96031   0.00000  Uiso   1.00
C1004  C     0.88326   0.10762   0.97989   0.00000  Uiso   1.00
C1005  C     0.94777   0.17358   0.74112   0.00000  Uiso   1.00
C1006  C     0.87674   0.11689   0.52043   0.00000  Uiso   1.00
C1007  C     0.84501   0.14360   0.54221   0.00000  Uiso   1.00
C1008  C     0.90179   0.09983   0.53945   0.00000  Uiso   1.00
C1009  C     0.89443   0.10806   0.58038   0.00000  Uiso   1.00
C1010  C     0.84203   0.15499   0.58236   0.00000  Uiso   1.00
C1011  C     0.99408   0.17599   0.73707   0.00000  Uiso   1.00
C1012  C     0.67372   0.15806   0.76244   0.00000  Uiso   1.00
C1013  C     0.76525   0.21535   0.92155   0.00000  Uiso   1.00
C1014  C     0.84541   0.32193   0.73838   0.00000  Uiso   1.00
C1015  C     0.81677   0.01250   0.76381   0.00000  Uiso   1.00
C1016  C     0.82308   0.05626   0.75853   0.00000  Uiso   1.00
C1017  C     0.84319   0.27767   0.74149   0.00000  Uiso   1.00
C1018  C     0.85500   0.14518   0.64409   0.00000  Uiso   1.00
C1019  C     0.81196   0.18767   0.85624   0.00000  Uiso   1.00
C1020  C     0.80013   0.19347   0.89960   0.00000  Uiso   1.00
C1021  C     0.86451   0.13605   0.60155   0.00000  Uiso   1.00
C1022  C     0.75258   0.21754   0.96254   0.00000  Uiso   1.00
C1023  C     0.97294   0.09746   0.50645   0.00000  Uiso   1.00
C1024  C     0.82255   0.17450   0.91915   0.00000  Uiso   1.00
C1025  C     0.67358   0.06894   0.98234   0.00000  Uiso   1.00
C1026  C     0.71846   0.09318   0.96992   0.00000  Uiso   1.00
C1027  C     0.69702   0.23705   0.71522   0.00000  Uiso   1.00
C1028  C     0.73813   0.25477   0.68599   0.00000  Uiso   1.00
C1029  C     0.74650   0.30193   0.69472   0.00000  Uiso   1.00
C1030  C     0.75236   0.02212   0.81381   0.00000  Uiso   1.00
C1031  C     0.94511   0.11194   0.61479   0.00000  Uiso   1.00
C1032  C     0.73355   0.13950   0.58813   0.00000  Uiso   1.00
C1033  C     0.80928   0.17479   0.96046   0.00000  Uiso   1.00
C1034  C     0.77417   0.19736   0.98209   0.00000  Uiso   1.00
C1035  C     0.83025   0.15378   0.98073   0.00000  Uiso   1.00
C1036  C     0.81878   0.15928   0.52274   0.00000  Uiso   1.00
C1037  C     0.78060   0.17879   0.54329   0.00000  Uiso   1.00
C1038  C     0.75995   0.19852   0.52292   0.00000  Uiso   1.00
H1039  H     0.73165   0.21396   0.53938   0.00000  Uiso   1.00
H1040  H     0.98332   0.11318   0.53252   0.00000  Uiso   1.00
H1041  H     0.97144   0.12153   0.98783   0.00000  Uiso   1.00
H1042  H     0.67482   0.04420   0.50022   0.00000  Uiso   1.00
H1043  H     0.99764   0.05383   0.95557   0.00000  Uiso   1.00
H1044  H     0.71809   0.11816   0.95198   0.00000  Uiso   1.00
H1045  H     0.74225   0.07178   0.95194   0.00000  Uiso   1.00
H1046  H     0.72899   0.10729   0.99630   0.00000  Uiso   1.00
H1047  H     0.70103   0.24528   0.74551   0.00000  Uiso   1.00
H1048  H     0.66888   0.25153   0.71321   0.00000  Uiso   1.00
H1049  H     0.76629   0.24023   0.68780   0.00000  Uiso   1.00
H1050  H     0.98421   0.14365   0.78707   0.00000  Uiso   1.00
H1051  H     0.73490   0.24717   0.65553   0.00000  Uiso   1.00
H1052  H     0.71950   0.31727   0.69160   0.00000  Uiso   1.00
H1053  H     0.77709   0.31369   0.67366   0.00000  Uiso   1.00
H1054  H     0.74962   0.31017   0.72511   0.00000  Uiso   1.00
H1055  H     0.73671   0.02906   0.79193   0.00000  Uiso   1.00
H1056  H     0.76482   0.05131   0.82914   0.00000  Uiso   1.00
H1057  H     0.72706   0.00539   0.83639   0.00000  Uiso   1.00
H1058  H     0.93186   0.11835   0.64719   0.00000  Uiso   1.00
H1059  H     0.95642   0.14196   0.60155   0.00000  Uiso   1.00
H1060  H     0.97391   0.09508   0.60943   0.00000  Uiso   1.00
H1061  H     0.87078   0.00195   0.71453   0.00000  Uiso   1.00
H1062  H     0.75229   0.11207   0.57796   0.00000  Uiso   1.00
H1063  H     0.70810   0.13735   0.57257   0.00000  Uiso   1.00
H1064  H     0.71700   0.13859   0.62000   0.00000  Uiso   1.00
H1065  H     0.82312   0.17926   0.59953   0.00000  Uiso   1.00
H1066  H     0.90635   0.08646   0.96271   0.00000  Uiso   1.00
H1067  H     0.72536   0.23447   0.97897   0.00000  Uiso   1.00
H1068  H     0.74737   0.23022   0.90706   0.00000  Uiso   1.00
H1069  H     0.85069   0.16011   0.90133   0.00000  Uiso   1.00
H1070  H     0.86840   0.11722   0.92904   0.00000  Uiso   1.00
O1071  O     0.83333   0.16667   0.75000   0.00000  Uiso   1.00
O1072  O     0.82360   0.12393   0.66625   0.00000  Uiso   1.00
O1073  O     0.79354   0.20646   0.83749   0.00000  Uiso   1.00
O1074  O     0.87755   0.17493   0.65877   0.00000  Uiso   1.00
O1075  O     0.83865   0.16135   0.83749   0.00000  Uiso   1.00
O1076  O     0.93234   0.07341   0.51836   0.00000  Uiso   1.00
O1077  O     0.69082   0.19351   0.70556   0.00000  Uiso   1.00
O1078  O     0.78566   0.32960   0.79603   0.00000  Uiso   1.00
O1079  O     0.91415   0.08567   0.59911   0.00000  Uiso   1.00
O1080  O     0.76100   0.17716   0.58308   0.00000  Uiso   1.00
O1081  O     0.84515   0.08101   0.77820   0.00000  Uiso   1.00
O1082  O     0.81247   0.26136   0.76767   0.00000  Uiso   1.00
O1083  O     0.74119   0.13251   0.73607   0.00000  Uiso   1.00
O1084  O     0.93452   0.19179   0.71805   0.00000  Uiso   1.00
O1085  O     0.73656   0.18960   0.77820   0.00000  Uiso   1.00
O1086  O     0.92106   0.15277   0.76767   0.00000  Uiso   1.00
O1087  O     0.80467   0.06903   0.73607   0.00000  Uiso   1.00
O1088  O     0.87104   0.25527   0.71805   0.00000  Uiso   1.00
Zn1089 Zn    0.85910   0.14090   0.78277   0.00000  Uiso   1.00
Zn1090 Zn    0.80125   0.12378   0.72257   0.00000  Uiso   1.00
Zn1091 Zn    0.87833   0.19664   0.71188   0.00000  Uiso   1.00
Zn1092 Zn    0.79465   0.20535   0.78277   0.00000  Uiso   1.00
C1093  C     0.05237   0.49299   0.75926   0.00000  Uiso   1.00
C1094  C     0.19462   0.45962   0.96031   0.00000  Uiso   1.00
C1095  C     0.21659   0.44096   0.97989   0.00000  Uiso   1.00
C1096  C     0.28110   0.50691   0.74112   0.00000  Uiso   1.00
C1097  C     0.21007   0.45022   0.52043   0.00000  Uiso   1.00
C1098  C     0.17835   0.47694   0.54221   0.00000  Uiso   1.00
C1099  C     0.23513   0.43316   0.53945   0.00000  Uiso   1.00
C1100  C     0.22776   0.44139   0.58038   0.00000  Uiso   1.00
C1101  C     0.17536   0.48832   0.58236   0.00000  Uiso   1.00
C1102  C     0.32742   0.50933   0.73707   0.00000  Uiso   1.00
C1103  C     0.00705   0.49139   0.76244   0.00000  Uiso   1.00
C1104  C     0.09858   0.54868   0.92155   0.00000  Uiso   1.00
C1105  C     0.17874   0.65526   0.73838   0.00000  Uiso   1.00
C1106  C     0.15011   0.34583   0.76381   0.00000  Uiso   1.00
C1107  C     0.15642   0.38959   0.75853   0.00000  Uiso   1.00
C1108  C     0.17652   0.61101   0.74149   0.00000  Uiso   1.00
C1109  C     0.18833   0.47851   0.64409   0.00000  Uiso   1.00
C1110  C     0.14530   0.52101   0.85624   0.00000  Uiso   1.00
C1111  C     0.13347   0.52681   0.89960   0.00000  Uiso   1.00
C1112  C     0.19784   0.46939   0.60155   0.00000  Uiso   1.00
C1113  C     0.08591   0.55087   0.96254   0.00000  Uiso   1.00
C1114  C     0.30627   0.43080   0.50645   0.00000  Uiso   1.00
C1115  C     0.15588   0.50783   0.91915   0.00000  Uiso   1.00
C1116  C     0.00691   0.40227   0.98234   0.00000  Uiso   1.00
C1117  C     0.05180   0.42651   0.96992   0.00000  Uiso   1.00
C1118  C     0.03036   0.57039   0.71522   0.00000  Uiso   1.00
C1119  C     0.07146   0.58810   0.68599   0.00000  Uiso   1.00
C1120  C     0.07983   0.63527   0.69472   0.00000  Uiso   1.00
C1121  C     0.08570   0.35546   0.81381   0.00000  Uiso   1.00
C1122  C     0.27845   0.44527   0.61479   0.00000  Uiso   1.00
C1123  C     0.06689   0.47283   0.58813   0.00000  Uiso   1.00
C1124  C     0.14261   0.50813   0.96046   0.00000  Uiso   1.00
C1125  C     0.10751   0.53070   0.98209   0.00000  Uiso   1.00
C1126  C     0.16358   0.48712   0.98073   0.00000  Uiso   1.00
C1127  C     0.15212   0.49261   0.52274   0.00000  Uiso   1.00
C1128  C     0.11393   0.51212   0.54329   0.00000  Uiso   1.00
C1129  C     0.09328   0.53185   0.52292   0.00000  Uiso   1.00
H1130  H     0.06498   0.54730   0.53938   0.00000  Uiso   1.00
H1131  H     0.31666   0.44651   0.53252   0.00000  Uiso   1.00
H1132  H     0.30478   0.45486   0.98783   0.00000  Uiso   1.00
H1133  H     0.00815   0.37753   0.50022   0.00000  Uiso   1.00
H1134  H     0.33097   0.38716   0.95557   0.00000  Uiso   1.00
H1135  H     0.05143   0.45149   0.95198   0.00000  Uiso   1.00
H1136  H     0.07559   0.40511   0.95194   0.00000  Uiso   1.00
H1137  H     0.06232   0.44063   0.99630   0.00000  Uiso   1.00
H1138  H     0.03437   0.57861   0.74551   0.00000  Uiso   1.00
H1139  H     0.00222   0.58487   0.71321   0.00000  Uiso   1.00
H1140  H     0.09962   0.57356   0.68780   0.00000  Uiso   1.00
H1141  H     0.31754   0.47698   0.78707   0.00000  Uiso   1.00
H1142  H     0.06823   0.58050   0.65553   0.00000  Uiso   1.00
H1143  H     0.05284   0.65060   0.69160   0.00000  Uiso   1.00
H1144  H     0.11042   0.64703   0.67366   0.00000  Uiso   1.00
H1145  H     0.08295   0.64351   0.72511   0.00000  Uiso   1.00
H1146  H     0.07005   0.36239   0.79193   0.00000  Uiso   1.00
H1147  H     0.09815   0.38464   0.82914   0.00000  Uiso   1.00
H1148  H     0.06039   0.33873   0.83639   0.00000  Uiso   1.00
H1149  H     0.26520   0.45168   0.64719   0.00000  Uiso   1.00
H1150  H     0.28975   0.47529   0.60155   0.00000  Uiso   1.00
H1151  H     0.30725   0.42841   0.60943   0.00000  Uiso   1.00
H1152  H     0.20412   0.33529   0.71453   0.00000  Uiso   1.00
H1153  H     0.08563   0.44541   0.57796   0.00000  Uiso   1.00
H1154  H     0.04144   0.47068   0.57257   0.00000  Uiso   1.00
H1155  H     0.05033   0.47193   0.62000   0.00000  Uiso   1.00
H1156  H     0.15645   0.51259   0.59953   0.00000  Uiso   1.00
H1157  H     0.23968   0.41979   0.96271   0.00000  Uiso   1.00
H1158  H     0.05869   0.56780   0.97897   0.00000  Uiso   1.00
H1159  H     0.08070   0.56355   0.90706   0.00000  Uiso   1.00
H1160  H     0.18403   0.49344   0.90133   0.00000  Uiso   1.00
H1161  H     0.20173   0.45055   0.92904   0.00000  Uiso   1.00
O1162  O     0.16667   0.50000   0.75000   0.00000  Uiso   1.00
O1163  O     0.15693   0.45726   0.66625   0.00000  Uiso   1.00
O1164  O     0.12687   0.53979   0.83749   0.00000  Uiso   1.00
O1165  O     0.21088   0.50826   0.65877   0.00000  Uiso   1.00
O1166  O     0.17198   0.49468   0.83749   0.00000  Uiso   1.00
O1167  O     0.26567   0.40674   0.51836   0.00000  Uiso   1.00
O1168  O     0.02416   0.52684   0.70556   0.00000  Uiso   1.00
O1169  O     0.11900   0.66294   0.79603   0.00000  Uiso   1.00
O1170  O     0.24749   0.41900   0.59911   0.00000  Uiso   1.00
O1171  O     0.09433   0.51050   0.58308   0.00000  Uiso   1.00
O1172  O     0.17849   0.41434   0.77820   0.00000  Uiso   1.00
O1173  O     0.14581   0.59469   0.76767   0.00000  Uiso   1.00
O1174  O     0.07452   0.46584   0.73607   0.00000  Uiso   1.00
O1175  O     0.26785   0.52512   0.71805   0.00000  Uiso   1.00
O1176  O     0.06990   0.52293   0.77820   0.00000  Uiso   1.00
O1177  O     0.25440   0.48610   0.76767   0.00000  Uiso   1.00
O1178  O     0.13800   0.40236   0.73607   0.00000  Uiso   1.00
O1179  O     0.20437   0.58860   0.71805   0.00000  Uiso   1.00
Zn1180 Zn    0.19244   0.47423   0.78277   0.00000  Uiso   1.00
Zn1181 Zn    0.13459   0.45711   0.72257   0.00000  Uiso   1.00
Zn1182 Zn    0.21166   0.52997   0.71188   0.00000  Uiso   1.00
Zn1183 Zn    0.12798   0.53868   0.78277   0.00000  Uiso   1.00
C1184  C     0.38570   0.49299   0.75926   0.00000  Uiso   1.00
C1185  C     0.52796   0.45962   0.96031   0.00000  Uiso   1.00
C1186  C     0.54993   0.44096   0.97989   0.00000  Uiso   1.00
C1187  C     0.61444   0.50691   0.74112   0.00000  Uiso   1.00
C1188  C     0.54341   0.45022   0.52043   0.00000  Uiso   1.00
C1189  C     0.51168   0.47694   0.54221   0.00000  Uiso   1.00
C1190  C     0.56846   0.43316   0.53945   0.00000  Uiso   1.00
C1191  C     0.56109   0.44139   0.58038   0.00000  Uiso   1.00
C1192  C     0.50870   0.48832   0.58236   0.00000  Uiso   1.00
C1193  C     0.66075   0.50933   0.73707   0.00000  Uiso   1.00
C1194  C     0.34039   0.49139   0.76244   0.00000  Uiso   1.00
C1195  C     0.43192   0.54868   0.92155   0.00000  Uiso   1.00
C1196  C     0.51208   0.65526   0.73838   0.00000  Uiso   1.00
C1197  C     0.48344   0.34583   0.76381   0.00000  Uiso   1.00
C1198  C     0.48975   0.38959   0.75853   0.00000  Uiso   1.00
C1199  C     0.50985   0.61101   0.74149   0.00000  Uiso   1.00
C1200  C     0.52167   0.47851   0.64409   0.00000  Uiso   1.00
C1201  C     0.47863   0.52101   0.85624   0.00000  Uiso   1.00
C1202  C     0.46680   0.52681   0.89960   0.00000  Uiso   1.00
C1203  C     0.53117   0.46939   0.60155   0.00000  Uiso   1.00
C1204  C     0.41924   0.55087   0.96254   0.00000  Uiso   1.00
C1205  C     0.63961   0.43080   0.50645   0.00000  Uiso   1.00
C1206  C     0.48922   0.50783   0.91915   0.00000  Uiso   1.00
C1207  C     0.34025   0.40227   0.98234   0.00000  Uiso   1.00
C1208  C     0.38513   0.42651   0.96992   0.00000  Uiso   1.00
C1209  C     0.36369   0.57039   0.71522   0.00000  Uiso   1.00
C1210  C     0.40479   0.58810   0.68599   0.00000  Uiso   1.00
C1211  C     0.41316   0.63527   0.69472   0.00000  Uiso   1.00
C1212  C     0.41903   0.35546   0.81381   0.00000  Uiso   1.00
C1213  C     0.61178   0.44527   0.61479   0.00000  Uiso   1.00
C1214  C     0.40022   0.47283   0.58813   0.00000  Uiso   1.00
C1215  C     0.47595   0.50813   0.96046   0.00000  Uiso   1.00
C1216  C     0.44084   0.53070   0.98209   0.00000  Uiso   1.00
C1217  C     0.49691   0.48712   0.98073   0.00000  Uiso   1.00
C1218  C     0.48545   0.49261   0.52274   0.00000  Uiso   1.00
C1219  C     0.44727   0.51212   0.54329   0.00000  Uiso   1.00
C1220  C     0.42662   0.53185   0.52292   0.00000  Uiso   1.00
H1221  H     0.39832   0.54730   0.53938   0.00000  Uiso   1.00
H1222  H     0.64999   0.44651   0.53252   0.00000  Uiso   1.00
H1223  H     0.63811   0.45486   0.98783   0.00000  Uiso   1.00
H1224  H     0.34149   0.37753   0.50022   0.00000  Uiso   1.00
H1225  H     0.66430   0.38716   0.95557   0.00000  Uiso   1.00
H1226  H     0.38476   0.45149   0.95198   0.00000  Uiso   1.00
H1227  H     0.40892   0.40511   0.95194   0.00000  Uiso   1.00
H1228  H     0.39565   0.44063   0.99630   0.00000  Uiso   1.00
H1229  H     0.36770   0.57861   0.74551   0.00000  Uiso   1.00
H1230  H     0.33555   0.58487   0.71321   0.00000  Uiso   1.00
H1231  H     0.43295   0.57356   0.68780   0.00000  Uiso   1.00
H1232  H     0.65088   0.47698   0.78707   0.00000  Uiso   1.00
H1233  H     0.40157   0.58050   0.65553   0.00000  Uiso   1.00
H1234  H     0.38617   0.65060   0.69160   0.00000  Uiso   1.00
H1235  H     0.44376   0.64703   0.67366   0.00000  Uiso   1.00
H1236  H     0.41628   0.64351   0.72511   0.00000  Uiso   1.00
H1237  H     0.40338   0.36239   0.79193   0.00000  Uiso   1.00
H1238  H     0.43149   0.38464   0.82914   0.00000  Uiso   1.00
H1239  H     0.39373   0.33873   0.83639   0.00000  Uiso   1.00
H1240  H     0.59853   0.45168   0.64719   0.00000  Uiso   1.00
H1241  H     0.62309   0.47529   0.60155   0.00000  Uiso   1.00
H1242  H     0.64058   0.42841   0.60943   0.00000  Uiso   1.00
H1243  H     0.53745   0.33529   0.71453   0.00000  Uiso   1.00
H1244  H     0.41896   0.44541   0.57796   0.00000  Uiso   1.00
H1245  H     0.37477   0.47068   0.57257   0.00000  Uiso   1.00
H1246  H     0.38366   0.47193   0.62000   0.00000  Uiso   1.00
H1247  H     0.48978   0.51259   0.59953   0.00000  Uiso   1.00
H1248  H     0.57301   0.41979   0.96271   0.00000  Uiso   1.00
H1249  H     0.39202   0.56780   0.97897   0.00000  Uiso   1.00
H1250  H     0.41404   0.56355   0.90706   0.00000  Uiso   1.00
H1251  H     0.51736   0.49344   0.90133   0.00000  Uiso   1.00
H1252  H     0.53507   0.45055   0.92904   0.00000  Uiso   1.00
O1253  O     0.50000   0.50000   0.75000   0.00000  Uiso   1.00
O1254  O     0.49027   0.45726   0.66625   0.00000  Uiso   1.00
O1255  O     0.46020   0.53979   0.83749   0.00000  Uiso   1.00
O1256  O     0.54421   0.50826   0.65877   0.00000  Uiso   1.00
O1257  O     0.50532   0.49468   0.83749   0.00000  Uiso   1.00
O1258  O     0.59900   0.40674   0.51836   0.00000  Uiso   1.00
O1259  O     0.35749   0.52684   0.70556   0.00000  Uiso   1.00
O1260  O     0.45233   0.66294   0.79603   0.00000  Uiso   1.00
O1261  O     0.58082   0.41900   0.59911   0.00000  Uiso   1.00
O1262  O     0.42766   0.51050   0.58308   0.00000  Uiso   1.00
O1263  O     0.51182   0.41434   0.77820   0.00000  Uiso   1.00
O1264  O     0.47914   0.59469   0.76767   0.00000  Uiso   1.00
O1265  O     0.40785   0.46584   0.73607   0.00000  Uiso   1.00
O1266  O     0.60119   0.52512   0.71805   0.00000  Uiso   1.00
O1267  O     0.40323   0.52293   0.77820   0.00000  Uiso   1.00
O1268  O     0.58773   0.48610   0.76767   0.00000  Uiso   1.00
O1269  O     0.47133   0.40236   0.73607   0.00000  Uiso   1.00
O1270  O     0.53771   0.58860   0.71805   0.00000  Uiso   1.00
Zn1271 Zn    0.52577   0.47423   0.78277   0.00000  Uiso   1.00
Zn1272 Zn    0.46792   0.45711   0.72257   0.00000  Uiso   1.00
Zn1273 Zn    0.54500   0.52997   0.71188   0.00000  Uiso   1.00
Zn1274 Zn    0.46131   0.53868   0.78277   0.00000  Uiso   1.00
C1275  C     0.71904   0.49299   0.75926   0.00000  Uiso   1.00
C1276  C     0.86129   0.45962   0.96031   0.00000  Uiso   1.00
C1277  C     0.88326   0.44096   0.97989   0.00000  Uiso   1.00
C1278  C     0.94777   0.50691   0.74112   0.00000  Uiso   1.00
C1279  C     0.87674   0.45022   0.52043   0.00000  Uiso   1.00
C1280  C     0.84501   0.47694   0.54221   0.00000  Uiso   1.00
C1281  C     0.90179   0.43316   0.53945   0.00000  Uiso   1.00
C1282  C     0.89443   0.44139   0.58038   0.00000  Uiso   1.00
C1283  C     0.84203   0.48832   0.58236   0.00000  Uiso   1.00
C1284  C     0.99408   0.50933   0.73707   0.00000  Uiso   1.00
C1285  C     0.67372   0.49139   0.76244   0.00000  Uiso   1.00
C1286  C     0.76525   0.54868   0.92155   0.00000  Uiso   1.00
C1287  C     0.84541   0.65526   0.73838   0.00000  Uiso   1.00
C1288  C     0.81677   0.34583   0.76381   0.00000  Uiso   1.00
C1289  C     0.82308   0.38959   0.75853   0.00000  Uiso   1.00
C1290  C     0.84319   0.61101   0.74149   0.00000  Uiso   1.00
C1291  C     0.85500   0.47851   0.64409   0.00000  Uiso   1.00
C1292  C     0.81196   0.52101   0.85624   0.00000  Uiso   1.00
C1293  C     0.80013   0.52681   0.89960   0.00000  Uiso   1.00
C1294  C     0.86451   0.46939   0.60155   0.00000  Uiso   1.00
C1295  C     0.75258   0.55087   0.96254   0.00000  Uiso   1.00
C1296  C     0.97294   0.43080   0.50645   0.00000  Uiso   1.00
C1297  C     0.82255   0.50783   0.91915   0.00000  Uiso   1.00
C1298  C     0.67358   0.40227   0.98234   0.00000  Uiso   1.00
C1299  C     0.71846   0.42651   0.96992   0.00000  Uiso   1.00
C1300  C     0.69702   0.57039   0.71522   0.00000  Uiso   1.00
C1301  C     0.73813   0.58810   0.68599   0.00000  Uiso   1.00
C1302  C     0.74650   0.63527   0.69472   0.00000  Uiso   1.00
C1303  C     0.75236   0.35546   0.81381   0.00000  Uiso   1.00
C1304  C     0.94511   0.44527   0.61479   0.00000  Uiso   1.00
C1305  C     0.73355   0.47283   0.58813   0.00000  Uiso   1.00
C1306  C     0.80928   0.50813   0.96046   0.00000  Uiso   1.00
C1307  C     0.77417   0.53070   0.98209   0.00000  Uiso   1.00
C1308  C     0.83025   0.48712   0.98073   0.00000  Uiso   1.00
C1309  C     0.81878   0.49261   0.52274   0.00000  Uiso   1.00
C1310  C     0.78060   0.51212   0.54329   0.00000  Uiso   1.00
C1311  C     0.75995   0.53185   0.52292   0.00000  Uiso   1.00
H1312  H     0.73165   0.54730   0.53938   0.00000  Uiso   1.00
H1313  H     0.98332   0.44651   0.53252   0.00000  Uiso   1.00
H1314  H     0.97144   0.45486   0.98783   0.00000  Uiso   1.00
H1315  H     0.67482   0.37753   0.50022   0.00000  Uiso   1.00
H1316  H     0.99764   0.38716   0.95557   0.00000  Uiso   1.00
H1317  H     0.71809   0.45149   0.95198   0.00000  Uiso   1.00
H1318  H     0.74225   0.40511   0.95194   0.00000  Uiso   1.00
H1319  H     0.72899   0.44063   0.99630   0.00000  Uiso   1.00
H1320  H     0.70103   0.57861   0.74551   0.00000  Uiso   1.00
H1321  H     0.66888   0.58487   0.71321   0.00000  Uiso   1.00
H1322  H     0.76629   0.57356   0.68780   0.00000  Uiso   1.00
H1323  H     0.98421   0.47698   0.78707   0.00000  Uiso   1.00
H1324  H     0.73490   0.58050   0.65553   0.00000  Uiso   1.00
H1325  H     0.71950   0.65060   0.69160   0.00000  Uiso   1.00
H1326  H     0.77709   0.64703   0.67366   0.00000  Uiso   1.00
H1327  H     0.74962   0.64351   0.72511   0.00000  Uiso   1.00
H1328  H     0.73671   0.36239   0.79193   0.00000  Uiso   1.00
H1329  H     0.76482   0.38464   0.82914   0.00000  Uiso   1.00
H1330  H     0.72706   0.33873   0.83639   0.00000  Uiso   1.00
H1331  H     0.93186   0.45168   0.64719   0.00000  Uiso   1.00
H1332  H     0.95642   0.47529   0.60155   0.00000  Uiso   1.00
H1333  H     0.97391   0.42841   0.60943   0.00000  Uiso   1.00
H1334  H     0.87078   0.33529   0.71453   0.00000  Uiso   1.00
H1335  H     0.75229   0.44541   0.57796   0.00000  Uiso   1.00
H1336  H     0.70810   0.47068   0.57257   0.00000  Uiso   1.00
H1337  H     0.71700   0.47193   0.62000   0.00000  Uiso   1.00
H1338  H     0.82312   0.51259   0.59953   0.00000  Uiso   1.00
H1339  H     0.90635   0.41979   0.96271   0.00000  Uiso   1.00
H1340  H     0.72536   0.56780   0.97897   0.00000  Uiso   1.00
H1341  H     0.74737   0.56355   0.90706   0.00000  Uiso   1.00
H1342  H     0.85069   0.49344   0.90133   0.00000  Uiso   1.00
H1343  H     0.86840   0.45055   0.92904   0.00000  Uiso   1.00
O1344  O     0.83333   0.50000   0.75000   0.00000  Uiso   1.00
O1345  O     0.82360   0.45726   0.66625   0.00000  Uiso   1.00
O1346  O     0.79354   0.53979   0.83749   0.00000  Uiso   1.00
O1347  O     0.87755   0.50826   0.65877   0.00000  Uiso   1.00
O1348  O     0.83865   0.49468   0.83749   0.00000  Uiso   1.00
O1349  O     0.93234   0.40674   0.51836   0.00000  Uiso   1.00
O1350  O     0.69082   0.52684   0.70556   0.00000  Uiso   1.00
O1351  O     0.78566   0.66294   0.79603   0.00000  Uiso   1.00
O1352  O     0.91415   0.41900   0.59911   0.00000  Uiso   1.00
O1353  O     0.76100   0.51050   0.58308   0.00000  Uiso   1.00
O1354  O     0.84515   0.41434   0.77820   0.00000  Uiso   1.00
O1355  O     0.81247   0.59469   0.76767   0.00000  Uiso   1.00
O1356  O     0.74119   0.46584   0.73607   0.00000  Uiso   1.00
O1357  O     0.93452   0.52512   0.71805   0.00000  Uiso   1.00
O1358  O     0.73656   0.52293   0.77820   0.00000  Uiso   1.00
O1359  O     0.92106   0.48610   0.76767   0.00000  Uiso   1.00
O1360  O     0.80467   0.40236   0.73607   0.00000  Uiso   1.00
O1361  O     0.87104   0.58860   0.71805   0.00000  Uiso   1.00
Zn1362 Zn    0.85910   0.47423   0.78277   0.00000  Uiso   1.00
Zn1363 Zn    0.80125   0.45711   0.72257   0.00000  Uiso   1.00
Zn1364 Zn    0.87833   0.52997   0.71188   0.00000  Uiso   1.00
Zn1365 Zn    0.79465   0.53868   0.78277   0.00000  Uiso   1.00
C1366  C     0.05237   0.82632   0.75926   0.00000  Uiso   1.00
C1367  C     0.19462   0.79296   0.96031   0.00000  Uiso   1.00
C1368  C     0.21659   0.77429   0.97989   0.00000  Uiso   1.00
C1369  C     0.28110   0.84025   0.74112   0.00000  Uiso   1.00
C1370  C     0.21007   0.78355   0.52043   0.00000  Uiso   1.00
C1371  C     0.17835   0.81027   0.54221   0.00000  Uiso   1.00
C1372  C     0.23513   0.76649   0.53945   0.00000  Uiso   1.00
C1373  C     0.22776   0.77472   0.58038   0.00000  Uiso   1.00
C1374  C     0.17536   0.82166   0.58236   0.00000  Uiso   1.00
C1375  C     0.32742   0.84266   0.73707   0.00000  Uiso   1.00
C1376  C     0.00705   0.82473   0.76244   0.00000  Uiso   1.00
C1377  C     0.09858   0.88201   0.92155   0.00000  Uiso   1.00
C1378  C     0.17874   0.98860   0.73838   0.00000  Uiso   1.00
C1379  C     0.15011   0.67917   0.76381   0.00000  Uiso   1.00
C1380  C     0.15642   0.72292   0.75853   0.00000  Uiso   1.00
C1381  C     0.17652   0.94434   0.74149   0.00000  Uiso   1.00
C1382  C     0.18833   0.81185   0.64409   0.00000  Uiso   1.00
C1383  C     0.14530   0.85434   0.85624   0.00000  Uiso   1.00
C1384  C     0.13347   0.86014   0.89960   0.00000  Uiso   1.00
C1385  C     0.19784   0.80272   0.60155   0.00000  Uiso   1.00
C1386  C     0.08591   0.88421   0.96254   0.00000  Uiso   1.00
C1387  C     0.30627   0.76413   0.50645   0.00000  Uiso   1.00
C1388  C     0.15588   0.84116   0.91915   0.00000  Uiso   1.00
C1389  C     0.00691   0.73560   0.98234   0.00000  Uiso   1.00
C1390  C     0.05180   0.75985   0.96992   0.00000  Uiso   1.00
C1391  C     0.03036   0.90372   0.71522   0.00000  Uiso   1.00
C1392  C     0.07146   0.92144   0.68599   0.00000  Uiso   1.00
C1393  C     0.07983   0.96860   0.69472   0.00000  Uiso   1.00
C1394  C     0.08570   0.68879   0.81381   0.00000  Uiso   1.00
C1395  C     0.27845   0.77861   0.61479   0.00000  Uiso   1.00
C1396  C     0.06689   0.80616   0.58813   0.00000  Uiso   1.00
C1397  C     0.14261   0.84146   0.96046   0.00000  Uiso   1.00
C1398  C     0.10751   0.86403   0.98209   0.00000  Uiso   1.00
C1399  C     0.16358   0.82045   0.98073   0.00000  Uiso   1.00
C1400  C     0.15212   0.82595   0.52274   0.00000  Uiso   1.00
C1401  C     0.11393   0.84546   0.54329   0.00000  Uiso   1.00
C1402  C     0.09328   0.86519   0.52292   0.00000  Uiso   1.00
H1403  H     0.06498   0.88063   0.53938   0.00000  Uiso   1.00
H1404  H     0.31666   0.77984   0.53252   0.00000  Uiso   1.00
H1405  H     0.30478   0.78820   0.98783   0.00000  Uiso   1.00
H1406  H     0.00815   0.71086   0.50022   0.00000  Uiso   1.00
H1407  H     0.33097   0.72050   0.95557   0.00000  Uiso   1.00
H1408  H     0.05143   0.78483   0.95198   0.00000  Uiso   1.00
H1409  H     0.07559   0.73844   0.95194   0.00000  Uiso   1.00
H1410  H     0.06232   0.77396   0.99630   0.00000  Uiso   1.00
H1411  H     0.03437   0.91195   0.74551   0.00000  Uiso   1.00
H1412  H     0.00222   0.91820   0.71321   0.00000  Uiso   1.00
H1413  H     0.09962   0.90689   0.68780   0.00000  Uiso   1.00
H1414  H     0.31754   0.81032   0.78707   0.00000  Uiso   1.00
H1415  H     0.06823   0.91384   0.65553   0.00000  Uiso   1.00
H1416  H     0.05284   0.98394   0.69160   0.00000  Uiso   1.00
H1417  H     0.11042   0.98036   0.67366   0.00000  Uiso   1.00
H1418  H     0.08295   0.97684   0.72511   0.00000  Uiso   1.00
H1419  H     0.07005   0.69573   0.79193   0.00000  Uiso   1.00
H1420  H     0.09815   0.71797   0.82914   0.00000  Uiso   1.00
H1421  H     0.06039   0.67206   0.83639   0.00000  Uiso   1.00
H1422  H     0.26520   0.78502   0.64719   0.00000  Uiso   1.00
H1423  H     0.28975   0.80862   0.60155   0.00000  Uiso   1.00
H1424  H     0.30725   0.76174   0.60943   0.00000  Uiso   1.00
H1425  H     0.20412   0.66862   0.71453   0.00000  Uiso   1.00
H1426  H     0.08563   0.77874   0.57796   0.00000  Uiso   1.00
H1427  H     0.04144   0.80402   0.57257   0.00000  Uiso   1.00
H1428  H     0.05033   0.80526   0.62000   0.00000  Uiso   1.00
H1429  H     0.15645   0.84593   0.59953   0.00000  Uiso   1.00
H1430  H     0.23968   0.75313   0.96271   0.00000  Uiso   1.00
H1431  H     0.05869   0.90113   0.97897   0.00000  Uiso   1.00
H1432  H     0.08070   0.89689   0.90706   0.00000  Uiso   1.00
H1433  H     0.18403   0.82677   0.90133   0.00000  Uiso   1.00
H1434  H     0.20173   0.78388   0.92904   0.00000  Uiso   1.00
O1435  O     0.16667   0.83333   0.75000   0.00000  Uiso   1.00
O1436  O     0.15693   0.79060   0.66625   0.00000  Uiso   1.00
O1437  O     0.12687   0.87313   0.83749   0.00000  Uiso   1.00
O1438  O     0.21088   0.84159   0.65877   0.00000  Uiso   1.00
O1439  O     0.17198   0.82802   0.83749   0.00000  Uiso   1.00
O1440  O     0.26567   0.74008   0.51836   0.00000  Uiso   1.00
O1441  O     0.02416   0.86017   0.70556   0.00000  Uiso   1.00
O1442  O     0.11900   0.99627   0.79603   0.00000  Uiso   1.00
O1443  O     0.24749   0.75233   0.59911   0.00000  Uiso   1.00
O1444  O     0.09433   0.84383   0.58308   0.00000  Uiso   1.00
O1445  O     0.17849   0.74768   0.77820   0.00000  Uiso   1.00
O1446  O     0.14581   0.92803   0.76767   0.00000  Uiso   1.00
O1447  O     0.07452   0.79917   0.73607   0.00000  Uiso   1.00
O1448  O     0.26785   0.85845   0.71805   0.00000  Uiso   1.00
O1449  O     0.06990   0.85627   0.77820   0.00000  Uiso   1.00
O1450  O     0.25440   0.81944   0.76767   0.00000  Uiso   1.00
O1451  O     0.13800   0.73570   0.73607   0.00000  Uiso   1.00
O1452  O     0.20437   0.92193   0.71805   0.00000  Uiso   1.00
Zn1453 Zn    0.19244   0.80756   0.78277   0.00000  Uiso   1.00
Zn1454 Zn    0.13459   0.79044   0.72257   0.00000  Uiso   1.00
Zn1455 Zn    0.21166   0.86331   0.71188   0.00000  Uiso   1.00
Zn1456 Zn    0.12798   0.87202   0.78277   0.00000  Uiso   1.00
C1457  C     0.38570   0.82632   0.75926   0.00000  Uiso   1.00
C1458  C     0.52796   0.79296   0.96031   0.00000  Uiso   1.00
C1459  C     0.54993   0.77429   0.97989   0.00000  Uiso   1.00
C1460  C     0.61444   0.84025   0.74112   0.00000  Uiso   1.00
C1461  C     0.54341   0.78355   0.52043   0.00000  Uiso   1.00
C1462  C     0.51168   0.81027   0.54221   0.00000  Uiso   1.00
C1463  C     0.56846   0.76649   0.53945   0.00000  Uiso   1.00
C1464  C     0.56109   0.77472   0.58038   0.00000  Uiso   1.00
C1465  C     0.50870   0.82166   0.58236   0.00000  Uiso   1.00
C1466  C     0.66075   0.84266   0.73707   0.00000  Uiso   1.00
C1467  C     0.34039   0.82473   0.76244   0.00000  Uiso   1.00
C1468  C     0.43192   0.88201   0.92155   0.00000  Uiso   1.00
C1469  C     0.51208   0.98860   0.73838   0.00000  Uiso   1.00
C1470  C     0.48344   0.67917   0.76381   0.00000  Uiso   1.00
C1471  C     0.48975   0.72292   0.75853   0.00000  Uiso   1.00
C1472  C     0.50985   0.94434   0.74149   0.00000  Uiso   1.00
C1473  C     0.52167   0.81185   0.64409   0.00000  Uiso   1.00
C1474  C     0.47863   0.85434   0.85624   0.00000  Uiso   1.00
C1475  C     0.46680   0.86014   0.89960   0.00000  Uiso   1.00
C1476  C     0.53117   0.80272   0.60155   0.00000  Uiso   1.00
C1477  C     0.41924   0.88421   0.96254   0.00000  Uiso   1.00
C1478  C     0.63961   0.76413   0.50645   0.00000  Uiso   1.00
C1479  C     0.48922   0.84116   0.91915   0.00000  Uiso   1.00
C1480  C     0.34025   0.73560   0.98234   0.00000  Uiso   1.00
C1481  C     0.38513   0.75985   0.96992   0.00000  Uiso   1.00
C1482  C     0.36369   0.90372   0.71522   0.00000  Uiso   1.00
C1483  C     0.40479   0.92144   0.68599   0.00000  Uiso   1.00
C1484  C     0.41316   0.96860   0.69472   0.00000  Uiso   1.00
C1485  C     0.41903   0.68879   0.81381   0.00000  Uiso   1.00
C1486  C     0.61178   0.77861   0.61479   0.00000  Uiso   1.00
C1487  C     0.40022   0.80616   0.58813   0.00000  Uiso   1.00
C1488  C     0.47595   0.84146   0.96046   0.00000  Uiso   1.00
C1489  C     0.44084   0.86403   0.98209   0.00000  Uiso   1.00
C1490  C     0.49691   0.82045   0.98073   0.00000  Uiso   1.00
C1491  C     0.48545   0.82595   0.52274   0.00000  Uiso   1.00
C1492  C     0.44727   0.84546   0.54329   0.00000  Uiso   1.00
C1493  C     0.42662   0.86519   0.52292   0.00000  Uiso   1.00
H1494  H     0.39832   0.88063   0.53938   0.00000  Uiso   1.00
H1495  H     0.64999   0.77984   0.53252   0.00000  Uiso   1.00
H1496  H     0.63811   0.78820   0.98783   0.00000  Uiso   1.00
H1497  H     0.34149   0.71086   0.50022   0.00000  Uiso   1.00
H1498  H     0.66430   0.72050   0.95557   0.00000  Uiso   1.00
H1499  H     0.38476   0.78483   0.95198   0.00000  Uiso   1.00
H1500  H     0.40892   0.73844   0.95194   0.00000  Uiso   1.00
H1501  H     0.39565   0.77396   0.99630   0.00000  Uiso   1.00
H1502  H     0.36770   0.91195   0.74551   0.00000  Uiso   1.00
H1503  H     0.33555   0.91820   0.71321   0.00000  Uiso   1.00
H1504  H     0.43295   0.90689   0.68780   0.00000  Uiso   1.00
H1505  H     0.65088   0.81032   0.78707   0.00000  Uiso   1.00
H1506  H     0.40157   0.91384   0.65553   0.00000  Uiso   1.00
H1507  H     0.38617   0.98394   0.69160   0.00000  Uiso   1.00
H1508  H     0.44376   0.98036   0.67366   0.00000  Uiso   1.00
H1509  H     0.41628   0.97684   0.72511   0.00000  Uiso   1.00
H1510  H     0.40338   0.69573   0.79193   0.00000  Uiso   1.00
H1511  H     0.43149   0.71797   0.82914   0.00000  Uiso   1.00
H1512  H     0.39373   0.67206   0.83639   0.00000  Uiso   1.00
H1513  H     0.59853   0.78502   0.64719   0.00000  Uiso   1.00
H1514  H     0.62309   0.80862   0.60155   0.00000  Uiso   1.00
H1515  H     0.64058   0.76174   0.60943   0.00000  Uiso   1.00
H1516  H     0.53745   0.66862   0.71453   0.00000  Uiso   1.00
H1517  H     0.41896   0.77874   0.57796   0.00000  Uiso   1.00
H1518  H     0.37477   0.80402   0.57257   0.00000  Uiso   1.00
H1519  H     0.38366   0.80526   0.62000   0.00000  Uiso   1.00
H1520  H     0.48978   0.84593   0.59953   0.00000  Uiso   1.00
H1521  H     0.57301   0.75313   0.96271   0.00000  Uiso   1.00
H1522  H     0.39202   0.90113   0.97897   0.00000  Uiso   1.00
H1523  H     0.41404   0.89689   0.90706   0.00000  Uiso   1.00
H1524  H     0.51736   0.82677   0.90133   0.00000  Uiso   1.00
H1525  H     0.53507   0.78388   0.92904   0.00000  Uiso   1.00
O1526  O     0.50000   0.83333   0.75000   0.00000  Uiso   1.00
O1527  O     0.49027   0.79060   0.66625   0.00000  Uiso   1.00
O1528  O     0.46020   0.87313   0.83749   0.00000  Uiso   1.00
O1529  O     0.54421   0.84159   0.65877   0.00000  Uiso   1.00
O1530  O     0.50532   0.82802   0.83749   0.00000  Uiso   1.00
O1531  O     0.59900   0.74008   0.51836   0.00000  Uiso   1.00
O1532  O     0.35749   0.86017   0.70556   0.00000  Uiso   1.00
O1533  O     0.45233   0.99627   0.79603   0.00000  Uiso   1.00
O1534  O     0.58082   0.75233   0.59911   0.00000  Uiso   1.00
O1535  O     0.42766   0.84383   0.58308   0.00000  Uiso   1.00
O1536  O     0.51182   0.74768   0.77820   0.00000  Uiso   1.00
O1537  O     0.47914   0.92803   0.76767   0.00000  Uiso   1.00
O1538  O     0.40785   0.79917   0.73607   0.00000  Uiso   1.00
O1539  O     0.60119   0.85845   0.71805   0.00000  Uiso   1.00
O1540  O     0.40323   0.85627   0.77820   0.00000  Uiso   1.00
O1541  O     0.58773   0.81944   0.76767   0.00000  Uiso   1.00
O1542  O     0.47133   0.73570   0.73607   0.00000  Uiso   1.00
O1543  O     0.53771   0.92193   0.71805   0.00000  Uiso   1.00
Zn1544 Zn    0.52577   0.80756   0.78277   0.00000  Uiso   1.00
Zn1545 Zn    0.46792   0.79044   0.72257   0.00000  Uiso   1.00
Zn1546 Zn    0.54500   0.86331   0.71188   0.00000  Uiso   1.00
Zn1547 Zn    0.46131   0.87202   0.78277   0.00000  Uiso   1.00
C1548  C     0.71904   0.82632   0.75926   0.00000  Uiso   1.00
C1549  C     0.86129   0.79296   0.96031   0.00000  Uiso   1.00
C1550  C     0.88326   0.77429   0.97989   0.00000  Uiso   1.00
C1551  C     0.94777   0.84025   0.74112   0.00000  Uiso   1.00
C1552  C     0.87674   0.78355   0.52043   0.00000  Uiso   1.00
C1553  C     0.84501   0.81027   0.54221   0.00000  Uiso   1.00
C1554  C     0.90179   0.76649   0.53945   0.00000  Uiso   1.00
C1555  C     0.89443   0.77472   0.58038   0.00000  Uiso   1.00
C1556  C     0.84203   0.82166   0.58236   0.00000  Uiso   1.00
C1557  C     0.99408   0.84266   0.73707   0.00000  Uiso   1.00
C1558  C     0.67372   0.82473   0.76244   0.00000  Uiso   1.00
C1559  C     0.76525   0.88201   0.92155   0.00000  Uiso   1.00
C1560  C     0.84541   0.98860   0.73838   0.00000  Uiso   1.00
C1561  C     0.81677   0.67917   0.76381   0.00000  Uiso   1.00
C1562  C     0.82308   0.72292   0.75853   0.00000  Uiso   1.00
C1563  C     0.84319   0.94434   0.74149   0.00000  Uiso   1.00
C1564  C     0.85500   0.81185   0.64409   0.00000  Uiso   1.00
C1565  C     0.81196   0.85434   0.85624   0.00000  Uiso   1.00
C1566  C     0.80013   0.86014   0.89960   0.00000  Uiso   1.00
C1567  C     0.86451   0.80272   0.60155   0.00000  Uiso   1.00
C1568  C     0.75258   0.88421   0.96254   0.00000  Uiso   1.00
C1569  C     0.97294   0.76413   0.50645   0.00000  Uiso   1.00
C1570  C     0.82255   0.84116   0.91915   0.00000  Uiso   1.00
C1571  C     0.67358   0.73560   0.98234   0.00000  Uiso   1.00
C1572  C     0.71846   0.75985   0.96992   0.00000  Uiso   1.00
C1573  C     0.69702   0.90372   0.71522   0.00000  Uiso   1.00
C1574  C     0.73813   0.92144   0.68599   0.00000  Uiso   1.00
C1575  C     0.74650   0.96860   0.69472   0.00000  Uiso   1.00
C1576  C     0.75236   0.68879   0.81381   0.00000  Uiso   1.00
C1577  C     0.94511   0.77861   0.61479   0.00000  Uiso   1.00
C1578  C     0.73355   0.80616   0.58813   0.00000  Uiso   1.00
C1579  C     0.80928   0.84146   0.96046   0.00000  Uiso   1.00
C1580  C     0.77417   0.86403   0.98209   0.00000  Uiso   1.00
C1581  C     0.83025   0.82045   0.98073   0.00000  Uiso   1.00
C1582  C     0.81878   0.82595   0.52274   0.00000  Uiso   1.00
C1583  C     0.78060   0.84546   0.54329   0.00000  Uiso   1.00
C1584  C     0.75995   0.86519   0.52292   0.00000  Uiso   1.00
H1585  H     0.73165   0.88063   0.53938   0.00000  Uiso   1.00
H1586  H     0.98332   0.77984   0.53252   0.00000  Uiso   1.00
H1587  H     0.97144   0.78820   0.98783   0.00000  Uiso   1.00
H1588  H     0.67482   0.71086   0.50022   0.00000  Uiso   1.00
H1589  H     0.99764   0.72050   0.95557   0.00000  Uiso   1.00
H1590  H     0.71809   0.78483   0.95198   0.00000  Uiso   1.00
H1591  H     0.74225   0.73844   0.95194   0.00000  Uiso   1.00
H1592  H     0.72899   0.77396   0.99630   0.00000  Uiso   1.00
H1593  H     0.70103   0.91195   0.74551   0.00000  Uiso   1.00
H1594  H     0.66888   0.91820   0.71321   0.00000  Uiso   1.00
H1595  H     0.76629   0.90689   0.68780   0.00000  Uiso   1.00
H1596  H     0.98421   0.81032   0.78707   0.00000  Uiso   1.00
H1597  H     0.73490   0.91384   0.65553   0.00000  Uiso   1.00
H1598  H     0.71950   0.98394   0.69160   0.00000  Uiso   1.00
H1599  H     0.77709   0.98036   0.67366   0.00000  Uiso   1.00
H1600  H     0.74962   0.97684   0.72511   0.00000  Uiso   1.00
H1601  H     0.73671   0.69573   0.79193   0.00000  Uiso   1.00
H1602  H     0.76482   0.71797   0.82914   0.00000  Uiso   1.00
H1603  H     0.72706   0.67206   0.83639   0.00000  Uiso   1.00
H1604  H     0.93186   0.78502   0.64719   0.00000  Uiso   1.00
H1605  H     0.95642   0.80862   0.60155   0.00000  Uiso   1.00
H1606  H     0.97391   0.76174   0.60943   0.00000  Uiso   1.00
H1607  H     0.87078   0.66862   0.71453   0.00000  Uiso   1.00
H1608  H     0.75229   0.77874   0.57796   0.00000  Uiso   1.00
H1609  H     0.70810   0.80402   0.57257   0.00000  Uiso   1.00
H1610  H     0.71700   0.80526   0.62000   0.00000  Uiso   1.00
H1611  H     0.82312   0.84593   0.59953   0.00000  Uiso   1.00
H1612  H     0.90635   0.75313   0.96271   0.00000  Uiso   1.00
H1613  H     0.72536   0.90113   0.97897   0.00000  Uiso   1.00
H1614  H     0.74737   0.89689   0.90706   0.00000  Uiso   1.00
H1615  H     0.85069   0.82677   0.90133   0.00000  Uiso   1.00
H1616  H     0.86840   0.78388   0.92904   0.00000  Uiso   1.00
O1617  O     0.83333   0.83333   0.75000   0.00000  Uiso   1.00
O1618  O     0.82360   0.79060   0.66625   0.00000  Uiso   1.00
O1619  O     0.79354   0.87313   0.83749   0.00000  Uiso   1.00
O1620  O     0.87755   0.84159   0.65877   0.00000  Uiso   1.00
O1621  O     0.83865   0.82802   0.83749   0.00000  Uiso   1.00
O1622  O     0.93234   0.74008   0.51836   0.00000  Uiso   1.00
O1623  O     0.69082   0.86017   0.70556   0.00000  Uiso   1.00
O1624  O     0.78566   0.99627   0.79603   0.00000  Uiso   1.00
O1625  O     0.91415   0.75233   0.59911   0.00000  Uiso   1.00
O1626  O     0.76100   0.84383   0.58308   0.00000  Uiso   1.00
O1627  O     0.84515   0.74768   0.77820   0.00000  Uiso   1.00
O1628  O     0.81247   0.92803   0.76767   0.00000  Uiso   1.00
O1629  O     0.74119   0.79917   0.73607   0.00000  Uiso   1.00
O1630  O     0.93452   0.85845   0.71805   0.00000  Uiso   1.00
O1631  O     0.73656   0.85627   0.77820   0.00000  Uiso   1.00
O1632  O     0.92106   0.81944   0.76767   0.00000  Uiso   1.00
O1633  O     0.80467   0.73570   0.73607   0.00000  Uiso   1.00
O1634  O     0.87104   0.92193   0.71805   0.00000  Uiso   1.00
Zn1635 Zn    0.85910   0.80756   0.78277   0.00000  Uiso   1.00
Zn1636 Zn    0.80125   0.79044   0.72257   0.00000  Uiso   1.00
Zn1637 Zn    0.87833   0.86331   0.71188   0.00000  Uiso   1.00
Zn1638 Zn    0.79465   0.87202   0.78277   0.00000  Uiso   1.00
loop_
_geom_bond_atom_site_label_1
_geom_bond_atom_site_label_2
_geom_bond_distance
_geom_bond_site_symmetry_2
_ccdc_geom_bond_type
C1     C11     1.436   .     S
C1     O84     1.268   .     A
C1     O82     1.269   .     A
C2     H69     1.077   .     S
C2     C34     1.413   .     A
C2     C3      1.384   .     A
C3     H65     1.083   .     S
C3     C824    1.394   .     S
C4     O85     1.282   .     A
C4     C10     1.460   .     S
C4     O83     1.282   .     A
C5     C6      1.422   .     A
C5     C7      1.415   .     A
C5     C822    1.394   1_554 S
C6     C9      1.406   .     A
C6     C35     1.432   .     A
C7     C8      1.401   .     A
C7     O75     1.385   .     S
C8     C20     1.407   .     A
C8     O78     1.387   .     S
C9     H64     1.077   .     S
C9     C20     1.391   .     A
C10    C102    1.339   .     S
C10    O167    1.387   .     S
C11    C192    1.339   1_455 S
C11    H231    1.086   1_455 S
C12    H67     1.083   .     S
C12    C21     1.393   .     A
C12    C19     1.400   .     A
C13    C16     1.455   .     S
C13    C287    1.345   .     S
C13    H333    1.088   .     S
C14    C15     1.445   .     S
C14    C559    1.345   1_545 S
C14    O623    1.401   1_545 S
C15    O80     1.273   .     A
C15    O86     1.276   .     A
C16    O87     1.274   .     A
C16    O81     1.262   .     A
C17    O73     1.274   .     A
C17    C20     1.453   .     S
C17    O71     1.275   .     A
C18    C19     1.472   .     S
C18    O74     1.284   .     A
C18    O72     1.283   .     A
C19    C23     1.399   .     A
C21    H66     1.084   .     S
C21    C33     1.404   .     A
C22    O75     1.414   .     S
C22    H39     1.113   .     S
C22    C934    1.528   1_554 S
C22    H859    1.115   1_554 S
C23    H68     1.076   .     S
C23    C32     1.409   .     A
C24    C25     1.527   .     S
C24    C1023   1.528   1_455 S
C24    H860    1.112   .     S
C24    H224    1.112   1_455 S
C25    H43     1.111   .     S
C25    H44     1.110   .     S
C25    H45     1.111   .     S
C26    C27     1.528   .     S
C26    O76     1.412   .     S
C26    H47     1.113   .     S
C26    H46     1.117   .     S
C27    H48     1.112   .     S
C27    H50     1.112   .     S
C27    C28     1.526   .     S
C28    H51     1.111   .     S
C28    H53     1.110   .     S
C28    H52     1.110   .     S
C29    H54     1.113   .     S
C29    H55     1.112   .     S
C29    H56     1.109   .     S
C29    O623    1.412   1_545 S
C30    H57     1.109   .     S
C30    H59     1.109   .     S
C30    H58     1.116   .     S
C30    O78     1.414   .     S
C31    H61     1.113   .     S
C31    H62     1.113   .     S
C31    H63     1.109   .     S
C31    O79     1.410   .     S
C32    C33     1.415   .     A
C32    C34     1.425   .     A
C33    C856    1.390   .     S
C34    C854    1.426   .     S
C35    C36     1.429   .     A
C35    C853    1.426   1_554 S
C36    C37     1.394   .     A
C36    O79     1.381   .     S
C37    H38     1.085   .     S
C37    C852    1.390   1_554 S
H40    C841    1.115   .     S
H41    C843    1.112   1_554 S
H42    C115    1.112   .     S
H49    C102    1.086   .     S
H60    C559    1.088   1_545 S
O70    Zn88    1.961   .     S
O70    Zn91    1.927   .     S
O70    Zn90    1.935   .     S
O70    Zn89    1.944   .     S
O71    Zn89    1.928   .     S
O72    Zn91    1.939   .     S
O73    Zn90    1.932   .     S
O74    Zn88    1.921   .     S
O76    C192    1.387   1_455 S
O77    C287    1.401   .     S
O77    C302    1.412   .     S
O80    Zn88    1.935   .     S
O81    Zn91    1.940   .     S
O82    Zn89    1.921   .     S
O83    Zn90    1.933   .     S
O84    Zn91    1.929   .     S
O85    Zn88    1.920   .     S
O86    Zn89    1.944   .     S
O87    Zn90    1.936   .     S
C92    C102    1.436   .     S
C92    O175    1.268   .     A
C92    O173    1.269   .     A
C93    H160    1.077   .     S
C93    C125    1.413   .     A
C93    C94     1.384   .     A
C94    H156    1.083   .     S
C94    C915    1.394   .     S
C95    O176    1.282   .     A
C95    C101    1.460   .     S
C95    O174    1.282   .     A
C96    C97     1.422   .     A
C96    C98     1.415   .     A
C96    C913    1.394   1_554 S
C97    C100    1.406   .     A
C97    C126    1.432   .     A
C98    C99     1.401   .     A
C98    O166    1.385   .     S
C99    C111    1.407   .     A
C99    O169    1.387   .     S
C100   H155    1.077   .     S
C100   C111    1.391   .     A
C101   C193    1.339   .     S
C101   O258    1.387   .     S
C103   H158    1.083   .     S
C103   C112    1.393   .     A
C103   C110    1.400   .     A
C104   C107    1.455   .     S
C104   C378    1.345   .     S
C104   H424    1.088   .     S
C105   C106    1.445   .     S
C105   C650    1.345   1_545 S
C105   O714    1.401   1_545 S
C106   O171    1.273   .     A
C106   O177    1.276   .     A
C107   O178    1.274   .     A
C107   O172    1.262   .     A
C108   O164    1.274   .     A
C108   C111    1.453   .     S
C108   O162    1.275   .     A
C109   C110    1.472   .     S
C109   O165    1.284   .     A
C109   O163    1.283   .     A
C110   C114    1.399   .     A
C112   H157    1.084   .     S
C112   C124    1.404   .     A
C113   O166    1.414   .     S
C113   H130    1.113   .     S
C113   C1025   1.528   1_554 S
C113   H950    1.115   1_554 S
C114   H159    1.076   .     S
C114   C123    1.409   .     A
C115   C116    1.527   .     S
C115   C841    1.528   .     S
C115   H951    1.112   .     S
C116   H134    1.111   .     S
C116   H135    1.110   .     S
C116   H136    1.111   .     S
C117   C118    1.528   .     S
C117   O167    1.412   .     S
C117   H138    1.113   .     S
C117   H137    1.117   .     S
C118   H139    1.112   .     S
C118   H141    1.112   .     S
C118   C119    1.526   .     S
C119   H142    1.111   .     S
C119   H144    1.110   .     S
C119   H143    1.110   .     S
C120   H145    1.113   .     S
C120   H146    1.112   .     S
C120   H147    1.109   .     S
C120   O714    1.412   1_545 S
C121   H148    1.109   .     S
C121   H150    1.109   .     S
C121   H149    1.116   .     S
C121   O169    1.414   .     S
C122   H152    1.113   .     S
C122   H153    1.113   .     S
C122   H154    1.109   .     S
C122   O170    1.410   .     S
C123   C124    1.415   .     A
C123   C125    1.425   .     A
C124   C947    1.390   .     S
C125   C945    1.426   .     S
C126   C127    1.429   .     A
C126   C944    1.426   1_554 S
C127   C128    1.394   .     A
C127   O170    1.381   .     S
C128   H129    1.085   .     S
C128   C943    1.390   1_554 S
H131   C932    1.115   .     S
H132   C934    1.112   1_554 S
H133   C206    1.112   .     S
H140   C193    1.086   .     S
H151   C650    1.088   1_545 S
O161   Zn179   1.961   .     S
O161   Zn182   1.927   .     S
O161   Zn181   1.935   .     S
O161   Zn180   1.944   .     S
O162   Zn180   1.928   .     S
O163   Zn182   1.939   .     S
O164   Zn181   1.932   .     S
O165   Zn179   1.921   .     S
O168   C378    1.401   .     S
O168   C393    1.412   .     S
O171   Zn179   1.935   .     S
O172   Zn182   1.940   .     S
O173   Zn180   1.921   .     S
O174   Zn181   1.933   .     S
O175   Zn182   1.929   .     S
O176   Zn179   1.920   .     S
O177   Zn180   1.944   .     S
O178   Zn181   1.936   .     S
C183   C193    1.436   .     S
C183   O266    1.268   .     A
C183   O264    1.269   .     A
C184   H251    1.077   .     S
C184   C216    1.413   .     A
C184   C185    1.384   .     A
C185   H247    1.083   .     S
C185   C1006   1.394   .     S
C186   O267    1.282   .     A
C186   C192    1.460   .     S
C186   O265    1.282   .     A
C187   C188    1.422   .     A
C187   C189    1.415   .     A
C187   C1004   1.394   1_554 S
C188   C191    1.406   .     A
C188   C217    1.432   .     A
C189   C190    1.401   .     A
C189   O257    1.385   .     S
C190   C202    1.407   .     A
C190   O260    1.387   .     S
C191   H246    1.077   .     S
C191   C202    1.391   .     A
C192   C11     1.339   1_655 S
C192   O76     1.387   1_655 S
C194   H249    1.083   .     S
C194   C203    1.393   .     A
C194   C201    1.400   .     A
C195   C198    1.455   .     S
C195   C469    1.345   .     S
C195   H515    1.088   .     S
C196   C197    1.445   .     S
C196   C741    1.345   1_545 S
C196   O805    1.401   1_545 S
C197   O262    1.273   .     A
C197   O268    1.276   .     A
C198   O269    1.274   .     A
C198   O263    1.262   .     A
C199   O255    1.274   .     A
C199   C202    1.453   .     S
C199   O253    1.275   .     A
C200   C201    1.472   .     S
C200   O256    1.284   .     A
C200   O254    1.283   .     A
C201   C205    1.399   .     A
C203   H248    1.084   .     S
C203   C215    1.404   .     A
C204   O257    1.414   .     S
C204   H221    1.113   .     S
C204   C843    1.528   1_654 S
C204   H1041   1.115   1_554 S
C205   H250    1.076   .     S
C205   C214    1.409   .     A
C206   C207    1.527   .     S
C206   C932    1.528   .     S
C206   H1042   1.112   .     S
C207   H225    1.111   .     S
C207   H226    1.110   .     S
C207   H227    1.111   .     S
C208   C209    1.528   .     S
C208   O258    1.412   .     S
C208   H229    1.113   .     S
C208   H228    1.117   .     S
C209   H230    1.112   .     S
C209   H232    1.112   .     S
C209   C210    1.526   .     S
C210   H233    1.111   .     S
C210   H235    1.110   .     S
C210   H234    1.110   .     S
C211   H236    1.113   .     S
C211   H237    1.112   .     S
C211   H238    1.109   .     S
C211   O805    1.412   1_545 S
C212   H239    1.109   .     S
C212   H241    1.109   .     S
C212   H240    1.116   .     S
C212   O260    1.414   .     S
C213   H243    1.113   .     S
C213   H244    1.113   .     S
C213   H245    1.109   .     S
C213   O261    1.410   .     S
C214   C215    1.415   .     A
C214   C216    1.425   .     A
C215   C1038   1.390   .     S
C216   C1036   1.426   .     S
C217   C218    1.429   .     A
C217   C1035   1.426   1_554 S
C218   C219    1.394   .     A
C218   O261    1.381   .     S
C219   H220    1.085   .     S
C219   C1034   1.390   1_554 S
H222   C1023   1.115   .     S
H223   C1025   1.112   1_554 S
H224   C24     1.112   1_655 S
H231   C11     1.086   1_655 S
H242   C741    1.088   1_545 S
O252   Zn270   1.961   .     S
O252   Zn273   1.927   .     S
O252   Zn272   1.935   .     S
O252   Zn271   1.944   .     S
O253   Zn271   1.928   .     S
O254   Zn273   1.939   .     S
O255   Zn272   1.932   .     S
O256   Zn270   1.921   .     S
O259   C469    1.401   .     S
O259   C484    1.412   .     S
O262   Zn270   1.935   .     S
O263   Zn273   1.940   .     S
O264   Zn271   1.921   .     S
O265   Zn272   1.933   .     S
O266   Zn273   1.929   .     S
O267   Zn270   1.920   .     S
O268   Zn271   1.944   .     S
O269   Zn272   1.936   .     S
C274   C284    1.436   .     S
C274   O357    1.268   .     A
C274   O355    1.269   .     A
C275   H342    1.077   .     S
C275   C307    1.413   .     A
C275   C276    1.384   .     A
C276   H338    1.083   .     S
C276   C1097   1.394   .     S
C277   O358    1.282   .     A
C277   C283    1.460   .     S
C277   O356    1.282   .     A
C278   C279    1.422   .     A
C278   C280    1.415   .     A
C278   C1095   1.394   1_554 S
C279   C282    1.406   .     A
C279   C308    1.432   .     A
C280   C281    1.401   .     A
C280   O348    1.385   .     S
C281   C293    1.407   .     A
C281   O351    1.387   .     S
C282   H337    1.077   .     S
C282   C293    1.391   .     A
C283   C375    1.339   .     S
C283   O440    1.387   .     S
C284   C465    1.339   1_455 S
C284   H504    1.086   1_455 S
C285   H340    1.083   .     S
C285   C294    1.393   .     A
C285   C292    1.400   .     A
C286   C289    1.455   .     S
C286   C560    1.345   .     S
C286   H606    1.088   .     S
C287   C288    1.445   .     S
C288   O353    1.273   .     A
C288   O359    1.276   .     A
C289   O360    1.274   .     A
C289   O354    1.262   .     A
C290   O346    1.274   .     A
C290   C293    1.453   .     S
C290   O344    1.275   .     A
C291   C292    1.472   .     S
C291   O347    1.284   .     A
C291   O345    1.283   .     A
C292   C296    1.399   .     A
C294   H339    1.084   .     S
C294   C306    1.404   .     A
C295   O348    1.414   .     S
C295   H312    1.113   .     S
C295   C1207   1.528   1_554 S
C295   H1132   1.115   1_554 S
C296   H341    1.076   .     S
C296   C305    1.409   .     A
C297   C298    1.527   .     S
C297   C1296   1.528   1_455 S
C297   H1133   1.112   .     S
C297   H497    1.112   1_455 S
C298   H316    1.111   .     S
C298   H317    1.110   .     S
C298   H318    1.111   .     S
C299   C300    1.528   .     S
C299   O349    1.412   .     S
C299   H320    1.113   .     S
C299   H319    1.117   .     S
C300   H321    1.112   .     S
C300   H323    1.112   .     S
C300   C301    1.526   .     S
C301   H324    1.111   .     S
C301   H326    1.110   .     S
C301   H325    1.110   .     S
C302   H327    1.113   .     S
C302   H328    1.112   .     S
C302   H329    1.109   .     S
C303   H330    1.109   .     S
C303   H332    1.109   .     S
C303   H331    1.116   .     S
C303   O351    1.414   .     S
C304   H334    1.113   .     S
C304   H335    1.113   .     S
C304   H336    1.109   .     S
C304   O352    1.410   .     S
C305   C306    1.415   .     A
C305   C307    1.425   .     A
C306   C1129   1.390   .     S
C307   C1127   1.426   .     S
C308   C309    1.429   .     A
C308   C1126   1.426   1_554 S
C309   C310    1.394   .     A
C309   O352    1.381   .     S
C310   H311    1.085   .     S
C310   C1125   1.390   1_554 S
H313   C1114   1.115   .     S
H314   C1116   1.112   1_554 S
H315   C388    1.112   .     S
H322   C375    1.086   .     S
O343   Zn361   1.961   .     S
O343   Zn364   1.927   .     S
O343   Zn363   1.935   .     S
O343   Zn362   1.944   .     S
O344   Zn362   1.928   .     S
O345   Zn364   1.939   .     S
O346   Zn363   1.932   .     S
O347   Zn361   1.921   .     S
O349   C465    1.387   1_455 S
O350   C560    1.401   .     S
O350   C575    1.412   .     S
O353   Zn361   1.935   .     S
O354   Zn364   1.940   .     S
O355   Zn362   1.921   .     S
O356   Zn363   1.933   .     S
O357   Zn364   1.929   .     S
O358   Zn361   1.920   .     S
O359   Zn362   1.944   .     S
O360   Zn363   1.936   .     S
C365   C375    1.436   .     S
C365   O448    1.268   .     A
C365   O446    1.269   .     A
C366   H433    1.077   .     S
C366   C398    1.413   .     A
C366   C367    1.384   .     A
C367   H429    1.083   .     S
C367   C1188   1.394   .     S
C368   O449    1.282   .     A
C368   C374    1.460   .     S
C368   O447    1.282   .     A
C369   C370    1.422   .     A
C369   C371    1.415   .     A
C369   C1186   1.394   1_554 S
C370   C373    1.406   .     A
C370   C399    1.432   .     A
C371   C372    1.401   .     A
C371   O439    1.385   .     S
C372   C384    1.407   .     A
C372   O442    1.387   .     S
C373   H428    1.077   .     S
C373   C384    1.391   .     A
C374   C466    1.339   .     S
C374   O531    1.387   .     S
C376   H431    1.083   .     S
C376   C385    1.393   .     A
C376   C383    1.400   .     A
C377   C380    1.455   .     S
C377   C651    1.345   .     S
C377   H697    1.088   .     S
C378   C379    1.445   .     S
C379   O444    1.273   .     A
C379   O450    1.276   .     A
C380   O451    1.274   .     A
C380   O445    1.262   .     A
C381   O437    1.274   .     A
C381   C384    1.453   .     S
C381   O435    1.275   .     A
C382   C383    1.472   .     S
C382   O438    1.284   .     A
C382   O436    1.283   .     A
C383   C387    1.399   .     A
C385   H430    1.084   .     S
C385   C397    1.404   .     A
C386   O439    1.414   .     S
C386   H403    1.113   .     S
C386   C1298   1.528   1_554 S
C386   H1223   1.115   1_554 S
C387   H432    1.076   .     S
C387   C396    1.409   .     A
C388   C389    1.527   .     S
C388   C1114   1.528   .     S
C388   H1224   1.112   .     S
C389   H407    1.111   .     S
C389   H408    1.110   .     S
C389   H409    1.111   .     S
C390   C391    1.528   .     S
C390   O440    1.412   .     S
C390   H411    1.113   .     S
C390   H410    1.117   .     S
C391   H412    1.112   .     S
C391   H414    1.112   .     S
C391   C392    1.526   .     S
C392   H415    1.111   .     S
C392   H417    1.110   .     S
C392   H416    1.110   .     S
C393   H418    1.113   .     S
C393   H419    1.112   .     S
C393   H420    1.109   .     S
C394   H421    1.109   .     S
C394   H423    1.109   .     S
C394   H422    1.116   .     S
C394   O442    1.414   .     S
C395   H425    1.113   .     S
C395   H426    1.113   .     S
C395   H427    1.109   .     S
C395   O443    1.410   .     S
C396   C397    1.415   .     A
C396   C398    1.425   .     A
C397   C1220   1.390   .     S
C398   C1218   1.426   .     S
C399   C400    1.429   .     A
C399   C1217   1.426   1_554 S
C400   C401    1.394   .     A
C400   O443    1.381   .     S
C401   H402    1.085   .     S
C401   C1216   1.390   1_554 S
H404   C1205   1.115   .     S
H405   C1207   1.112   1_554 S
H406   C479    1.112   .     S
H413   C466    1.086   .     S
O434   Zn452   1.961   .     S
O434   Zn455   1.927   .     S
O434   Zn454   1.935   .     S
O434   Zn453   1.944   .     S
O435   Zn453   1.928   .     S
O436   Zn455   1.939   .     S
O437   Zn454   1.932   .     S
O438   Zn452   1.921   .     S
O441   C651    1.401   .     S
O441   C666    1.412   .     S
O444   Zn452   1.935   .     S
O445   Zn455   1.940   .     S
O446   Zn453   1.921   .     S
O447   Zn454   1.933   .     S
O448   Zn455   1.929   .     S
O449   Zn452   1.920   .     S
O450   Zn453   1.944   .     S
O451   Zn454   1.936   .     S
C456   C466    1.436   .     S
C456   O539    1.268   .     A
C456   O537    1.269   .     A
C457   H524    1.077   .     S
C457   C489    1.413   .     A
C457   C458    1.384   .     A
C458   H520    1.083   .     S
C458   C1279   1.394   .     S
C459   O540    1.282   .     A
C459   C465    1.460   .     S
C459   O538    1.282   .     A
C460   C461    1.422   .     A
C460   C462    1.415   .     A
C460   C1277   1.394   1_554 S
C461   C464    1.406   .     A
C461   C490    1.432   .     A
C462   C463    1.401   .     A
C462   O530    1.385   .     S
C463   C475    1.407   .     A
C463   O533    1.387   .     S
C464   H519    1.077   .     S
C464   C475    1.391   .     A
C465   C284    1.339   1_655 S
C465   O349    1.387   1_655 S
C467   H522    1.083   .     S
C467   C476    1.393   .     A
C467   C474    1.400   .     A
C468   C471    1.455   .     S
C468   C742    1.345   .     S
C468   H788    1.088   .     S
C469   C470    1.445   .     S
C470   O535    1.273   .     A
C470   O541    1.276   .     A
C471   O542    1.274   .     A
C471   O536    1.262   .     A
C472   O528    1.274   .     A
C472   C475    1.453   .     S
C472   O526    1.275   .     A
C473   C474    1.472   .     S
C473   O529    1.284   .     A
C473   O527    1.283   .     A
C474   C478    1.399   .     A
C476   H521    1.084   .     S
C476   C488    1.404   .     A
C477   O530    1.414   .     S
C477   H494    1.113   .     S
C477   C1116   1.528   1_654 S
C477   H1314   1.115   1_554 S
C478   H523    1.076   .     S
C478   C487    1.409   .     A
C479   C480    1.527   .     S
C479   C1205   1.528   .     S
C479   H1315   1.112   .     S
C480   H498    1.111   .     S
C480   H499    1.110   .     S
C480   H500    1.111   .     S
C481   C482    1.528   .     S
C481   O531    1.412   .     S
C481   H502    1.113   .     S
C481   H501    1.117   .     S
C482   H503    1.112   .     S
C482   H505    1.112   .     S
C482   C483    1.526   .     S
C483   H506    1.111   .     S
C483   H508    1.110   .     S
C483   H507    1.110   .     S
C484   H509    1.113   .     S
C484   H510    1.112   .     S
C484   H511    1.109   .     S
C485   H512    1.109   .     S
C485   H514    1.109   .     S
C485   H513    1.116   .     S
C485   O533    1.414   .     S
C486   H516    1.113   .     S
C486   H517    1.113   .     S
C486   H518    1.109   .     S
C486   O534    1.410   .     S
C487   C488    1.415   .     A
C487   C489    1.425   .     A
C488   C1311   1.390   .     S
C489   C1309   1.426   .     S
C490   C491    1.429   .     A
C490   C1308   1.426   1_554 S
C491   C492    1.394   .     A
C491   O534    1.381   .     S
C492   H493    1.085   .     S
C492   C1307   1.390   1_554 S
H495   C1296   1.115   .     S
H496   C1298   1.112   1_554 S
H497   C297    1.112   1_655 S
H504   C284    1.086   1_655 S
O525   Zn543   1.961   .     S
O525   Zn546   1.927   .     S
O525   Zn545   1.935   .     S
O525   Zn544   1.944   .     S
O526   Zn544   1.928   .     S
O527   Zn546   1.939   .     S
O528   Zn545   1.932   .     S
O529   Zn543   1.921   .     S
O532   C742    1.401   .     S
O532   C757    1.412   .     S
O535   Zn543   1.935   .     S
O536   Zn546   1.940   .     S
O537   Zn544   1.921   .     S
O538   Zn545   1.933   .     S
O539   Zn546   1.929   .     S
O540   Zn543   1.920   .     S
O541   Zn544   1.944   .     S
O542   Zn545   1.936   .     S
C547   C557    1.436   .     S
C547   O630    1.268   .     A
C547   O628    1.269   .     A
C548   H615    1.077   .     S
C548   C580    1.413   .     A
C548   C549    1.384   .     A
C549   H611    1.083   .     S
C549   C1370   1.394   .     S
C550   O631    1.282   .     A
C550   C556    1.460   .     S
C550   O629    1.282   .     A
C551   C552    1.422   .     A
C551   C553    1.415   .     A
C551   C1368   1.394   1_554 S
C552   C555    1.406   .     A
C552   C581    1.432   .     A
C553   C554    1.401   .     A
C553   O621    1.385   .     S
C554   C566    1.407   .     A
C554   O624    1.387   .     S
C555   H610    1.077   .     S
C555   C566    1.391   .     A
C556   C648    1.339   .     S
C556   O713    1.387   .     S
C557   C738    1.339   1_455 S
C557   H777    1.086   1_455 S
C558   H613    1.083   .     S
C558   C567    1.393   .     A
C558   C565    1.400   .     A
C559   C562    1.455   .     S
C559   C14     1.345   1_565 S
C559   H60     1.088   1_565 S
C560   C561    1.445   .     S
C561   O626    1.273   .     A
C561   O632    1.276   .     A
C562   O633    1.274   .     A
C562   O627    1.262   .     A
C563   O619    1.274   .     A
C563   C566    1.453   .     S
C563   O617    1.275   .     A
C564   C565    1.472   .     S
C564   O620    1.284   .     A
C564   O618    1.283   .     A
C565   C569    1.399   .     A
C567   H612    1.084   .     S
C567   C579    1.404   .     A
C568   O621    1.414   .     S
C568   H585    1.113   .     S
C568   C1480   1.528   1_554 S
C568   H1405   1.115   1_554 S
C569   H614    1.076   .     S
C569   C578    1.409   .     A
C570   C571    1.527   .     S
C570   C1569   1.528   1_455 S
C570   H1406   1.112   .     S
C570   H770    1.112   1_455 S
C571   H589    1.111   .     S
C571   H590    1.110   .     S
C571   H591    1.111   .     S
C572   C573    1.528   .     S
C572   O622    1.412   .     S
C572   H593    1.113   .     S
C572   H592    1.117   .     S
C573   H594    1.112   .     S
C573   H596    1.112   .     S
C573   C574    1.526   .     S
C574   H597    1.111   .     S
C574   H599    1.110   .     S
C574   H598    1.110   .     S
C575   H600    1.113   .     S
C575   H601    1.112   .     S
C575   H602    1.109   .     S
C576   H603    1.109   .     S
C576   H605    1.109   .     S
C576   H604    1.116   .     S
C576   O624    1.414   .     S
C577   H607    1.113   .     S
C577   H608    1.113   .     S
C577   H609    1.109   .     S
C577   O625    1.410   .     S
C578   C579    1.415   .     A
C578   C580    1.425   .     A
C579   C1402   1.390   .     S
C580   C1400   1.426   .     S
C581   C582    1.429   .     A
C581   C1399   1.426   1_554 S
C582   C583    1.394   .     A
C582   O625    1.381   .     S
C583   H584    1.085   .     S
C583   C1398   1.390   1_554 S
H586   C1387   1.115   .     S
H587   C1389   1.112   1_554 S
H588   C661    1.112   .     S
H595   C648    1.086   .     S
O616   Zn634   1.961   .     S
O616   Zn637   1.927   .     S
O616   Zn636   1.935   .     S
O616   Zn635   1.944   .     S
O617   Zn635   1.928   .     S
O618   Zn637   1.939   .     S
O619   Zn636   1.932   .     S
O620   Zn634   1.921   .     S
O622   C738    1.387   1_455 S
O623   C14     1.401   1_565 S
O623   C29     1.412   1_565 S
O626   Zn634   1.935   .     S
O627   Zn637   1.940   .     S
O628   Zn635   1.921   .     S
O629   Zn636   1.933   .     S
O630   Zn637   1.929   .     S
O631   Zn634   1.920   .     S
O632   Zn635   1.944   .     S
O633   Zn636   1.936   .     S
C638   C648    1.436   .     S
C638   O721    1.268   .     A
C638   O719    1.269   .     A
C639   H706    1.077   .     S
C639   C671    1.413   .     A
C639   C640    1.384   .     A
C640   H702    1.083   .     S
C640   C1461   1.394   .     S
C641   O722    1.282   .     A
C641   C647    1.460   .     S
C641   O720    1.282   .     A
C642   C643    1.422   .     A
C642   C644    1.415   .     A
C642   C1459   1.394   1_554 S
C643   C646    1.406   .     A
C643   C672    1.432   .     A
C644   C645    1.401   .     A
C644   O712    1.385   .     S
C645   C657    1.407   .     A
C645   O715    1.387   .     S
C646   H701    1.077   .     S
C646   C657    1.391   .     A
C647   C739    1.339   .     S
C647   O804    1.387   .     S
C649   H704    1.083   .     S
C649   C658    1.393   .     A
C649   C656    1.400   .     A
C650   C653    1.455   .     S
C650   C105    1.345   1_565 S
C650   H151    1.088   1_565 S
C651   C652    1.445   .     S
C652   O717    1.273   .     A
C652   O723    1.276   .     A
C653   O724    1.274   .     A
C653   O718    1.262   .     A
C654   O710    1.274   .     A
C654   C657    1.453   .     S
C654   O708    1.275   .     A
C655   C656    1.472   .     S
C655   O711    1.284   .     A
C655   O709    1.283   .     A
C656   C660    1.399   .     A
C658   H703    1.084   .     S
C658   C670    1.404   .     A
C659   O712    1.414   .     S
C659   H676    1.113   .     S
C659   C1571   1.528   1_554 S
C659   H1496   1.115   1_554 S
C660   H705    1.076   .     S
C660   C669    1.409   .     A
C661   C662    1.527   .     S
C661   C1387   1.528   .     S
C661   H1497   1.112   .     S
C662   H680    1.111   .     S
C662   H681    1.110   .     S
C662   H682    1.111   .     S
C663   C664    1.528   .     S
C663   O713    1.412   .     S
C663   H684    1.113   .     S
C663   H683    1.117   .     S
C664   H685    1.112   .     S
C664   H687    1.112   .     S
C664   C665    1.526   .     S
C665   H688    1.111   .     S
C665   H690    1.110   .     S
C665   H689    1.110   .     S
C666   H691    1.113   .     S
C666   H692    1.112   .     S
C666   H693    1.109   .     S
C667   H694    1.109   .     S
C667   H696    1.109   .     S
C667   H695    1.116   .     S
C667   O715    1.414   .     S
C668   H698    1.113   .     S
C668   H699    1.113   .     S
C668   H700    1.109   .     S
C668   O716    1.410   .     S
C669   C670    1.415   .     A
C669   C671    1.425   .     A
C670   C1493   1.390   .     S
C671   C1491   1.426   .     S
C672   C673    1.429   .     A
C672   C1490   1.426   1_554 S
C673   C674    1.394   .     A
C673   O716    1.381   .     S
C674   H675    1.085   .     S
C674   C1489   1.390   1_554 S
H677   C1478   1.115   .     S
H678   C1480   1.112   1_554 S
H679   C752    1.112   .     S
H686   C739    1.086   .     S
O707   Zn725   1.961   .     S
O707   Zn728   1.927   .     S
O707   Zn727   1.935   .     S
O707   Zn726   1.944   .     S
O708   Zn726   1.928   .     S
O709   Zn728   1.939   .     S
O710   Zn727   1.932   .     S
O711   Zn725   1.921   .     S
O714   C105    1.401   1_565 S
O714   C120    1.412   1_565 S
O717   Zn725   1.935   .     S
O718   Zn728   1.940   .     S
O719   Zn726   1.921   .     S
O720   Zn727   1.933   .     S
O721   Zn728   1.929   .     S
O722   Zn725   1.920   .     S
O723   Zn726   1.944   .     S
O724   Zn727   1.936   .     S
C729   C739    1.436   .     S
C729   O812    1.268   .     A
C729   O810    1.269   .     A
C730   H797    1.077   .     S
C730   C762    1.413   .     A
C730   C731    1.384   .     A
C731   H793    1.083   .     S
C731   C1552   1.394   .     S
C732   O813    1.282   .     A
C732   C738    1.460   .     S
C732   O811    1.282   .     A
C733   C734    1.422   .     A
C733   C735    1.415   .     A
C733   C1550   1.394   1_554 S
C734   C737    1.406   .     A
C734   C763    1.432   .     A
C735   C736    1.401   .     A
C735   O803    1.385   .     S
C736   C748    1.407   .     A
C736   O806    1.387   .     S
C737   H792    1.077   .     S
C737   C748    1.391   .     A
C738   C557    1.339   1_655 S
C738   O622    1.387   1_655 S
C740   H795    1.083   .     S
C740   C749    1.393   .     A
C740   C747    1.400   .     A
C741   C744    1.455   .     S
C741   C196    1.345   1_565 S
C741   H242    1.088   1_565 S
C742   C743    1.445   .     S
C743   O808    1.273   .     A
C743   O814    1.276   .     A
C744   O815    1.274   .     A
C744   O809    1.262   .     A
C745   O801    1.274   .     A
C745   C748    1.453   .     S
C745   O799    1.275   .     A
C746   C747    1.472   .     S
C746   O802    1.284   .     A
C746   O800    1.283   .     A
C747   C751    1.399   .     A
C749   H794    1.084   .     S
C749   C761    1.404   .     A
C750   O803    1.414   .     S
C750   H767    1.113   .     S
C750   C1389   1.528   1_654 S
C750   H1587   1.115   1_554 S
C751   H796    1.076   .     S
C751   C760    1.409   .     A
C752   C753    1.527   .     S
C752   C1478   1.528   .     S
C752   H1588   1.112   .     S
C753   H771    1.111   .     S
C753   H772    1.110   .     S
C753   H773    1.111   .     S
C754   C755    1.528   .     S
C754   O804    1.412   .     S
C754   H775    1.113   .     S
C754   H774    1.117   .     S
C755   H776    1.112   .     S
C755   H778    1.112   .     S
C755   C756    1.526   .     S
C756   H779    1.111   .     S
C756   H781    1.110   .     S
C756   H780    1.110   .     S
C757   H782    1.113   .     S
C757   H783    1.112   .     S
C757   H784    1.109   .     S
C758   H785    1.109   .     S
C758   H787    1.109   .     S
C758   H786    1.116   .     S
C758   O806    1.414   .     S
C759   H789    1.113   .     S
C759   H790    1.113   .     S
C759   H791    1.109   .     S
C759   O807    1.410   .     S
C760   C761    1.415   .     A
C760   C762    1.425   .     A
C761   C1584   1.390   .     S
C762   C1582   1.426   .     S
C763   C764    1.429   .     A
C763   C1581   1.426   1_554 S
C764   C765    1.394   .     A
C764   O807    1.381   .     S
C765   H766    1.085   .     S
C765   C1580   1.390   1_554 S
H768   C1569   1.115   .     S
H769   C1571   1.112   1_554 S
H770   C570    1.112   1_655 S
H777   C557    1.086   1_655 S
O798   Zn816   1.961   .     S
O798   Zn819   1.927   .     S
O798   Zn818   1.935   .     S
O798   Zn817   1.944   .     S
O799   Zn817   1.928   .     S
O800   Zn819   1.939   .     S
O801   Zn818   1.932   .     S
O802   Zn816   1.921   .     S
O805   C196    1.401   1_565 S
O805   C211    1.412   1_565 S
O808   Zn816   1.935   .     S
O809   Zn819   1.940   .     S
O810   Zn817   1.921   .     S
O811   Zn818   1.933   .     S
O812   Zn819   1.929   .     S
O813   Zn816   1.920   .     S
O814   Zn817   1.944   .     S
O815   Zn818   1.936   .     S
C820   C830    1.436   .     S
C820   O903    1.268   .     A
C820   O901    1.269   .     A
C821   H888    1.077   .     S
C821   C853    1.413   .     A
C821   C822    1.384   .     A
C822   H884    1.083   .     S
C822   C5      1.394   1_556 S
C823   O904    1.282   .     A
C823   C829    1.460   .     S
C823   O902    1.282   .     A
C824   C825    1.422   .     A
C824   C826    1.415   .     A
C825   C828    1.406   .     A
C825   C854    1.432   .     A
C826   C827    1.401   .     A
C826   O894    1.385   .     S
C827   C839    1.407   .     A
C827   O897    1.387   .     S
C828   H883    1.077   .     S
C828   C839    1.391   .     A
C829   C921    1.339   .     S
C829   O986    1.387   .     S
C830   C1011   1.339   1_455 S
C830   H1050   1.086   1_455 S
C831   H886    1.083   .     S
C831   C840    1.393   .     A
C831   C838    1.400   .     A
C832   C835    1.455   .     S
C832   C1106   1.345   .     S
C832   H1152   1.088   .     S
C833   C834    1.445   .     S
C833   C1378   1.345   1_545 S
C833   O1442   1.401   1_545 S
C834   O899    1.273   .     A
C834   O905    1.276   .     A
C835   O906    1.274   .     A
C835   O900    1.262   .     A
C836   O892    1.274   .     A
C836   C839    1.453   .     S
C836   O890    1.275   .     A
C837   C838    1.472   .     S
C837   O893    1.284   .     A
C837   O891    1.283   .     A
C838   C842    1.399   .     A
C840   H885    1.084   .     S
C840   C852    1.404   .     A
C841   O894    1.414   .     S
C841   H858    1.113   .     S
C842   H887    1.076   .     S
C842   C851    1.409   .     A
C843   C844    1.527   .     S
C843   C204    1.528   1_456 S
C843   H41     1.112   1_556 S
C843   H1043   1.112   1_455 S
C844   H862    1.111   .     S
C844   H863    1.110   .     S
C844   H864    1.111   .     S
C845   C846    1.528   .     S
C845   O895    1.412   .     S
C845   H866    1.113   .     S
C845   H865    1.117   .     S
C846   H867    1.112   .     S
C846   H869    1.112   .     S
C846   C847    1.526   .     S
C847   H870    1.111   .     S
C847   H872    1.110   .     S
C847   H871    1.110   .     S
C848   H873    1.113   .     S
C848   H874    1.112   .     S
C848   H875    1.109   .     S
C848   O1442   1.412   1_545 S
C849   H876    1.109   .     S
C849   H878    1.109   .     S
C849   H877    1.116   .     S
C849   O897    1.414   .     S
C850   H880    1.113   .     S
C850   H881    1.113   .     S
C850   H882    1.109   .     S
C850   O898    1.410   .     S
C851   C852    1.415   .     A
C851   C853    1.425   .     A
C852   C37     1.390   1_556 S
C853   C35     1.426   1_556 S
C854   C855    1.429   .     A
C855   C856    1.394   .     A
C855   O898    1.381   .     S
C856   H857    1.085   .     S
H859   C22     1.115   1_556 S
H861   C934    1.112   .     S
H868   C921    1.086   .     S
H879   C1378   1.088   1_545 S
O889   Zn907   1.961   .     S
O889   Zn910   1.927   .     S
O889   Zn909   1.935   .     S
O889   Zn908   1.944   .     S
O890   Zn908   1.928   .     S
O891   Zn910   1.939   .     S
O892   Zn909   1.932   .     S
O893   Zn907   1.921   .     S
O895   C1011   1.387   1_455 S
O896   C1106   1.401   .     S
O896   C1121   1.412   .     S
O899   Zn907   1.935   .     S
O900   Zn910   1.940   .     S
O901   Zn908   1.921   .     S
O902   Zn909   1.933   .     S
O903   Zn910   1.929   .     S
O904   Zn907   1.920   .     S
O905   Zn908   1.944   .     S
O906   Zn909   1.936   .     S
C911   C921    1.436   .     S
C911   O994    1.268   .     A
C911   O992    1.269   .     A
C912   H979    1.077   .     S
C912   C944    1.413   .     A
C912   C913    1.384   .     A
C913   H975    1.083   .     S
C913   C96     1.394   1_556 S
C914   O995    1.282   .     A
C914   C920    1.460   .     S
C914   O993    1.282   .     A
C915   C916    1.422   .     A
C915   C917    1.415   .     A
C916   C919    1.406   .     A
C916   C945    1.432   .     A
C917   C918    1.401   .     A
C917   O985    1.385   .     S
C918   C930    1.407   .     A
C918   O988    1.387   .     S
C919   H974    1.077   .     S
C919   C930    1.391   .     A
C920   C1012   1.339   .     S
C920   O1077   1.387   .     S
C922   H977    1.083   .     S
C922   C931    1.393   .     A
C922   C929    1.400   .     A
C923   C926    1.455   .     S
C923   C1197   1.345   .     S
C923   H1243   1.088   .     S
C924   C925    1.445   .     S
C924   C1469   1.345   1_545 S
C924   O1533   1.401   1_545 S
C925   O990    1.273   .     A
C925   O996    1.276   .     A
C926   O997    1.274   .     A
C926   O991    1.262   .     A
C927   O983    1.274   .     A
C927   C930    1.453   .     S
C927   O981    1.275   .     A
C928   C929    1.472   .     S
C928   O984    1.284   .     A
C928   O982    1.283   .     A
C929   C933    1.399   .     A
C931   H976    1.084   .     S
C931   C943    1.404   .     A
C932   O985    1.414   .     S
C932   H949    1.113   .     S
C933   H978    1.076   .     S
C933   C942    1.409   .     A
C934   C935    1.527   .     S
C934   C22     1.528   1_556 S
C934   H132    1.112   1_556 S
C935   H953    1.111   .     S
C935   H954    1.110   .     S
C935   H955    1.111   .     S
C936   C937    1.528   .     S
C936   O986    1.412   .     S
C936   H957    1.113   .     S
C936   H956    1.117   .     S
C937   H958    1.112   .     S
C937   H960    1.112   .     S
C937   C938    1.526   .     S
C938   H961    1.111   .     S
C938   H963    1.110   .     S
C938   H962    1.110   .     S
C939   H964    1.113   .     S
C939   H965    1.112   .     S
C939   H966    1.109   .     S
C939   O1533   1.412   1_545 S
C940   H967    1.109   .     S
C940   H969    1.109   .     S
C940   H968    1.116   .     S
C940   O988    1.414   .     S
C941   H971    1.113   .     S
C941   H972    1.113   .     S
C941   H973    1.109   .     S
C941   O989    1.410   .     S
C942   C943    1.415   .     A
C942   C944    1.425   .     A
C943   C128    1.390   1_556 S
C944   C126    1.426   1_556 S
C945   C946    1.429   .     A
C946   C947    1.394   .     A
C946   O989    1.381   .     S
C947   H948    1.085   .     S
H950   C113    1.115   1_556 S
H952   C1025   1.112   .     S
H959   C1012   1.086   .     S
H970   C1469   1.088   1_545 S
O980   Zn998   1.961   .     S
O980   Zn1001  1.927   .     S
O980   Zn1000  1.935   .     S
O980   Zn999   1.944   .     S
O981   Zn999   1.928   .     S
O982   Zn1001  1.939   .     S
O983   Zn1000  1.932   .     S
O984   Zn998   1.921   .     S
O987   C1197   1.401   .     S
O987   C1212   1.412   .     S
O990   Zn998   1.935   .     S
O991   Zn1001  1.940   .     S
O992   Zn999   1.921   .     S
O993   Zn1000  1.933   .     S
O994   Zn1001  1.929   .     S
O995   Zn998   1.920   .     S
O996   Zn999   1.944   .     S
O997   Zn1000  1.936   .     S
C1002  C1012   1.436   .     S
C1002  O1085   1.268   .     A
C1002  O1083   1.269   .     A
C1003  H1070   1.077   .     S
C1003  C1035   1.413   .     A
C1003  C1004   1.384   .     A
C1004  H1066   1.083   .     S
C1004  C187    1.394   1_556 S
C1005  O1086   1.282   .     A
C1005  C1011   1.460   .     S
C1005  O1084   1.282   .     A
C1006  C1007   1.422   .     A
C1006  C1008   1.415   .     A
C1007  C1010   1.406   .     A
C1007  C1036   1.432   .     A
C1008  C1009   1.401   .     A
C1008  O1076   1.385   .     S
C1009  C1021   1.407   .     A
C1009  O1079   1.387   .     S
C1010  H1065   1.077   .     S
C1010  C1021   1.391   .     A
C1011  C830    1.339   1_655 S
C1011  O895    1.387   1_655 S
C1013  H1068   1.083   .     S
C1013  C1022   1.393   .     A
C1013  C1020   1.400   .     A
C1014  C1017   1.455   .     S
C1014  C1288   1.345   .     S
C1014  H1334   1.088   .     S
C1015  C1016   1.445   .     S
C1015  C1560   1.345   1_545 S
C1015  O1624   1.401   1_545 S
C1016  O1081   1.273   .     A
C1016  O1087   1.276   .     A
C1017  O1088   1.274   .     A
C1017  O1082   1.262   .     A
C1018  O1074   1.274   .     A
C1018  C1021   1.453   .     S
C1018  O1072   1.275   .     A
C1019  C1020   1.472   .     S
C1019  O1075   1.284   .     A
C1019  O1073   1.283   .     A
C1020  C1024   1.399   .     A
C1022  H1067   1.084   .     S
C1022  C1034   1.404   .     A
C1023  O1076   1.414   .     S
C1023  H1040   1.113   .     S
C1023  C24     1.528   1_655 S
C1024  H1069   1.076   .     S
C1024  C1033   1.409   .     A
C1025  C1026   1.527   .     S
C1025  C113    1.528   1_556 S
C1025  H223    1.112   1_556 S
C1026  H1044   1.111   .     S
C1026  H1045   1.110   .     S
C1026  H1046   1.111   .     S
C1027  C1028   1.528   .     S
C1027  O1077   1.412   .     S
C1027  H1048   1.113   .     S
C1027  H1047   1.117   .     S
C1028  H1049   1.112   .     S
C1028  H1051   1.112   .     S
C1028  C1029   1.526   .     S
C1029  H1052   1.111   .     S
C1029  H1054   1.110   .     S
C1029  H1053   1.110   .     S
C1030  H1055   1.113   .     S
C1030  H1056   1.112   .     S
C1030  H1057   1.109   .     S
C1030  O1624   1.412   1_545 S
C1031  H1058   1.109   .     S
C1031  H1060   1.109   .     S
C1031  H1059   1.116   .     S
C1031  O1079   1.414   .     S
C1032  H1062   1.113   .     S
C1032  H1063   1.113   .     S
C1032  H1064   1.109   .     S
C1032  O1080   1.410   .     S
C1033  C1034   1.415   .     A
C1033  C1035   1.425   .     A
C1034  C219    1.390   1_556 S
C1035  C217    1.426   1_556 S
C1036  C1037   1.429   .     A
C1037  C1038   1.394   .     A
C1037  O1080   1.381   .     S
C1038  H1039   1.085   .     S
H1041  C204    1.115   1_556 S
H1043  C843    1.112   1_655 S
H1050  C830    1.086   1_655 S
H1061  C1560   1.088   1_545 S
O1071  Zn1089  1.961   .     S
O1071  Zn1092  1.927   .     S
O1071  Zn1091  1.935   .     S
O1071  Zn1090  1.944   .     S
O1072  Zn1090  1.928   .     S
O1073  Zn1092  1.939   .     S
O1074  Zn1091  1.932   .     S
O1075  Zn1089  1.921   .     S
O1078  C1288   1.401   .     S
O1078  C1303   1.412   .     S
O1081  Zn1089  1.935   .     S
O1082  Zn1092  1.940   .     S
O1083  Zn1090  1.921   .     S
O1084  Zn1091  1.933   .     S
O1085  Zn1092  1.929   .     S
O1086  Zn1089  1.920   .     S
O1087  Zn1090  1.944   .     S
O1088  Zn1091  1.936   .     S
C1093  C1103   1.436   .     S
C1093  O1176   1.268   .     A
C1093  O1174   1.269   .     A
C1094  H1161   1.077   .     S
C1094  C1126   1.413   .     A
C1094  C1095   1.384   .     A
C1095  H1157   1.083   .     S
C1095  C278    1.394   1_556 S
C1096  O1177   1.282   .     A
C1096  C1102   1.460   .     S
C1096  O1175   1.282   .     A
C1097  C1098   1.422   .     A
C1097  C1099   1.415   .     A
C1098  C1101   1.406   .     A
C1098  C1127   1.432   .     A
C1099  C1100   1.401   .     A
C1099  O1167   1.385   .     S
C1100  C1112   1.407   .     A
C1100  O1170   1.387   .     S
C1101  H1156   1.077   .     S
C1101  C1112   1.391   .     A
C1102  C1194   1.339   .     S
C1102  O1259   1.387   .     S
C1103  C1284   1.339   1_455 S
C1103  H1323   1.086   1_455 S
C1104  H1159   1.083   .     S
C1104  C1113   1.393   .     A
C1104  C1111   1.400   .     A
C1105  C1108   1.455   .     S
C1105  C1379   1.345   .     S
C1105  H1425   1.088   .     S
C1106  C1107   1.445   .     S
C1107  O1172   1.273   .     A
C1107  O1178   1.276   .     A
C1108  O1179   1.274   .     A
C1108  O1173   1.262   .     A
C1109  O1165   1.274   .     A
C1109  C1112   1.453   .     S
C1109  O1163   1.275   .     A
C1110  C1111   1.472   .     S
C1110  O1166   1.284   .     A
C1110  O1164   1.283   .     A
C1111  C1115   1.399   .     A
C1113  H1158   1.084   .     S
C1113  C1125   1.404   .     A
C1114  O1167   1.414   .     S
C1114  H1131   1.113   .     S
C1115  H1160   1.076   .     S
C1115  C1124   1.409   .     A
C1116  C1117   1.527   .     S
C1116  C477    1.528   1_456 S
C1116  H314    1.112   1_556 S
C1116  H1316   1.112   1_455 S
C1117  H1135   1.111   .     S
C1117  H1136   1.110   .     S
C1117  H1137   1.111   .     S
C1118  C1119   1.528   .     S
C1118  O1168   1.412   .     S
C1118  H1139   1.113   .     S
C1118  H1138   1.117   .     S
C1119  H1140   1.112   .     S
C1119  H1142   1.112   .     S
C1119  C1120   1.526   .     S
C1120  H1143   1.111   .     S
C1120  H1145   1.110   .     S
C1120  H1144   1.110   .     S
C1121  H1146   1.113   .     S
C1121  H1147   1.112   .     S
C1121  H1148   1.109   .     S
C1122  H1149   1.109   .     S
C1122  H1151   1.109   .     S
C1122  H1150   1.116   .     S
C1122  O1170   1.414   .     S
C1123  H1153   1.113   .     S
C1123  H1154   1.113   .     S
C1123  H1155   1.109   .     S
C1123  O1171   1.410   .     S
C1124  C1125   1.415   .     A
C1124  C1126   1.425   .     A
C1125  C310    1.390   1_556 S
C1126  C308    1.426   1_556 S
C1127  C1128   1.429   .     A
C1128  C1129   1.394   .     A
C1128  O1171   1.381   .     S
C1129  H1130   1.085   .     S
H1132  C295    1.115   1_556 S
H1134  C1207   1.112   .     S
H1141  C1194   1.086   .     S
O1162  Zn1180  1.961   .     S
O1162  Zn1183  1.927   .     S
O1162  Zn1182  1.935   .     S
O1162  Zn1181  1.944   .     S
O1163  Zn1181  1.928   .     S
O1164  Zn1183  1.939   .     S
O1165  Zn1182  1.932   .     S
O1166  Zn1180  1.921   .     S
O1168  C1284   1.387   1_455 S
O1169  C1379   1.401   .     S
O1169  C1394   1.412   .     S
O1172  Zn1180  1.935   .     S
O1173  Zn1183  1.940   .     S
O1174  Zn1181  1.921   .     S
O1175  Zn1182  1.933   .     S
O1176  Zn1183  1.929   .     S
O1177  Zn1180  1.920   .     S
O1178  Zn1181  1.944   .     S
O1179  Zn1182  1.936   .     S
C1184  C1194   1.436   .     S
C1184  O1267   1.268   .     A
C1184  O1265   1.269   .     A
C1185  H1252   1.077   .     S
C1185  C1217   1.413   .     A
C1185  C1186   1.384   .     A
C1186  H1248   1.083   .     S
C1186  C369    1.394   1_556 S
C1187  O1268   1.282   .     A
C1187  C1193   1.460   .     S
C1187  O1266   1.282   .     A
C1188  C1189   1.422   .     A
C1188  C1190   1.415   .     A
C1189  C1192   1.406   .     A
C1189  C1218   1.432   .     A
C1190  C1191   1.401   .     A
C1190  O1258   1.385   .     S
C1191  C1203   1.407   .     A
C1191  O1261   1.387   .     S
C1192  H1247   1.077   .     S
C1192  C1203   1.391   .     A
C1193  C1285   1.339   .     S
C1193  O1350   1.387   .     S
C1195  H1250   1.083   .     S
C1195  C1204   1.393   .     A
C1195  C1202   1.400   .     A
C1196  C1199   1.455   .     S
C1196  C1470   1.345   .     S
C1196  H1516   1.088   .     S
C1197  C1198   1.445   .     S
C1198  O1263   1.273   .     A
C1198  O1269   1.276   .     A
C1199  O1270   1.274   .     A
C1199  O1264   1.262   .     A
C1200  O1256   1.274   .     A
C1200  C1203   1.453   .     S
C1200  O1254   1.275   .     A
C1201  C1202   1.472   .     S
C1201  O1257   1.284   .     A
C1201  O1255   1.283   .     A
C1202  C1206   1.399   .     A
C1204  H1249   1.084   .     S
C1204  C1216   1.404   .     A
C1205  O1258   1.414   .     S
C1205  H1222   1.113   .     S
C1206  H1251   1.076   .     S
C1206  C1215   1.409   .     A
C1207  C1208   1.527   .     S
C1207  C295    1.528   1_556 S
C1207  H405    1.112   1_556 S
C1208  H1226   1.111   .     S
C1208  H1227   1.110   .     S
C1208  H1228   1.111   .     S
C1209  C1210   1.528   .     S
C1209  O1259   1.412   .     S
C1209  H1230   1.113   .     S
C1209  H1229   1.117   .     S
C1210  H1231   1.112   .     S
C1210  H1233   1.112   .     S
C1210  C1211   1.526   .     S
C1211  H1234   1.111   .     S
C1211  H1236   1.110   .     S
C1211  H1235   1.110   .     S
C1212  H1237   1.113   .     S
C1212  H1238   1.112   .     S
C1212  H1239   1.109   .     S
C1213  H1240   1.109   .     S
C1213  H1242   1.109   .     S
C1213  H1241   1.116   .     S
C1213  O1261   1.414   .     S
C1214  H1244   1.113   .     S
C1214  H1245   1.113   .     S
C1214  H1246   1.109   .     S
C1214  O1262   1.410   .     S
C1215  C1216   1.415   .     A
C1215  C1217   1.425   .     A
C1216  C401    1.390   1_556 S
C1217  C399    1.426   1_556 S
C1218  C1219   1.429   .     A
C1219  C1220   1.394   .     A
C1219  O1262   1.381   .     S
C1220  H1221   1.085   .     S
H1223  C386    1.115   1_556 S
H1225  C1298   1.112   .     S
H1232  C1285   1.086   .     S
O1253  Zn1271  1.961   .     S
O1253  Zn1274  1.927   .     S
O1253  Zn1273  1.935   .     S
O1253  Zn1272  1.944   .     S
O1254  Zn1272  1.928   .     S
O1255  Zn1274  1.939   .     S
O1256  Zn1273  1.932   .     S
O1257  Zn1271  1.921   .     S
O1260  C1470   1.401   .     S
O1260  C1485   1.412   .     S
O1263  Zn1271  1.935   .     S
O1264  Zn1274  1.940   .     S
O1265  Zn1272  1.921   .     S
O1266  Zn1273  1.933   .     S
O1267  Zn1274  1.929   .     S
O1268  Zn1271  1.920   .     S
O1269  Zn1272  1.944   .     S
O1270  Zn1273  1.936   .     S
C1275  C1285   1.436   .     S
C1275  O1358   1.268   .     A
C1275  O1356   1.269   .     A
C1276  H1343   1.077   .     S
C1276  C1308   1.413   .     A
C1276  C1277   1.384   .     A
C1277  H1339   1.083   .     S
C1277  C460    1.394   1_556 S
C1278  O1359   1.282   .     A
C1278  C1284   1.460   .     S
C1278  O1357   1.282   .     A
C1279  C1280   1.422   .     A
C1279  C1281   1.415   .     A
C1280  C1283   1.406   .     A
C1280  C1309   1.432   .     A
C1281  C1282   1.401   .     A
C1281  O1349   1.385   .     S
C1282  C1294   1.407   .     A
C1282  O1352   1.387   .     S
C1283  H1338   1.077   .     S
C1283  C1294   1.391   .     A
C1284  C1103   1.339   1_655 S
C1284  O1168   1.387   1_655 S
C1286  H1341   1.083   .     S
C1286  C1295   1.393   .     A
C1286  C1293   1.400   .     A
C1287  C1290   1.455   .     S
C1287  C1561   1.345   .     S
C1287  H1607   1.088   .     S
C1288  C1289   1.445   .     S
C1289  O1354   1.273   .     A
C1289  O1360   1.276   .     A
C1290  O1361   1.274   .     A
C1290  O1355   1.262   .     A
C1291  O1347   1.274   .     A
C1291  C1294   1.453   .     S
C1291  O1345   1.275   .     A
C1292  C1293   1.472   .     S
C1292  O1348   1.284   .     A
C1292  O1346   1.283   .     A
C1293  C1297   1.399   .     A
C1295  H1340   1.084   .     S
C1295  C1307   1.404   .     A
C1296  O1349   1.414   .     S
C1296  H1313   1.113   .     S
C1296  C297    1.528   1_655 S
C1297  H1342   1.076   .     S
C1297  C1306   1.409   .     A
C1298  C1299   1.527   .     S
C1298  C386    1.528   1_556 S
C1298  H496    1.112   1_556 S
C1299  H1317   1.111   .     S
C1299  H1318   1.110   .     S
C1299  H1319   1.111   .     S
C1300  C1301   1.528   .     S
C1300  O1350   1.412   .     S
C1300  H1321   1.113   .     S
C1300  H1320   1.117   .     S
C1301  H1322   1.112   .     S
C1301  H1324   1.112   .     S
C1301  C1302   1.526   .     S
C1302  H1325   1.111   .     S
C1302  H1327   1.110   .     S
C1302  H1326   1.110   .     S
C1303  H1328   1.113   .     S
C1303  H1329   1.112   .     S
C1303  H1330   1.109   .     S
C1304  H1331   1.109   .     S
C1304  H1333   1.109   .     S
C1304  H1332   1.116   .     S
C1304  O1352   1.414   .     S
C1305  H1335   1.113   .     S
C1305  H1336   1.113   .     S
C1305  H1337   1.109   .     S
C1305  O1353   1.410   .     S
C1306  C1307   1.415   .     A
C1306  C1308   1.425   .     A
C1307  C492    1.390   1_556 S
C1308  C490    1.426   1_556 S
C1309  C1310   1.429   .     A
C1310  C1311   1.394   .     A
C1310  O1353   1.381   .     S
C1311  H1312   1.085   .     S
H1314  C477    1.115   1_556 S
H1316  C1116   1.112   1_655 S
H1323  C1103   1.086   1_655 S
O1344  Zn1362  1.961   .     S
O1344  Zn1365  1.927   .     S
O1344  Zn1364  1.935   .     S
O1344  Zn1363  1.944   .     S
O1345  Zn1363  1.928   .     S
O1346  Zn1365  1.939   .     S
O1347  Zn1364  1.932   .     S
O1348  Zn1362  1.921   .     S
O1351  C1561   1.401   .     S
O1351  C1576   1.412   .     S
O1354  Zn1362  1.935   .     S
O1355  Zn1365  1.940   .     S
O1356  Zn1363  1.921   .     S
O1357  Zn1364  1.933   .     S
O1358  Zn1365  1.929   .     S
O1359  Zn1362  1.920   .     S
O1360  Zn1363  1.944   .     S
O1361  Zn1364  1.936   .     S
C1366  C1376   1.436   .     S
C1366  O1449   1.268   .     A
C1366  O1447   1.269   .     A
C1367  H1434   1.077   .     S
C1367  C1399   1.413   .     A
C1367  C1368   1.384   .     A
C1368  H1430   1.083   .     S
C1368  C551    1.394   1_556 S
C1369  O1450   1.282   .     A
C1369  C1375   1.460   .     S
C1369  O1448   1.282   .     A
C1370  C1371   1.422   .     A
C1370  C1372   1.415   .     A
C1371  C1374   1.406   .     A
C1371  C1400   1.432   .     A
C1372  C1373   1.401   .     A
C1372  O1440   1.385   .     S
C1373  C1385   1.407   .     A
C1373  O1443   1.387   .     S
C1374  H1429   1.077   .     S
C1374  C1385   1.391   .     A
C1375  C1467   1.339   .     S
C1375  O1532   1.387   .     S
C1376  C1557   1.339   1_455 S
C1376  H1596   1.086   1_455 S
C1377  H1432   1.083   .     S
C1377  C1386   1.393   .     A
C1377  C1384   1.400   .     A
C1378  C1381   1.455   .     S
C1378  C833    1.345   1_565 S
C1378  H879    1.088   1_565 S
C1379  C1380   1.445   .     S
C1380  O1445   1.273   .     A
C1380  O1451   1.276   .     A
C1381  O1452   1.274   .     A
C1381  O1446   1.262   .     A
C1382  O1438   1.274   .     A
C1382  C1385   1.453   .     S
C1382  O1436   1.275   .     A
C1383  C1384   1.472   .     S
C1383  O1439   1.284   .     A
C1383  O1437   1.283   .     A
C1384  C1388   1.399   .     A
C1386  H1431   1.084   .     S
C1386  C1398   1.404   .     A
C1387  O1440   1.414   .     S
C1387  H1404   1.113   .     S
C1388  H1433   1.076   .     S
C1388  C1397   1.409   .     A
C1389  C1390   1.527   .     S
C1389  C750    1.528   1_456 S
C1389  H587    1.112   1_556 S
C1389  H1589   1.112   1_455 S
C1390  H1408   1.111   .     S
C1390  H1409   1.110   .     S
C1390  H1410   1.111   .     S
C1391  C1392   1.528   .     S
C1391  O1441   1.412   .     S
C1391  H1412   1.113   .     S
C1391  H1411   1.117   .     S
C1392  H1413   1.112   .     S
C1392  H1415   1.112   .     S
C1392  C1393   1.526   .     S
C1393  H1416   1.111   .     S
C1393  H1418   1.110   .     S
C1393  H1417   1.110   .     S
C1394  H1419   1.113   .     S
C1394  H1420   1.112   .     S
C1394  H1421   1.109   .     S
C1395  H1422   1.109   .     S
C1395  H1424   1.109   .     S
C1395  H1423   1.116   .     S
C1395  O1443   1.414   .     S
C1396  H1426   1.113   .     S
C1396  H1427   1.113   .     S
C1396  H1428   1.109   .     S
C1396  O1444   1.410   .     S
C1397  C1398   1.415   .     A
C1397  C1399   1.425   .     A
C1398  C583    1.390   1_556 S
C1399  C581    1.426   1_556 S
C1400  C1401   1.429   .     A
C1401  C1402   1.394   .     A
C1401  O1444   1.381   .     S
C1402  H1403   1.085   .     S
H1405  C568    1.115   1_556 S
H1407  C1480   1.112   .     S
H1414  C1467   1.086   .     S
O1435  Zn1453  1.961   .     S
O1435  Zn1456  1.927   .     S
O1435  Zn1455  1.935   .     S
O1435  Zn1454  1.944   .     S
O1436  Zn1454  1.928   .     S
O1437  Zn1456  1.939   .     S
O1438  Zn1455  1.932   .     S
O1439  Zn1453  1.921   .     S
O1441  C1557   1.387   1_455 S
O1442  C833    1.401   1_565 S
O1442  C848    1.412   1_565 S
O1445  Zn1453  1.935   .     S
O1446  Zn1456  1.940   .     S
O1447  Zn1454  1.921   .     S
O1448  Zn1455  1.933   .     S
O1449  Zn1456  1.929   .     S
O1450  Zn1453  1.920   .     S
O1451  Zn1454  1.944   .     S
O1452  Zn1455  1.936   .     S
C1457  C1467   1.436   .     S
C1457  O1540   1.268   .     A
C1457  O1538   1.269   .     A
C1458  H1525   1.077   .     S
C1458  C1490   1.413   .     A
C1458  C1459   1.384   .     A
C1459  H1521   1.083   .     S
C1459  C642    1.394   1_556 S
C1460  O1541   1.282   .     A
C1460  C1466   1.460   .     S
C1460  O1539   1.282   .     A
C1461  C1462   1.422   .     A
C1461  C1463   1.415   .     A
C1462  C1465   1.406   .     A
C1462  C1491   1.432   .     A
C1463  C1464   1.401   .     A
C1463  O1531   1.385   .     S
C1464  C1476   1.407   .     A
C1464  O1534   1.387   .     S
C1465  H1520   1.077   .     S
C1465  C1476   1.391   .     A
C1466  C1558   1.339   .     S
C1466  O1623   1.387   .     S
C1468  H1523   1.083   .     S
C1468  C1477   1.393   .     A
C1468  C1475   1.400   .     A
C1469  C1472   1.455   .     S
C1469  C924    1.345   1_565 S
C1469  H970    1.088   1_565 S
C1470  C1471   1.445   .     S
C1471  O1536   1.273   .     A
C1471  O1542   1.276   .     A
C1472  O1543   1.274   .     A
C1472  O1537   1.262   .     A
C1473  O1529   1.274   .     A
C1473  C1476   1.453   .     S
C1473  O1527   1.275   .     A
C1474  C1475   1.472   .     S
C1474  O1530   1.284   .     A
C1474  O1528   1.283   .     A
C1475  C1479   1.399   .     A
C1477  H1522   1.084   .     S
C1477  C1489   1.404   .     A
C1478  O1531   1.414   .     S
C1478  H1495   1.113   .     S
C1479  H1524   1.076   .     S
C1479  C1488   1.409   .     A
C1480  C1481   1.527   .     S
C1480  C568    1.528   1_556 S
C1480  H678    1.112   1_556 S
C1481  H1499   1.111   .     S
C1481  H1500   1.110   .     S
C1481  H1501   1.111   .     S
C1482  C1483   1.528   .     S
C1482  O1532   1.412   .     S
C1482  H1503   1.113   .     S
C1482  H1502   1.117   .     S
C1483  H1504   1.112   .     S
C1483  H1506   1.112   .     S
C1483  C1484   1.526   .     S
C1484  H1507   1.111   .     S
C1484  H1509   1.110   .     S
C1484  H1508   1.110   .     S
C1485  H1510   1.113   .     S
C1485  H1511   1.112   .     S
C1485  H1512   1.109   .     S
C1486  H1513   1.109   .     S
C1486  H1515   1.109   .     S
C1486  H1514   1.116   .     S
C1486  O1534   1.414   .     S
C1487  H1517   1.113   .     S
C1487  H1518   1.113   .     S
C1487  H1519   1.109   .     S
C1487  O1535   1.410   .     S
C1488  C1489   1.415   .     A
C1488  C1490   1.425   .     A
C1489  C674    1.390   1_556 S
C1490  C672    1.426   1_556 S
C1491  C1492   1.429   .     A
C1492  C1493   1.394   .     A
C1492  O1535   1.381   .     S
C1493  H1494   1.085   .     S
H1496  C659    1.115   1_556 S
H1498  C1571   1.112   .     S
H1505  C1558   1.086   .     S
O1526  Zn1544  1.961   .     S
O1526  Zn1547  1.927   .     S
O1526  Zn1546  1.935   .     S
O1526  Zn1545  1.944   .     S
O1527  Zn1545  1.928   .     S
O1528  Zn1547  1.939   .     S
O1529  Zn1546  1.932   .     S
O1530  Zn1544  1.921   .     S
O1533  C924    1.401   1_565 S
O1533  C939    1.412   1_565 S
O1536  Zn1544  1.935   .     S
O1537  Zn1547  1.940   .     S
O1538  Zn1545  1.921   .     S
O1539  Zn1546  1.933   .     S
O1540  Zn1547  1.929   .     S
O1541  Zn1544  1.920   .     S
O1542  Zn1545  1.944   .     S
O1543  Zn1546  1.936   .     S
C1548  C1558   1.436   .     S
C1548  O1631   1.268   .     A
C1548  O1629   1.269   .     A
C1549  H1616   1.077   .     S
C1549  C1581   1.413   .     A
C1549  C1550   1.384   .     A
C1550  H1612   1.083   .     S
C1550  C733    1.394   1_556 S
C1551  O1632   1.282   .     A
C1551  C1557   1.460   .     S
C1551  O1630   1.282   .     A
C1552  C1553   1.422   .     A
C1552  C1554   1.415   .     A
C1553  C1556   1.406   .     A
C1553  C1582   1.432   .     A
C1554  C1555   1.401   .     A
C1554  O1622   1.385   .     S
C1555  C1567   1.407   .     A
C1555  O1625   1.387   .     S
C1556  H1611   1.077   .     S
C1556  C1567   1.391   .     A
C1557  C1376   1.339   1_655 S
C1557  O1441   1.387   1_655 S
C1559  H1614   1.083   .     S
C1559  C1568   1.393   .     A
C1559  C1566   1.400   .     A
C1560  C1563   1.455   .     S
C1560  C1015   1.345   1_565 S
C1560  H1061   1.088   1_565 S
C1561  C1562   1.445   .     S
C1562  O1627   1.273   .     A
C1562  O1633   1.276   .     A
C1563  O1634   1.274   .     A
C1563  O1628   1.262   .     A
C1564  O1620   1.274   .     A
C1564  C1567   1.453   .     S
C1564  O1618   1.275   .     A
C1565  C1566   1.472   .     S
C1565  O1621   1.284   .     A
C1565  O1619   1.283   .     A
C1566  C1570   1.399   .     A
C1568  H1613   1.084   .     S
C1568  C1580   1.404   .     A
C1569  O1622   1.414   .     S
C1569  H1586   1.113   .     S
C1569  C570    1.528   1_655 S
C1570  H1615   1.076   .     S
C1570  C1579   1.409   .     A
C1571  C1572   1.527   .     S
C1571  C659    1.528   1_556 S
C1571  H769    1.112   1_556 S
C1572  H1590   1.111   .     S
C1572  H1591   1.110   .     S
C1572  H1592   1.111   .     S
C1573  C1574   1.528   .     S
C1573  O1623   1.412   .     S
C1573  H1594   1.113   .     S
C1573  H1593   1.117   .     S
C1574  H1595   1.112   .     S
C1574  H1597   1.112   .     S
C1574  C1575   1.526   .     S
C1575  H1598   1.111   .     S
C1575  H1600   1.110   .     S
C1575  H1599   1.110   .     S
C1576  H1601   1.113   .     S
C1576  H1602   1.112   .     S
C1576  H1603   1.109   .     S
C1577  H1604   1.109   .     S
C1577  H1606   1.109   .     S
C1577  H1605   1.116   .     S
C1577  O1625   1.414   .     S
C1578  H1608   1.113   .     S
C1578  H1609   1.113   .     S
C1578  H1610   1.109   .     S
C1578  O1626   1.410   .     S
C1579  C1580   1.415   .     A
C1579  C1581   1.425   .     A
C1580  C765    1.390   1_556 S
C1581  C763    1.426   1_556 S
C1582  C1583   1.429   .     A
C1583  C1584   1.394   .     A
C1583  O1626   1.381   .     S
C1584  H1585   1.085   .     S
H1587  C750    1.115   1_556 S
H1589  C1389   1.112   1_655 S
H1596  C1376   1.086   1_655 S
O1617  Zn1635  1.961   .     S
O1617  Zn1638  1.927   .     S
O1617  Zn1637  1.935   .     S
O1617  Zn1636  1.944   .     S
O1618  Zn1636  1.928   .     S
O1619  Zn1638  1.939   .     S
O1620  Zn1637  1.932   .     S
O1621  Zn1635  1.921   .     S
O1624  C1015   1.401   1_565 S
O1624  C1030   1.412   1_565 S
O1627  Zn1635  1.935   .     S
O1628  Zn1638  1.940   .     S
O1629  Zn1636  1.921   .     S
O1630  Zn1637  1.933   .     S
O1631  Zn1638  1.929   .     S
O1632  Zn1635  1.920   .     S
O1633  Zn1636  1.944   .     S
O1634  Zn1637  1.936   .     S
