data_str_m1_o10_o16_pcu_sym.184
_audit_creation_date              2020-01-03
_audit_creation_method            'Materials Studio'
_symmetry_space_group_name_H-M    'P1'
_symmetry_Int_Tables_number       1
_symmetry_cell_setting            triclinic
loop_
_symmetry_equiv_pos_as_xyz
  x,y,z
_cell_length_a                    32.6266
_cell_length_b                    32.5651
_cell_length_c                    30.9705
_cell_angle_alpha                 95.8976
_cell_angle_beta                  74.8534
_cell_angle_gamma                 98.5402
loop_
_atom_site_label
_atom_site_type_symbol
_atom_site_fract_x
_atom_site_fract_y
_atom_site_fract_z
_atom_site_U_iso_or_equiv
_atom_site_adp_type
_atom_site_occupancy
Zn1    Zn    0.19338   0.13994   0.28734   0.00000  Uiso   1.00
Zn2    Zn    0.13379   0.12458   0.21876   0.00000  Uiso   1.00
Zn3    Zn    0.21056   0.19775   0.20657   0.00000  Uiso   1.00
Zn4    Zn    0.12893   0.20439   0.28733   0.00000  Uiso   1.00
O5     O     0.16667   0.16667   0.25000   0.00000  Uiso   1.00
O6     O     0.07071   0.18878   0.28213   0.00000  Uiso   1.00
O7     O     0.25491   0.15226   0.27014   0.00000  Uiso   1.00
O8     O     0.13760   0.06944   0.23413   0.00000  Uiso   1.00
O9     O     0.20345   0.25620   0.21361   0.00000  Uiso   1.00
O10    O     0.15451   0.12637   0.15459   0.00000  Uiso   1.00
O11    O     0.12940   0.20391   0.34968   0.00000  Uiso   1.00
O12    O     0.20824   0.17759   0.14606   0.00000  Uiso   1.00
O13    O     0.17451   0.15880   0.34968   0.00000  Uiso   1.00
O14    O     0.17930   0.08019   0.28214   0.00000  Uiso   1.00
O15    O     0.14632   0.26085   0.27013   0.00000  Uiso   1.00
O16    O     0.07412   0.13291   0.23413   0.00000  Uiso   1.00
O17    O     0.26693   0.19272   0.21361   0.00000  Uiso   1.00
C18    C     0.05314   0.15983   0.25935   0.00000  Uiso   1.00
C19    C     0.28075   0.17363   0.24016   0.00000  Uiso   1.00
C20    C     0.15592   0.05596   0.26070   0.00000  Uiso   1.00
C21    C     0.17646   0.27785   0.23947   0.00000  Uiso   1.00
C22    C     0.18558   0.14816   0.12945   0.00000  Uiso   1.00
C23    C     0.15018   0.18592   0.37064   0.00000  Uiso   1.00
C24    C     0.24316   0.12323   0.00994   0.00000  Uiso   1.00
H25    H     0.26479   0.14123   0.42333   0.00000  Uiso   1.00
C26    C     0.19451   0.14109   0.08107   0.00000  Uiso   1.00
C27    C     0.10622   0.21049   0.44362   0.00000  Uiso   1.00
C28    C     0.09091   0.20692   0.48968   0.00000  Uiso   1.00
C29    C     0.11169   0.18356   0.01140   0.00000  Uiso   1.00
C30    C     0.15415   0.17446   0.48968   0.00000  Uiso   1.00
C31    C     0.17071   0.18127   0.44337   0.00000  Uiso   1.00
C32    C     0.18056   0.15848   0.01243   0.00000  Uiso   1.00
C33    C     0.21917   0.14318   0.48792   0.00000  Uiso   1.00
C34    C     0.23448   0.15052   0.44251   0.00000  Uiso   1.00
C35    C     0.21349   0.17404   0.42207   0.00000  Uiso   1.00
C36    C     0.17120   0.16017   0.05924   0.00000  Uiso   1.00
C37    C     0.22935   0.12067   0.05691   0.00000  Uiso   1.00
C38    C     0.14350   0.19403   0.41967   0.00000  Uiso   1.00
H39    H     0.14725   0.17846   0.07961   0.00000  Uiso   1.00
H40    H     0.08742   0.22405   0.42603   0.00000  Uiso   1.00
C41    C     0.32618   0.17721   0.23824   0.00000  Uiso   1.00
H42    H     0.01458   0.19964   0.21660   0.00000  Uiso   1.00
C43    C     0.00794   0.15493   0.26371   0.00000  Uiso   1.00
C44    C     0.18049   0.32242   0.23403   0.00000  Uiso   1.00
C45    C     0.15362   0.01190   0.26374   0.00000  Uiso   1.00
H46    H     0.12992   0.33155   0.29185   0.00000  Uiso   1.00
N47    N     0.25083   0.09837   0.08034   0.00000  Uiso   1.00
O48    O     0.22864   0.07249   0.10968   0.00000  Uiso   1.00
O49    O     0.29195   0.10636   0.07552   0.00000  Uiso   1.00
N50    N     0.31612   0.12076   0.28833   0.00000  Uiso   1.00
O51    O     0.31984   0.11656   0.32841   0.00000  Uiso   1.00
O52    O     0.29902   0.08901   0.26707   0.00000  Uiso   1.00
N53    N     0.21269   0.00723   0.19706   0.00000  Uiso   1.00
O54    O     0.22191   0.31978   0.15832   0.00000  Uiso   1.00
O55    O     0.23543   0.04276   0.20287   0.00000  Uiso   1.00
N56    N     0.27954   0.10421   0.48463   0.00000  Uiso   1.00
H57    H     0.28226   0.07620   0.49576   0.00000  Uiso   1.00
C58    C     0.31971   0.13155   0.47552   0.00000  Uiso   1.00
H59    H     0.32959   0.14206   0.00690   0.00000  Uiso   1.00
H60    H     0.31716   0.15937   0.45902   0.00000  Uiso   1.00
H61    H     0.01171   0.11466   0.45279   0.00000  Uiso   1.00
N62    N     0.08643   0.16138   0.04935   0.00000  Uiso   1.00
O63    O     0.08449   0.12108   0.04795   0.00000  Uiso   1.00
O64    O     0.06548   0.18083   0.08524   0.00000  Uiso   1.00
N65    N     0.05265   0.22450   0.01319   0.00000  Uiso   1.00
O66    O     0.02345   0.22766   0.49244   0.00000  Uiso   1.00
O67    O     0.05159   0.24603   0.05116   0.00000  Uiso   1.00
N68    N     0.23707   0.19278   0.38175   0.00000  Uiso   1.00
H69    H     0.26302   0.17832   0.36388   0.00000  Uiso   1.00
C70    C     0.24742   0.23750   0.38650   0.00000  Uiso   1.00
H71    H     0.26409   0.24933   0.35321   0.00000  Uiso   1.00
H72    H     0.26884   0.24588   0.40953   0.00000  Uiso   1.00
H73    H     0.21793   0.25272   0.39965   0.00000  Uiso   1.00
Zn74   Zn    0.52672   0.13994   0.28734   0.00000  Uiso   1.00
Zn75   Zn    0.46713   0.12458   0.21876   0.00000  Uiso   1.00
Zn76   Zn    0.54389   0.19775   0.20657   0.00000  Uiso   1.00
Zn77   Zn    0.46226   0.20439   0.28733   0.00000  Uiso   1.00
O78    O     0.50000   0.16667   0.25000   0.00000  Uiso   1.00
O79    O     0.40405   0.18878   0.28213   0.00000  Uiso   1.00
O80    O     0.58824   0.15226   0.27014   0.00000  Uiso   1.00
O81    O     0.47093   0.06944   0.23413   0.00000  Uiso   1.00
O82    O     0.53678   0.25620   0.21361   0.00000  Uiso   1.00
O83    O     0.48784   0.12637   0.15459   0.00000  Uiso   1.00
O84    O     0.46274   0.20391   0.34968   0.00000  Uiso   1.00
O85    O     0.54157   0.17759   0.14606   0.00000  Uiso   1.00
O86    O     0.50785   0.15880   0.34968   0.00000  Uiso   1.00
O87    O     0.51264   0.08019   0.28214   0.00000  Uiso   1.00
O88    O     0.47965   0.26085   0.27013   0.00000  Uiso   1.00
O89    O     0.40745   0.13291   0.23413   0.00000  Uiso   1.00
O90    O     0.60026   0.19272   0.21361   0.00000  Uiso   1.00
C91    C     0.38647   0.15983   0.25935   0.00000  Uiso   1.00
C92    C     0.61408   0.17363   0.24016   0.00000  Uiso   1.00
C93    C     0.48925   0.05596   0.26070   0.00000  Uiso   1.00
C94    C     0.50979   0.27785   0.23947   0.00000  Uiso   1.00
C95    C     0.51891   0.14816   0.12945   0.00000  Uiso   1.00
C96    C     0.48351   0.18592   0.37064   0.00000  Uiso   1.00
C97    C     0.57650   0.12323   0.00994   0.00000  Uiso   1.00
H98    H     0.59813   0.14123   0.42333   0.00000  Uiso   1.00
C99    C     0.52784   0.14109   0.08107   0.00000  Uiso   1.00
C100   C     0.43956   0.21049   0.44362   0.00000  Uiso   1.00
C101   C     0.42425   0.20692   0.48968   0.00000  Uiso   1.00
C102   C     0.44503   0.18356   0.01140   0.00000  Uiso   1.00
C103   C     0.48748   0.17446   0.48968   0.00000  Uiso   1.00
C104   C     0.50404   0.18127   0.44337   0.00000  Uiso   1.00
C105   C     0.51389   0.15848   0.01243   0.00000  Uiso   1.00
C106   C     0.55251   0.14318   0.48792   0.00000  Uiso   1.00
C107   C     0.56781   0.15052   0.44251   0.00000  Uiso   1.00
C108   C     0.54683   0.17404   0.42207   0.00000  Uiso   1.00
C109   C     0.50453   0.16017   0.05924   0.00000  Uiso   1.00
C110   C     0.56268   0.12067   0.05691   0.00000  Uiso   1.00
C111   C     0.47683   0.19403   0.41967   0.00000  Uiso   1.00
H112   H     0.48058   0.17846   0.07961   0.00000  Uiso   1.00
H113   H     0.42076   0.22405   0.42603   0.00000  Uiso   1.00
C114   C     0.65951   0.17721   0.23824   0.00000  Uiso   1.00
H115   H     0.34791   0.19964   0.21660   0.00000  Uiso   1.00
C116   C     0.34127   0.15493   0.26371   0.00000  Uiso   1.00
C117   C     0.51382   0.32242   0.23403   0.00000  Uiso   1.00
C118   C     0.48696   0.01190   0.26374   0.00000  Uiso   1.00
H119   H     0.46325   0.33155   0.29185   0.00000  Uiso   1.00
N120   N     0.58416   0.09837   0.08034   0.00000  Uiso   1.00
O121   O     0.56198   0.07249   0.10968   0.00000  Uiso   1.00
O122   O     0.62529   0.10636   0.07552   0.00000  Uiso   1.00
N123   N     0.64945   0.12076   0.28833   0.00000  Uiso   1.00
O124   O     0.65317   0.11656   0.32841   0.00000  Uiso   1.00
O125   O     0.63235   0.08901   0.26707   0.00000  Uiso   1.00
N126   N     0.54602   0.00723   0.19706   0.00000  Uiso   1.00
O127   O     0.55525   0.31978   0.15832   0.00000  Uiso   1.00
O128   O     0.56877   0.04276   0.20287   0.00000  Uiso   1.00
N129   N     0.61287   0.10421   0.48463   0.00000  Uiso   1.00
H130   H     0.61559   0.07620   0.49576   0.00000  Uiso   1.00
C131   C     0.65304   0.13155   0.47552   0.00000  Uiso   1.00
H132   H     0.66293   0.14206   0.00690   0.00000  Uiso   1.00
H133   H     0.65049   0.15937   0.45902   0.00000  Uiso   1.00
H134   H     0.34505   0.11466   0.45279   0.00000  Uiso   1.00
N135   N     0.41976   0.16138   0.04935   0.00000  Uiso   1.00
O136   O     0.41783   0.12108   0.04795   0.00000  Uiso   1.00
O137   O     0.39881   0.18083   0.08524   0.00000  Uiso   1.00
N138   N     0.38598   0.22450   0.01319   0.00000  Uiso   1.00
O139   O     0.35679   0.22766   0.49244   0.00000  Uiso   1.00
O140   O     0.38492   0.24603   0.05116   0.00000  Uiso   1.00
N141   N     0.57041   0.19278   0.38175   0.00000  Uiso   1.00
H142   H     0.59636   0.17832   0.36388   0.00000  Uiso   1.00
C143   C     0.58076   0.23750   0.38650   0.00000  Uiso   1.00
H144   H     0.59742   0.24933   0.35321   0.00000  Uiso   1.00
H145   H     0.60218   0.24588   0.40953   0.00000  Uiso   1.00
H146   H     0.55126   0.25272   0.39965   0.00000  Uiso   1.00
Zn147  Zn    0.86005   0.13994   0.28734   0.00000  Uiso   1.00
Zn148  Zn    0.80046   0.12458   0.21876   0.00000  Uiso   1.00
Zn149  Zn    0.87723   0.19775   0.20657   0.00000  Uiso   1.00
Zn150  Zn    0.79560   0.20439   0.28733   0.00000  Uiso   1.00
O151   O     0.83333   0.16667   0.25000   0.00000  Uiso   1.00
O152   O     0.73738   0.18878   0.28213   0.00000  Uiso   1.00
O153   O     0.92158   0.15226   0.27014   0.00000  Uiso   1.00
O154   O     0.80426   0.06944   0.23413   0.00000  Uiso   1.00
O155   O     0.87012   0.25620   0.21361   0.00000  Uiso   1.00
O156   O     0.82118   0.12637   0.15459   0.00000  Uiso   1.00
O157   O     0.79607   0.20391   0.34968   0.00000  Uiso   1.00
O158   O     0.87491   0.17759   0.14606   0.00000  Uiso   1.00
O159   O     0.84118   0.15880   0.34968   0.00000  Uiso   1.00
O160   O     0.84597   0.08019   0.28214   0.00000  Uiso   1.00
O161   O     0.81298   0.26085   0.27013   0.00000  Uiso   1.00
O162   O     0.74078   0.13291   0.23413   0.00000  Uiso   1.00
O163   O     0.93360   0.19272   0.21361   0.00000  Uiso   1.00
C164   C     0.71980   0.15983   0.25935   0.00000  Uiso   1.00
C165   C     0.94742   0.17363   0.24016   0.00000  Uiso   1.00
C166   C     0.82258   0.05596   0.26070   0.00000  Uiso   1.00
C167   C     0.84313   0.27785   0.23947   0.00000  Uiso   1.00
C168   C     0.85225   0.14816   0.12945   0.00000  Uiso   1.00
C169   C     0.81685   0.18592   0.37064   0.00000  Uiso   1.00
C170   C     0.90983   0.12323   0.00994   0.00000  Uiso   1.00
H171   H     0.93146   0.14123   0.42333   0.00000  Uiso   1.00
C172   C     0.86118   0.14109   0.08107   0.00000  Uiso   1.00
C173   C     0.77289   0.21049   0.44362   0.00000  Uiso   1.00
C174   C     0.75758   0.20692   0.48968   0.00000  Uiso   1.00
C175   C     0.77836   0.18356   0.01140   0.00000  Uiso   1.00
C176   C     0.82081   0.17446   0.48968   0.00000  Uiso   1.00
C177   C     0.83738   0.18127   0.44337   0.00000  Uiso   1.00
C178   C     0.84722   0.15848   0.01243   0.00000  Uiso   1.00
C179   C     0.88584   0.14318   0.48792   0.00000  Uiso   1.00
C180   C     0.90115   0.15052   0.44251   0.00000  Uiso   1.00
C181   C     0.88016   0.17404   0.42207   0.00000  Uiso   1.00
C182   C     0.83786   0.16017   0.05924   0.00000  Uiso   1.00
C183   C     0.89602   0.12067   0.05691   0.00000  Uiso   1.00
C184   C     0.81017   0.19403   0.41967   0.00000  Uiso   1.00
H185   H     0.81392   0.17846   0.07961   0.00000  Uiso   1.00
H186   H     0.75409   0.22405   0.42603   0.00000  Uiso   1.00
C187   C     0.99285   0.17721   0.23824   0.00000  Uiso   1.00
H188   H     0.68124   0.19964   0.21660   0.00000  Uiso   1.00
C189   C     0.67460   0.15493   0.26371   0.00000  Uiso   1.00
C190   C     0.84715   0.32242   0.23403   0.00000  Uiso   1.00
C191   C     0.82029   0.01190   0.26374   0.00000  Uiso   1.00
H192   H     0.79658   0.33155   0.29185   0.00000  Uiso   1.00
N193   N     0.91749   0.09837   0.08034   0.00000  Uiso   1.00
O194   O     0.89531   0.07249   0.10968   0.00000  Uiso   1.00
O195   O     0.95862   0.10636   0.07552   0.00000  Uiso   1.00
N196   N     0.98279   0.12076   0.28833   0.00000  Uiso   1.00
O197   O     0.98650   0.11656   0.32841   0.00000  Uiso   1.00
O198   O     0.96568   0.08901   0.26707   0.00000  Uiso   1.00
N199   N     0.87935   0.00723   0.19706   0.00000  Uiso   1.00
O200   O     0.88858   0.31978   0.15832   0.00000  Uiso   1.00
O201   O     0.90210   0.04276   0.20287   0.00000  Uiso   1.00
N202   N     0.94621   0.10421   0.48463   0.00000  Uiso   1.00
H203   H     0.94892   0.07620   0.49576   0.00000  Uiso   1.00
C204   C     0.98638   0.13155   0.47552   0.00000  Uiso   1.00
H205   H     0.99626   0.14206   0.00690   0.00000  Uiso   1.00
H206   H     0.98383   0.15937   0.45902   0.00000  Uiso   1.00
H207   H     0.67838   0.11466   0.45279   0.00000  Uiso   1.00
N208   N     0.75310   0.16138   0.04935   0.00000  Uiso   1.00
O209   O     0.75116   0.12108   0.04795   0.00000  Uiso   1.00
O210   O     0.73214   0.18083   0.08524   0.00000  Uiso   1.00
N211   N     0.71931   0.22450   0.01319   0.00000  Uiso   1.00
O212   O     0.69012   0.22766   0.49244   0.00000  Uiso   1.00
O213   O     0.71825   0.24603   0.05116   0.00000  Uiso   1.00
N214   N     0.90374   0.19278   0.38175   0.00000  Uiso   1.00
H215   H     0.92969   0.17832   0.36388   0.00000  Uiso   1.00
C216   C     0.91409   0.23750   0.38650   0.00000  Uiso   1.00
H217   H     0.93075   0.24933   0.35321   0.00000  Uiso   1.00
H218   H     0.93551   0.24588   0.40953   0.00000  Uiso   1.00
H219   H     0.88459   0.25272   0.39965   0.00000  Uiso   1.00
Zn220  Zn    0.19338   0.47327   0.28734   0.00000  Uiso   1.00
Zn221  Zn    0.13379   0.45791   0.21876   0.00000  Uiso   1.00
Zn222  Zn    0.21056   0.53109   0.20657   0.00000  Uiso   1.00
Zn223  Zn    0.12893   0.53773   0.28733   0.00000  Uiso   1.00
O224   O     0.16667   0.50000   0.25000   0.00000  Uiso   1.00
O225   O     0.07071   0.52211   0.28213   0.00000  Uiso   1.00
O226   O     0.25491   0.48559   0.27014   0.00000  Uiso   1.00
O227   O     0.13760   0.40277   0.23413   0.00000  Uiso   1.00
O228   O     0.20345   0.58953   0.21361   0.00000  Uiso   1.00
O229   O     0.15451   0.45970   0.15459   0.00000  Uiso   1.00
O230   O     0.12940   0.53724   0.34968   0.00000  Uiso   1.00
O231   O     0.20824   0.51092   0.14606   0.00000  Uiso   1.00
O232   O     0.17451   0.49213   0.34968   0.00000  Uiso   1.00
O233   O     0.17930   0.41352   0.28214   0.00000  Uiso   1.00
O234   O     0.14632   0.59418   0.27013   0.00000  Uiso   1.00
O235   O     0.07412   0.46625   0.23413   0.00000  Uiso   1.00
O236   O     0.26693   0.52605   0.21361   0.00000  Uiso   1.00
C237   C     0.05314   0.49316   0.25935   0.00000  Uiso   1.00
C238   C     0.28075   0.50696   0.24016   0.00000  Uiso   1.00
C239   C     0.15592   0.38929   0.26070   0.00000  Uiso   1.00
C240   C     0.17646   0.61118   0.23947   0.00000  Uiso   1.00
C241   C     0.18558   0.48150   0.12945   0.00000  Uiso   1.00
C242   C     0.15018   0.51925   0.37064   0.00000  Uiso   1.00
C243   C     0.24316   0.45656   0.00994   0.00000  Uiso   1.00
H244   H     0.26479   0.47457   0.42333   0.00000  Uiso   1.00
C245   C     0.19451   0.47443   0.08107   0.00000  Uiso   1.00
C246   C     0.10622   0.54382   0.44362   0.00000  Uiso   1.00
C247   C     0.09091   0.54026   0.48968   0.00000  Uiso   1.00
C248   C     0.11169   0.51689   0.01140   0.00000  Uiso   1.00
C249   C     0.15415   0.50779   0.48968   0.00000  Uiso   1.00
C250   C     0.17071   0.51460   0.44337   0.00000  Uiso   1.00
C251   C     0.18056   0.49181   0.01243   0.00000  Uiso   1.00
C252   C     0.21917   0.47651   0.48792   0.00000  Uiso   1.00
C253   C     0.23448   0.48386   0.44251   0.00000  Uiso   1.00
C254   C     0.21349   0.50737   0.42207   0.00000  Uiso   1.00
C255   C     0.17120   0.49350   0.05924   0.00000  Uiso   1.00
C256   C     0.22935   0.45400   0.05691   0.00000  Uiso   1.00
C257   C     0.14350   0.52737   0.41967   0.00000  Uiso   1.00
H258   H     0.14725   0.51179   0.07961   0.00000  Uiso   1.00
H259   H     0.08742   0.55739   0.42603   0.00000  Uiso   1.00
C260   C     0.32618   0.51055   0.23824   0.00000  Uiso   1.00
H261   H     0.01458   0.53297   0.21660   0.00000  Uiso   1.00
C262   C     0.00794   0.48826   0.26371   0.00000  Uiso   1.00
C263   C     0.18049   0.65575   0.23403   0.00000  Uiso   1.00
C264   C     0.15362   0.34523   0.26374   0.00000  Uiso   1.00
H265   H     0.12992   0.66489   0.29185   0.00000  Uiso   1.00
N266   N     0.25083   0.43170   0.08034   0.00000  Uiso   1.00
O267   O     0.22864   0.40582   0.10968   0.00000  Uiso   1.00
O268   O     0.29195   0.43969   0.07552   0.00000  Uiso   1.00
N269   N     0.31612   0.45409   0.28833   0.00000  Uiso   1.00
O270   O     0.31984   0.44989   0.32841   0.00000  Uiso   1.00
O271   O     0.29902   0.42235   0.26707   0.00000  Uiso   1.00
N272   N     0.21269   0.34056   0.19706   0.00000  Uiso   1.00
O273   O     0.22191   0.65311   0.15832   0.00000  Uiso   1.00
O274   O     0.23543   0.37609   0.20287   0.00000  Uiso   1.00
N275   N     0.27954   0.43754   0.48463   0.00000  Uiso   1.00
H276   H     0.28226   0.40953   0.49576   0.00000  Uiso   1.00
C277   C     0.31971   0.46488   0.47552   0.00000  Uiso   1.00
H278   H     0.32959   0.47539   0.00690   0.00000  Uiso   1.00
H279   H     0.31716   0.49271   0.45902   0.00000  Uiso   1.00
H280   H     0.01171   0.44800   0.45279   0.00000  Uiso   1.00
N281   N     0.08643   0.49472   0.04935   0.00000  Uiso   1.00
O282   O     0.08449   0.45441   0.04795   0.00000  Uiso   1.00
O283   O     0.06548   0.51416   0.08524   0.00000  Uiso   1.00
N284   N     0.05265   0.55784   0.01319   0.00000  Uiso   1.00
O285   O     0.02345   0.56099   0.49244   0.00000  Uiso   1.00
O286   O     0.05159   0.57936   0.05116   0.00000  Uiso   1.00
N287   N     0.23707   0.52611   0.38175   0.00000  Uiso   1.00
H288   H     0.26302   0.51166   0.36388   0.00000  Uiso   1.00
C289   C     0.24742   0.57083   0.38650   0.00000  Uiso   1.00
H290   H     0.26409   0.58266   0.35321   0.00000  Uiso   1.00
H291   H     0.26884   0.57922   0.40953   0.00000  Uiso   1.00
H292   H     0.21793   0.58605   0.39965   0.00000  Uiso   1.00
Zn293  Zn    0.52672   0.47327   0.28734   0.00000  Uiso   1.00
Zn294  Zn    0.46713   0.45791   0.21876   0.00000  Uiso   1.00
Zn295  Zn    0.54389   0.53109   0.20657   0.00000  Uiso   1.00
Zn296  Zn    0.46226   0.53773   0.28733   0.00000  Uiso   1.00
O297   O     0.50000   0.50000   0.25000   0.00000  Uiso   1.00
O298   O     0.40405   0.52211   0.28213   0.00000  Uiso   1.00
O299   O     0.58824   0.48559   0.27014   0.00000  Uiso   1.00
O300   O     0.47093   0.40277   0.23413   0.00000  Uiso   1.00
O301   O     0.53678   0.58953   0.21361   0.00000  Uiso   1.00
O302   O     0.48784   0.45970   0.15459   0.00000  Uiso   1.00
O303   O     0.46274   0.53724   0.34968   0.00000  Uiso   1.00
O304   O     0.54157   0.51092   0.14606   0.00000  Uiso   1.00
O305   O     0.50785   0.49213   0.34968   0.00000  Uiso   1.00
O306   O     0.51264   0.41352   0.28214   0.00000  Uiso   1.00
O307   O     0.47965   0.59418   0.27013   0.00000  Uiso   1.00
O308   O     0.40745   0.46625   0.23413   0.00000  Uiso   1.00
O309   O     0.60026   0.52605   0.21361   0.00000  Uiso   1.00
C310   C     0.38647   0.49316   0.25935   0.00000  Uiso   1.00
C311   C     0.61408   0.50696   0.24016   0.00000  Uiso   1.00
C312   C     0.48925   0.38929   0.26070   0.00000  Uiso   1.00
C313   C     0.50979   0.61118   0.23947   0.00000  Uiso   1.00
C314   C     0.51891   0.48150   0.12945   0.00000  Uiso   1.00
C315   C     0.48351   0.51925   0.37064   0.00000  Uiso   1.00
C316   C     0.57650   0.45656   0.00994   0.00000  Uiso   1.00
H317   H     0.59813   0.47457   0.42333   0.00000  Uiso   1.00
C318   C     0.52784   0.47443   0.08107   0.00000  Uiso   1.00
C319   C     0.43956   0.54382   0.44362   0.00000  Uiso   1.00
C320   C     0.42425   0.54026   0.48968   0.00000  Uiso   1.00
C321   C     0.44503   0.51689   0.01140   0.00000  Uiso   1.00
C322   C     0.48748   0.50779   0.48968   0.00000  Uiso   1.00
C323   C     0.50404   0.51460   0.44337   0.00000  Uiso   1.00
C324   C     0.51389   0.49181   0.01243   0.00000  Uiso   1.00
C325   C     0.55251   0.47651   0.48792   0.00000  Uiso   1.00
C326   C     0.56781   0.48386   0.44251   0.00000  Uiso   1.00
C327   C     0.54683   0.50737   0.42207   0.00000  Uiso   1.00
C328   C     0.50453   0.49350   0.05924   0.00000  Uiso   1.00
C329   C     0.56268   0.45400   0.05691   0.00000  Uiso   1.00
C330   C     0.47683   0.52737   0.41967   0.00000  Uiso   1.00
H331   H     0.48058   0.51179   0.07961   0.00000  Uiso   1.00
H332   H     0.42076   0.55739   0.42603   0.00000  Uiso   1.00
C333   C     0.65951   0.51055   0.23824   0.00000  Uiso   1.00
H334   H     0.34791   0.53297   0.21660   0.00000  Uiso   1.00
C335   C     0.34127   0.48826   0.26371   0.00000  Uiso   1.00
C336   C     0.51382   0.65575   0.23403   0.00000  Uiso   1.00
C337   C     0.48696   0.34523   0.26374   0.00000  Uiso   1.00
H338   H     0.46325   0.66489   0.29185   0.00000  Uiso   1.00
N339   N     0.58416   0.43170   0.08034   0.00000  Uiso   1.00
O340   O     0.56198   0.40582   0.10968   0.00000  Uiso   1.00
O341   O     0.62529   0.43969   0.07552   0.00000  Uiso   1.00
N342   N     0.64945   0.45409   0.28833   0.00000  Uiso   1.00
O343   O     0.65317   0.44989   0.32841   0.00000  Uiso   1.00
O344   O     0.63235   0.42235   0.26707   0.00000  Uiso   1.00
N345   N     0.54602   0.34056   0.19706   0.00000  Uiso   1.00
O346   O     0.55525   0.65311   0.15832   0.00000  Uiso   1.00
O347   O     0.56877   0.37609   0.20287   0.00000  Uiso   1.00
N348   N     0.61287   0.43754   0.48463   0.00000  Uiso   1.00
H349   H     0.61559   0.40953   0.49576   0.00000  Uiso   1.00
C350   C     0.65304   0.46488   0.47552   0.00000  Uiso   1.00
H351   H     0.66293   0.47539   0.00690   0.00000  Uiso   1.00
H352   H     0.65049   0.49271   0.45902   0.00000  Uiso   1.00
H353   H     0.34505   0.44800   0.45279   0.00000  Uiso   1.00
N354   N     0.41976   0.49472   0.04935   0.00000  Uiso   1.00
O355   O     0.41783   0.45441   0.04795   0.00000  Uiso   1.00
O356   O     0.39881   0.51416   0.08524   0.00000  Uiso   1.00
N357   N     0.38598   0.55784   0.01319   0.00000  Uiso   1.00
O358   O     0.35679   0.56099   0.49244   0.00000  Uiso   1.00
O359   O     0.38492   0.57936   0.05116   0.00000  Uiso   1.00
N360   N     0.57041   0.52611   0.38175   0.00000  Uiso   1.00
H361   H     0.59636   0.51166   0.36388   0.00000  Uiso   1.00
C362   C     0.58076   0.57083   0.38650   0.00000  Uiso   1.00
H363   H     0.59742   0.58266   0.35321   0.00000  Uiso   1.00
H364   H     0.60218   0.57922   0.40953   0.00000  Uiso   1.00
H365   H     0.55126   0.58605   0.39965   0.00000  Uiso   1.00
Zn366  Zn    0.86005   0.47327   0.28734   0.00000  Uiso   1.00
Zn367  Zn    0.80046   0.45791   0.21876   0.00000  Uiso   1.00
Zn368  Zn    0.87723   0.53109   0.20657   0.00000  Uiso   1.00
Zn369  Zn    0.79560   0.53773   0.28733   0.00000  Uiso   1.00
O370   O     0.83333   0.50000   0.25000   0.00000  Uiso   1.00
O371   O     0.73738   0.52211   0.28213   0.00000  Uiso   1.00
O372   O     0.92158   0.48559   0.27014   0.00000  Uiso   1.00
O373   O     0.80426   0.40277   0.23413   0.00000  Uiso   1.00
O374   O     0.87012   0.58953   0.21361   0.00000  Uiso   1.00
O375   O     0.82118   0.45970   0.15459   0.00000  Uiso   1.00
O376   O     0.79607   0.53724   0.34968   0.00000  Uiso   1.00
O377   O     0.87491   0.51092   0.14606   0.00000  Uiso   1.00
O378   O     0.84118   0.49213   0.34968   0.00000  Uiso   1.00
O379   O     0.84597   0.41352   0.28214   0.00000  Uiso   1.00
O380   O     0.81298   0.59418   0.27013   0.00000  Uiso   1.00
O381   O     0.74078   0.46625   0.23413   0.00000  Uiso   1.00
O382   O     0.93360   0.52605   0.21361   0.00000  Uiso   1.00
C383   C     0.71980   0.49316   0.25935   0.00000  Uiso   1.00
C384   C     0.94742   0.50696   0.24016   0.00000  Uiso   1.00
C385   C     0.82258   0.38929   0.26070   0.00000  Uiso   1.00
C386   C     0.84313   0.61118   0.23947   0.00000  Uiso   1.00
C387   C     0.85225   0.48150   0.12945   0.00000  Uiso   1.00
C388   C     0.81685   0.51925   0.37064   0.00000  Uiso   1.00
C389   C     0.90983   0.45656   0.00994   0.00000  Uiso   1.00
H390   H     0.93146   0.47457   0.42333   0.00000  Uiso   1.00
C391   C     0.86118   0.47443   0.08107   0.00000  Uiso   1.00
C392   C     0.77289   0.54382   0.44362   0.00000  Uiso   1.00
C393   C     0.75758   0.54026   0.48968   0.00000  Uiso   1.00
C394   C     0.77836   0.51689   0.01140   0.00000  Uiso   1.00
C395   C     0.82081   0.50779   0.48968   0.00000  Uiso   1.00
C396   C     0.83738   0.51460   0.44337   0.00000  Uiso   1.00
C397   C     0.84722   0.49181   0.01243   0.00000  Uiso   1.00
C398   C     0.88584   0.47651   0.48792   0.00000  Uiso   1.00
C399   C     0.90115   0.48386   0.44251   0.00000  Uiso   1.00
C400   C     0.88016   0.50737   0.42207   0.00000  Uiso   1.00
C401   C     0.83786   0.49350   0.05924   0.00000  Uiso   1.00
C402   C     0.89602   0.45400   0.05691   0.00000  Uiso   1.00
C403   C     0.81017   0.52737   0.41967   0.00000  Uiso   1.00
H404   H     0.81392   0.51179   0.07961   0.00000  Uiso   1.00
H405   H     0.75409   0.55739   0.42603   0.00000  Uiso   1.00
C406   C     0.99285   0.51055   0.23824   0.00000  Uiso   1.00
H407   H     0.68124   0.53297   0.21660   0.00000  Uiso   1.00
C408   C     0.67460   0.48826   0.26371   0.00000  Uiso   1.00
C409   C     0.84715   0.65575   0.23403   0.00000  Uiso   1.00
C410   C     0.82029   0.34523   0.26374   0.00000  Uiso   1.00
H411   H     0.79658   0.66489   0.29185   0.00000  Uiso   1.00
N412   N     0.91749   0.43170   0.08034   0.00000  Uiso   1.00
O413   O     0.89531   0.40582   0.10968   0.00000  Uiso   1.00
O414   O     0.95862   0.43969   0.07552   0.00000  Uiso   1.00
N415   N     0.98279   0.45409   0.28833   0.00000  Uiso   1.00
O416   O     0.98650   0.44989   0.32841   0.00000  Uiso   1.00
O417   O     0.96568   0.42235   0.26707   0.00000  Uiso   1.00
N418   N     0.87935   0.34056   0.19706   0.00000  Uiso   1.00
O419   O     0.88858   0.65311   0.15832   0.00000  Uiso   1.00
O420   O     0.90210   0.37609   0.20287   0.00000  Uiso   1.00
N421   N     0.94621   0.43754   0.48463   0.00000  Uiso   1.00
H422   H     0.94892   0.40953   0.49576   0.00000  Uiso   1.00
C423   C     0.98638   0.46488   0.47552   0.00000  Uiso   1.00
H424   H     0.99626   0.47539   0.00690   0.00000  Uiso   1.00
H425   H     0.98383   0.49271   0.45902   0.00000  Uiso   1.00
H426   H     0.67838   0.44800   0.45279   0.00000  Uiso   1.00
N427   N     0.75310   0.49472   0.04935   0.00000  Uiso   1.00
O428   O     0.75116   0.45441   0.04795   0.00000  Uiso   1.00
O429   O     0.73214   0.51416   0.08524   0.00000  Uiso   1.00
N430   N     0.71931   0.55784   0.01319   0.00000  Uiso   1.00
O431   O     0.69012   0.56099   0.49244   0.00000  Uiso   1.00
O432   O     0.71825   0.57936   0.05116   0.00000  Uiso   1.00
N433   N     0.90374   0.52611   0.38175   0.00000  Uiso   1.00
H434   H     0.92969   0.51166   0.36388   0.00000  Uiso   1.00
C435   C     0.91409   0.57083   0.38650   0.00000  Uiso   1.00
H436   H     0.93075   0.58266   0.35321   0.00000  Uiso   1.00
H437   H     0.93551   0.57922   0.40953   0.00000  Uiso   1.00
H438   H     0.88459   0.58605   0.39965   0.00000  Uiso   1.00
Zn439  Zn    0.19338   0.80661   0.28734   0.00000  Uiso   1.00
Zn440  Zn    0.13379   0.79124   0.21876   0.00000  Uiso   1.00
Zn441  Zn    0.21056   0.86442   0.20657   0.00000  Uiso   1.00
Zn442  Zn    0.12893   0.87106   0.28733   0.00000  Uiso   1.00
O443   O     0.16667   0.83333   0.25000   0.00000  Uiso   1.00
O444   O     0.07071   0.85544   0.28213   0.00000  Uiso   1.00
O445   O     0.25491   0.81892   0.27014   0.00000  Uiso   1.00
O446   O     0.13760   0.73610   0.23413   0.00000  Uiso   1.00
O447   O     0.20345   0.92286   0.21361   0.00000  Uiso   1.00
O448   O     0.15451   0.79304   0.15459   0.00000  Uiso   1.00
O449   O     0.12940   0.87058   0.34968   0.00000  Uiso   1.00
O450   O     0.20824   0.84425   0.14606   0.00000  Uiso   1.00
O451   O     0.17451   0.82546   0.34968   0.00000  Uiso   1.00
O452   O     0.17930   0.74686   0.28214   0.00000  Uiso   1.00
O453   O     0.14632   0.92751   0.27013   0.00000  Uiso   1.00
O454   O     0.07412   0.79958   0.23413   0.00000  Uiso   1.00
O455   O     0.26693   0.85939   0.21361   0.00000  Uiso   1.00
C456   C     0.05314   0.82650   0.25935   0.00000  Uiso   1.00
C457   C     0.28075   0.84029   0.24016   0.00000  Uiso   1.00
C458   C     0.15592   0.72262   0.26070   0.00000  Uiso   1.00
C459   C     0.17646   0.94452   0.23947   0.00000  Uiso   1.00
C460   C     0.18558   0.81483   0.12945   0.00000  Uiso   1.00
C461   C     0.15018   0.85259   0.37064   0.00000  Uiso   1.00
C462   C     0.24316   0.78990   0.00994   0.00000  Uiso   1.00
H463   H     0.26479   0.80790   0.42333   0.00000  Uiso   1.00
C464   C     0.19451   0.80776   0.08107   0.00000  Uiso   1.00
C465   C     0.10622   0.87715   0.44362   0.00000  Uiso   1.00
C466   C     0.09091   0.87359   0.48968   0.00000  Uiso   1.00
C467   C     0.11169   0.85023   0.01140   0.00000  Uiso   1.00
C468   C     0.15415   0.84112   0.48968   0.00000  Uiso   1.00
C469   C     0.17071   0.84794   0.44337   0.00000  Uiso   1.00
C470   C     0.18056   0.82515   0.01243   0.00000  Uiso   1.00
C471   C     0.21917   0.80984   0.48792   0.00000  Uiso   1.00
C472   C     0.23448   0.81719   0.44251   0.00000  Uiso   1.00
C473   C     0.21349   0.84070   0.42207   0.00000  Uiso   1.00
C474   C     0.17120   0.82684   0.05924   0.00000  Uiso   1.00
C475   C     0.22935   0.78734   0.05691   0.00000  Uiso   1.00
C476   C     0.14350   0.86070   0.41967   0.00000  Uiso   1.00
H477   H     0.14725   0.84513   0.07961   0.00000  Uiso   1.00
H478   H     0.08742   0.89072   0.42603   0.00000  Uiso   1.00
C479   C     0.32618   0.84388   0.23824   0.00000  Uiso   1.00
H480   H     0.01458   0.86630   0.21660   0.00000  Uiso   1.00
C481   C     0.00794   0.82160   0.26371   0.00000  Uiso   1.00
C482   C     0.18049   0.98909   0.23403   0.00000  Uiso   1.00
C483   C     0.15362   0.67857   0.26374   0.00000  Uiso   1.00
H484   H     0.12992   0.99822   0.29185   0.00000  Uiso   1.00
N485   N     0.25083   0.76504   0.08034   0.00000  Uiso   1.00
O486   O     0.22864   0.73916   0.10968   0.00000  Uiso   1.00
O487   O     0.29195   0.77303   0.07552   0.00000  Uiso   1.00
N488   N     0.31612   0.78742   0.28833   0.00000  Uiso   1.00
O489   O     0.31984   0.78322   0.32841   0.00000  Uiso   1.00
O490   O     0.29902   0.75568   0.26707   0.00000  Uiso   1.00
N491   N     0.21269   0.67390   0.19706   0.00000  Uiso   1.00
O492   O     0.22191   0.98644   0.15832   0.00000  Uiso   1.00
O493   O     0.23543   0.70943   0.20287   0.00000  Uiso   1.00
N494   N     0.27954   0.77088   0.48463   0.00000  Uiso   1.00
H495   H     0.28226   0.74287   0.49576   0.00000  Uiso   1.00
C496   C     0.31971   0.79822   0.47552   0.00000  Uiso   1.00
H497   H     0.32959   0.80873   0.00690   0.00000  Uiso   1.00
H498   H     0.31716   0.82604   0.45902   0.00000  Uiso   1.00
H499   H     0.01171   0.78133   0.45279   0.00000  Uiso   1.00
N500   N     0.08643   0.82805   0.04935   0.00000  Uiso   1.00
O501   O     0.08449   0.78774   0.04795   0.00000  Uiso   1.00
O502   O     0.06548   0.84749   0.08524   0.00000  Uiso   1.00
N503   N     0.05265   0.89117   0.01319   0.00000  Uiso   1.00
O504   O     0.02345   0.89433   0.49244   0.00000  Uiso   1.00
O505   O     0.05159   0.91269   0.05116   0.00000  Uiso   1.00
N506   N     0.23707   0.85944   0.38175   0.00000  Uiso   1.00
H507   H     0.26302   0.84499   0.36388   0.00000  Uiso   1.00
C508   C     0.24742   0.90417   0.38650   0.00000  Uiso   1.00
H509   H     0.26409   0.91600   0.35321   0.00000  Uiso   1.00
H510   H     0.26884   0.91255   0.40953   0.00000  Uiso   1.00
H511   H     0.21793   0.91938   0.39965   0.00000  Uiso   1.00
Zn512  Zn    0.52672   0.80661   0.28734   0.00000  Uiso   1.00
Zn513  Zn    0.46713   0.79124   0.21876   0.00000  Uiso   1.00
Zn514  Zn    0.54389   0.86442   0.20657   0.00000  Uiso   1.00
Zn515  Zn    0.46226   0.87106   0.28733   0.00000  Uiso   1.00
O516   O     0.50000   0.83333   0.25000   0.00000  Uiso   1.00
O517   O     0.40405   0.85544   0.28213   0.00000  Uiso   1.00
O518   O     0.58824   0.81892   0.27014   0.00000  Uiso   1.00
O519   O     0.47093   0.73610   0.23413   0.00000  Uiso   1.00
O520   O     0.53678   0.92286   0.21361   0.00000  Uiso   1.00
O521   O     0.48784   0.79304   0.15459   0.00000  Uiso   1.00
O522   O     0.46274   0.87058   0.34968   0.00000  Uiso   1.00
O523   O     0.54157   0.84425   0.14606   0.00000  Uiso   1.00
O524   O     0.50785   0.82546   0.34968   0.00000  Uiso   1.00
O525   O     0.51264   0.74686   0.28214   0.00000  Uiso   1.00
O526   O     0.47965   0.92751   0.27013   0.00000  Uiso   1.00
O527   O     0.40745   0.79958   0.23413   0.00000  Uiso   1.00
O528   O     0.60026   0.85939   0.21361   0.00000  Uiso   1.00
C529   C     0.38647   0.82650   0.25935   0.00000  Uiso   1.00
C530   C     0.61408   0.84029   0.24016   0.00000  Uiso   1.00
C531   C     0.48925   0.72262   0.26070   0.00000  Uiso   1.00
C532   C     0.50979   0.94452   0.23947   0.00000  Uiso   1.00
C533   C     0.51891   0.81483   0.12945   0.00000  Uiso   1.00
C534   C     0.48351   0.85259   0.37064   0.00000  Uiso   1.00
C535   C     0.57650   0.78990   0.00994   0.00000  Uiso   1.00
H536   H     0.59813   0.80790   0.42333   0.00000  Uiso   1.00
C537   C     0.52784   0.80776   0.08107   0.00000  Uiso   1.00
C538   C     0.43956   0.87715   0.44362   0.00000  Uiso   1.00
C539   C     0.42425   0.87359   0.48968   0.00000  Uiso   1.00
C540   C     0.44503   0.85023   0.01140   0.00000  Uiso   1.00
C541   C     0.48748   0.84112   0.48968   0.00000  Uiso   1.00
C542   C     0.50404   0.84794   0.44337   0.00000  Uiso   1.00
C543   C     0.51389   0.82515   0.01243   0.00000  Uiso   1.00
C544   C     0.55251   0.80984   0.48792   0.00000  Uiso   1.00
C545   C     0.56781   0.81719   0.44251   0.00000  Uiso   1.00
C546   C     0.54683   0.84070   0.42207   0.00000  Uiso   1.00
C547   C     0.50453   0.82684   0.05924   0.00000  Uiso   1.00
C548   C     0.56268   0.78734   0.05691   0.00000  Uiso   1.00
C549   C     0.47683   0.86070   0.41967   0.00000  Uiso   1.00
H550   H     0.48058   0.84513   0.07961   0.00000  Uiso   1.00
H551   H     0.42076   0.89072   0.42603   0.00000  Uiso   1.00
C552   C     0.65951   0.84388   0.23824   0.00000  Uiso   1.00
H553   H     0.34791   0.86630   0.21660   0.00000  Uiso   1.00
C554   C     0.34127   0.82160   0.26371   0.00000  Uiso   1.00
C555   C     0.51382   0.98909   0.23403   0.00000  Uiso   1.00
C556   C     0.48696   0.67857   0.26374   0.00000  Uiso   1.00
H557   H     0.46325   0.99822   0.29185   0.00000  Uiso   1.00
N558   N     0.58416   0.76504   0.08034   0.00000  Uiso   1.00
O559   O     0.56198   0.73916   0.10968   0.00000  Uiso   1.00
O560   O     0.62529   0.77303   0.07552   0.00000  Uiso   1.00
N561   N     0.64945   0.78742   0.28833   0.00000  Uiso   1.00
O562   O     0.65317   0.78322   0.32841   0.00000  Uiso   1.00
O563   O     0.63235   0.75568   0.26707   0.00000  Uiso   1.00
N564   N     0.54602   0.67390   0.19706   0.00000  Uiso   1.00
O565   O     0.55525   0.98644   0.15832   0.00000  Uiso   1.00
O566   O     0.56877   0.70943   0.20287   0.00000  Uiso   1.00
N567   N     0.61287   0.77088   0.48463   0.00000  Uiso   1.00
H568   H     0.61559   0.74287   0.49576   0.00000  Uiso   1.00
C569   C     0.65304   0.79822   0.47552   0.00000  Uiso   1.00
H570   H     0.66293   0.80873   0.00690   0.00000  Uiso   1.00
H571   H     0.65049   0.82604   0.45902   0.00000  Uiso   1.00
H572   H     0.34505   0.78133   0.45279   0.00000  Uiso   1.00
N573   N     0.41976   0.82805   0.04935   0.00000  Uiso   1.00
O574   O     0.41783   0.78774   0.04795   0.00000  Uiso   1.00
O575   O     0.39881   0.84749   0.08524   0.00000  Uiso   1.00
N576   N     0.38598   0.89117   0.01319   0.00000  Uiso   1.00
O577   O     0.35679   0.89433   0.49244   0.00000  Uiso   1.00
O578   O     0.38492   0.91269   0.05116   0.00000  Uiso   1.00
N579   N     0.57041   0.85944   0.38175   0.00000  Uiso   1.00
H580   H     0.59636   0.84499   0.36388   0.00000  Uiso   1.00
C581   C     0.58076   0.90417   0.38650   0.00000  Uiso   1.00
H582   H     0.59742   0.91600   0.35321   0.00000  Uiso   1.00
H583   H     0.60218   0.91255   0.40953   0.00000  Uiso   1.00
H584   H     0.55126   0.91938   0.39965   0.00000  Uiso   1.00
Zn585  Zn    0.86005   0.80661   0.28734   0.00000  Uiso   1.00
Zn586  Zn    0.80046   0.79124   0.21876   0.00000  Uiso   1.00
Zn587  Zn    0.87723   0.86442   0.20657   0.00000  Uiso   1.00
Zn588  Zn    0.79560   0.87106   0.28733   0.00000  Uiso   1.00
O589   O     0.83333   0.83333   0.25000   0.00000  Uiso   1.00
O590   O     0.73738   0.85544   0.28213   0.00000  Uiso   1.00
O591   O     0.92158   0.81892   0.27014   0.00000  Uiso   1.00
O592   O     0.80426   0.73610   0.23413   0.00000  Uiso   1.00
O593   O     0.87012   0.92286   0.21361   0.00000  Uiso   1.00
O594   O     0.82118   0.79304   0.15459   0.00000  Uiso   1.00
O595   O     0.79607   0.87058   0.34968   0.00000  Uiso   1.00
O596   O     0.87491   0.84425   0.14606   0.00000  Uiso   1.00
O597   O     0.84118   0.82546   0.34968   0.00000  Uiso   1.00
O598   O     0.84597   0.74686   0.28214   0.00000  Uiso   1.00
O599   O     0.81298   0.92751   0.27013   0.00000  Uiso   1.00
O600   O     0.74078   0.79958   0.23413   0.00000  Uiso   1.00
O601   O     0.93360   0.85939   0.21361   0.00000  Uiso   1.00
C602   C     0.71980   0.82650   0.25935   0.00000  Uiso   1.00
C603   C     0.94742   0.84029   0.24016   0.00000  Uiso   1.00
C604   C     0.82258   0.72262   0.26070   0.00000  Uiso   1.00
C605   C     0.84313   0.94452   0.23947   0.00000  Uiso   1.00
C606   C     0.85225   0.81483   0.12945   0.00000  Uiso   1.00
C607   C     0.81685   0.85259   0.37064   0.00000  Uiso   1.00
C608   C     0.90983   0.78990   0.00994   0.00000  Uiso   1.00
H609   H     0.93146   0.80790   0.42333   0.00000  Uiso   1.00
C610   C     0.86118   0.80776   0.08107   0.00000  Uiso   1.00
C611   C     0.77289   0.87715   0.44362   0.00000  Uiso   1.00
C612   C     0.75758   0.87359   0.48968   0.00000  Uiso   1.00
C613   C     0.77836   0.85023   0.01140   0.00000  Uiso   1.00
C614   C     0.82081   0.84112   0.48968   0.00000  Uiso   1.00
C615   C     0.83738   0.84794   0.44337   0.00000  Uiso   1.00
C616   C     0.84722   0.82515   0.01243   0.00000  Uiso   1.00
C617   C     0.88584   0.80984   0.48792   0.00000  Uiso   1.00
C618   C     0.90115   0.81719   0.44251   0.00000  Uiso   1.00
C619   C     0.88016   0.84070   0.42207   0.00000  Uiso   1.00
C620   C     0.83786   0.82684   0.05924   0.00000  Uiso   1.00
C621   C     0.89602   0.78734   0.05691   0.00000  Uiso   1.00
C622   C     0.81017   0.86070   0.41967   0.00000  Uiso   1.00
H623   H     0.81392   0.84513   0.07961   0.00000  Uiso   1.00
H624   H     0.75409   0.89072   0.42603   0.00000  Uiso   1.00
C625   C     0.99285   0.84388   0.23824   0.00000  Uiso   1.00
H626   H     0.68124   0.86630   0.21660   0.00000  Uiso   1.00
C627   C     0.67460   0.82160   0.26371   0.00000  Uiso   1.00
C628   C     0.84715   0.98909   0.23403   0.00000  Uiso   1.00
C629   C     0.82029   0.67857   0.26374   0.00000  Uiso   1.00
H630   H     0.79658   0.99822   0.29185   0.00000  Uiso   1.00
N631   N     0.91749   0.76504   0.08034   0.00000  Uiso   1.00
O632   O     0.89531   0.73916   0.10968   0.00000  Uiso   1.00
O633   O     0.95862   0.77303   0.07552   0.00000  Uiso   1.00
N634   N     0.98279   0.78742   0.28833   0.00000  Uiso   1.00
O635   O     0.98650   0.78322   0.32841   0.00000  Uiso   1.00
O636   O     0.96568   0.75568   0.26707   0.00000  Uiso   1.00
N637   N     0.87935   0.67390   0.19706   0.00000  Uiso   1.00
O638   O     0.88858   0.98644   0.15832   0.00000  Uiso   1.00
O639   O     0.90210   0.70943   0.20287   0.00000  Uiso   1.00
N640   N     0.94621   0.77088   0.48463   0.00000  Uiso   1.00
H641   H     0.94892   0.74287   0.49576   0.00000  Uiso   1.00
C642   C     0.98638   0.79822   0.47552   0.00000  Uiso   1.00
H643   H     0.99626   0.80873   0.00690   0.00000  Uiso   1.00
H644   H     0.98383   0.82604   0.45902   0.00000  Uiso   1.00
H645   H     0.67838   0.78133   0.45279   0.00000  Uiso   1.00
N646   N     0.75310   0.82805   0.04935   0.00000  Uiso   1.00
O647   O     0.75116   0.78774   0.04795   0.00000  Uiso   1.00
O648   O     0.73214   0.84749   0.08524   0.00000  Uiso   1.00
N649   N     0.71931   0.89117   0.01319   0.00000  Uiso   1.00
O650   O     0.69012   0.89433   0.49244   0.00000  Uiso   1.00
O651   O     0.71825   0.91269   0.05116   0.00000  Uiso   1.00
N652   N     0.90374   0.85944   0.38175   0.00000  Uiso   1.00
H653   H     0.92969   0.84499   0.36388   0.00000  Uiso   1.00
C654   C     0.91409   0.90417   0.38650   0.00000  Uiso   1.00
H655   H     0.93075   0.91600   0.35321   0.00000  Uiso   1.00
H656   H     0.93551   0.91255   0.40953   0.00000  Uiso   1.00
H657   H     0.88459   0.91938   0.39965   0.00000  Uiso   1.00
Zn658  Zn    0.19338   0.13994   0.78734   0.00000  Uiso   1.00
Zn659  Zn    0.13379   0.12458   0.71876   0.00000  Uiso   1.00
Zn660  Zn    0.21056   0.19775   0.70657   0.00000  Uiso   1.00
Zn661  Zn    0.12893   0.20439   0.78733   0.00000  Uiso   1.00
O662   O     0.16667   0.16667   0.75000   0.00000  Uiso   1.00
O663   O     0.07071   0.18878   0.78213   0.00000  Uiso   1.00
O664   O     0.25491   0.15226   0.77014   0.00000  Uiso   1.00
O665   O     0.13760   0.06944   0.73413   0.00000  Uiso   1.00
O666   O     0.20345   0.25620   0.71361   0.00000  Uiso   1.00
O667   O     0.15451   0.12637   0.65459   0.00000  Uiso   1.00
O668   O     0.12940   0.20391   0.84968   0.00000  Uiso   1.00
O669   O     0.20824   0.17759   0.64606   0.00000  Uiso   1.00
O670   O     0.17451   0.15880   0.84968   0.00000  Uiso   1.00
O671   O     0.17930   0.08019   0.78214   0.00000  Uiso   1.00
O672   O     0.14632   0.26085   0.77013   0.00000  Uiso   1.00
O673   O     0.07412   0.13291   0.73413   0.00000  Uiso   1.00
O674   O     0.26693   0.19272   0.71361   0.00000  Uiso   1.00
C675   C     0.05314   0.15983   0.75935   0.00000  Uiso   1.00
C676   C     0.28075   0.17363   0.74016   0.00000  Uiso   1.00
C677   C     0.15592   0.05596   0.76070   0.00000  Uiso   1.00
C678   C     0.17646   0.27785   0.73947   0.00000  Uiso   1.00
C679   C     0.18558   0.14816   0.62945   0.00000  Uiso   1.00
C680   C     0.15018   0.18592   0.87064   0.00000  Uiso   1.00
C681   C     0.24316   0.12323   0.50994   0.00000  Uiso   1.00
H682   H     0.26479   0.14123   0.92333   0.00000  Uiso   1.00
C683   C     0.19451   0.14109   0.58107   0.00000  Uiso   1.00
C684   C     0.10622   0.21049   0.94362   0.00000  Uiso   1.00
C685   C     0.09091   0.20692   0.98968   0.00000  Uiso   1.00
C686   C     0.11169   0.18356   0.51140   0.00000  Uiso   1.00
C687   C     0.15415   0.17446   0.98968   0.00000  Uiso   1.00
C688   C     0.17071   0.18127   0.94337   0.00000  Uiso   1.00
C689   C     0.18056   0.15848   0.51243   0.00000  Uiso   1.00
C690   C     0.21917   0.14318   0.98792   0.00000  Uiso   1.00
C691   C     0.23448   0.15052   0.94251   0.00000  Uiso   1.00
C692   C     0.21349   0.17404   0.92207   0.00000  Uiso   1.00
C693   C     0.17120   0.16017   0.55924   0.00000  Uiso   1.00
C694   C     0.22935   0.12067   0.55691   0.00000  Uiso   1.00
C695   C     0.14350   0.19403   0.91967   0.00000  Uiso   1.00
H696   H     0.14725   0.17846   0.57961   0.00000  Uiso   1.00
H697   H     0.08742   0.22405   0.92603   0.00000  Uiso   1.00
C698   C     0.32618   0.17721   0.73824   0.00000  Uiso   1.00
H699   H     0.01458   0.19964   0.71660   0.00000  Uiso   1.00
C700   C     0.00794   0.15493   0.76371   0.00000  Uiso   1.00
C701   C     0.18049   0.32242   0.73403   0.00000  Uiso   1.00
C702   C     0.15362   0.01190   0.76374   0.00000  Uiso   1.00
H703   H     0.12992   0.33155   0.79185   0.00000  Uiso   1.00
N704   N     0.25083   0.09837   0.58034   0.00000  Uiso   1.00
O705   O     0.22864   0.07249   0.60968   0.00000  Uiso   1.00
O706   O     0.29195   0.10636   0.57552   0.00000  Uiso   1.00
N707   N     0.31612   0.12076   0.78833   0.00000  Uiso   1.00
O708   O     0.31984   0.11656   0.82841   0.00000  Uiso   1.00
O709   O     0.29902   0.08901   0.76707   0.00000  Uiso   1.00
N710   N     0.21269   0.00723   0.69706   0.00000  Uiso   1.00
O711   O     0.22191   0.31978   0.65832   0.00000  Uiso   1.00
O712   O     0.23543   0.04276   0.70287   0.00000  Uiso   1.00
N713   N     0.27954   0.10421   0.98463   0.00000  Uiso   1.00
H714   H     0.28226   0.07620   0.99576   0.00000  Uiso   1.00
C715   C     0.31971   0.13155   0.97552   0.00000  Uiso   1.00
H716   H     0.32959   0.14206   0.50690   0.00000  Uiso   1.00
H717   H     0.31716   0.15937   0.95902   0.00000  Uiso   1.00
H718   H     0.01171   0.11466   0.95279   0.00000  Uiso   1.00
N719   N     0.08643   0.16138   0.54935   0.00000  Uiso   1.00
O720   O     0.08449   0.12108   0.54795   0.00000  Uiso   1.00
O721   O     0.06548   0.18083   0.58524   0.00000  Uiso   1.00
N722   N     0.05265   0.22450   0.51319   0.00000  Uiso   1.00
O723   O     0.02345   0.22766   0.99244   0.00000  Uiso   1.00
O724   O     0.05159   0.24603   0.55116   0.00000  Uiso   1.00
N725   N     0.23707   0.19278   0.88175   0.00000  Uiso   1.00
H726   H     0.26302   0.17832   0.86388   0.00000  Uiso   1.00
C727   C     0.24742   0.23750   0.88650   0.00000  Uiso   1.00
H728   H     0.26409   0.24933   0.85321   0.00000  Uiso   1.00
H729   H     0.26884   0.24588   0.90953   0.00000  Uiso   1.00
H730   H     0.21793   0.25272   0.89965   0.00000  Uiso   1.00
Zn731  Zn    0.52672   0.13994   0.78734   0.00000  Uiso   1.00
Zn732  Zn    0.46713   0.12458   0.71876   0.00000  Uiso   1.00
Zn733  Zn    0.54389   0.19775   0.70657   0.00000  Uiso   1.00
Zn734  Zn    0.46226   0.20439   0.78733   0.00000  Uiso   1.00
O735   O     0.50000   0.16667   0.75000   0.00000  Uiso   1.00
O736   O     0.40405   0.18878   0.78213   0.00000  Uiso   1.00
O737   O     0.58824   0.15226   0.77014   0.00000  Uiso   1.00
O738   O     0.47093   0.06944   0.73413   0.00000  Uiso   1.00
O739   O     0.53678   0.25620   0.71361   0.00000  Uiso   1.00
O740   O     0.48784   0.12637   0.65459   0.00000  Uiso   1.00
O741   O     0.46274   0.20391   0.84968   0.00000  Uiso   1.00
O742   O     0.54157   0.17759   0.64606   0.00000  Uiso   1.00
O743   O     0.50785   0.15880   0.84968   0.00000  Uiso   1.00
O744   O     0.51264   0.08019   0.78214   0.00000  Uiso   1.00
O745   O     0.47965   0.26085   0.77013   0.00000  Uiso   1.00
O746   O     0.40745   0.13291   0.73413   0.00000  Uiso   1.00
O747   O     0.60026   0.19272   0.71361   0.00000  Uiso   1.00
C748   C     0.38647   0.15983   0.75935   0.00000  Uiso   1.00
C749   C     0.61408   0.17363   0.74016   0.00000  Uiso   1.00
C750   C     0.48925   0.05596   0.76070   0.00000  Uiso   1.00
C751   C     0.50979   0.27785   0.73947   0.00000  Uiso   1.00
C752   C     0.51891   0.14816   0.62945   0.00000  Uiso   1.00
C753   C     0.48351   0.18592   0.87064   0.00000  Uiso   1.00
C754   C     0.57650   0.12323   0.50994   0.00000  Uiso   1.00
H755   H     0.59813   0.14123   0.92333   0.00000  Uiso   1.00
C756   C     0.52784   0.14109   0.58107   0.00000  Uiso   1.00
C757   C     0.43956   0.21049   0.94362   0.00000  Uiso   1.00
C758   C     0.42425   0.20692   0.98968   0.00000  Uiso   1.00
C759   C     0.44503   0.18356   0.51140   0.00000  Uiso   1.00
C760   C     0.48748   0.17446   0.98968   0.00000  Uiso   1.00
C761   C     0.50404   0.18127   0.94337   0.00000  Uiso   1.00
C762   C     0.51389   0.15848   0.51243   0.00000  Uiso   1.00
C763   C     0.55251   0.14318   0.98792   0.00000  Uiso   1.00
C764   C     0.56781   0.15052   0.94251   0.00000  Uiso   1.00
C765   C     0.54683   0.17404   0.92207   0.00000  Uiso   1.00
C766   C     0.50453   0.16017   0.55924   0.00000  Uiso   1.00
C767   C     0.56268   0.12067   0.55691   0.00000  Uiso   1.00
C768   C     0.47683   0.19403   0.91967   0.00000  Uiso   1.00
H769   H     0.48058   0.17846   0.57961   0.00000  Uiso   1.00
H770   H     0.42076   0.22405   0.92603   0.00000  Uiso   1.00
C771   C     0.65951   0.17721   0.73824   0.00000  Uiso   1.00
H772   H     0.34791   0.19964   0.71660   0.00000  Uiso   1.00
C773   C     0.34127   0.15493   0.76371   0.00000  Uiso   1.00
C774   C     0.51382   0.32242   0.73403   0.00000  Uiso   1.00
C775   C     0.48696   0.01190   0.76374   0.00000  Uiso   1.00
H776   H     0.46325   0.33155   0.79185   0.00000  Uiso   1.00
N777   N     0.58416   0.09837   0.58034   0.00000  Uiso   1.00
O778   O     0.56198   0.07249   0.60968   0.00000  Uiso   1.00
O779   O     0.62529   0.10636   0.57552   0.00000  Uiso   1.00
N780   N     0.64945   0.12076   0.78833   0.00000  Uiso   1.00
O781   O     0.65317   0.11656   0.82841   0.00000  Uiso   1.00
O782   O     0.63235   0.08901   0.76707   0.00000  Uiso   1.00
N783   N     0.54602   0.00723   0.69706   0.00000  Uiso   1.00
O784   O     0.55525   0.31978   0.65832   0.00000  Uiso   1.00
O785   O     0.56877   0.04276   0.70287   0.00000  Uiso   1.00
N786   N     0.61287   0.10421   0.98463   0.00000  Uiso   1.00
H787   H     0.61559   0.07620   0.99576   0.00000  Uiso   1.00
C788   C     0.65304   0.13155   0.97552   0.00000  Uiso   1.00
H789   H     0.66293   0.14206   0.50690   0.00000  Uiso   1.00
H790   H     0.65049   0.15937   0.95902   0.00000  Uiso   1.00
H791   H     0.34505   0.11466   0.95279   0.00000  Uiso   1.00
N792   N     0.41976   0.16138   0.54935   0.00000  Uiso   1.00
O793   O     0.41783   0.12108   0.54795   0.00000  Uiso   1.00
O794   O     0.39881   0.18083   0.58524   0.00000  Uiso   1.00
N795   N     0.38598   0.22450   0.51319   0.00000  Uiso   1.00
O796   O     0.35679   0.22766   0.99244   0.00000  Uiso   1.00
O797   O     0.38492   0.24603   0.55116   0.00000  Uiso   1.00
N798   N     0.57041   0.19278   0.88175   0.00000  Uiso   1.00
H799   H     0.59636   0.17832   0.86388   0.00000  Uiso   1.00
C800   C     0.58076   0.23750   0.88650   0.00000  Uiso   1.00
H801   H     0.59742   0.24933   0.85321   0.00000  Uiso   1.00
H802   H     0.60218   0.24588   0.90953   0.00000  Uiso   1.00
H803   H     0.55126   0.25272   0.89965   0.00000  Uiso   1.00
Zn804  Zn    0.86005   0.13994   0.78734   0.00000  Uiso   1.00
Zn805  Zn    0.80046   0.12458   0.71876   0.00000  Uiso   1.00
Zn806  Zn    0.87723   0.19775   0.70657   0.00000  Uiso   1.00
Zn807  Zn    0.79560   0.20439   0.78733   0.00000  Uiso   1.00
O808   O     0.83333   0.16667   0.75000   0.00000  Uiso   1.00
O809   O     0.73738   0.18878   0.78213   0.00000  Uiso   1.00
O810   O     0.92158   0.15226   0.77014   0.00000  Uiso   1.00
O811   O     0.80426   0.06944   0.73413   0.00000  Uiso   1.00
O812   O     0.87012   0.25620   0.71361   0.00000  Uiso   1.00
O813   O     0.82118   0.12637   0.65459   0.00000  Uiso   1.00
O814   O     0.79607   0.20391   0.84968   0.00000  Uiso   1.00
O815   O     0.87491   0.17759   0.64606   0.00000  Uiso   1.00
O816   O     0.84118   0.15880   0.84968   0.00000  Uiso   1.00
O817   O     0.84597   0.08019   0.78214   0.00000  Uiso   1.00
O818   O     0.81298   0.26085   0.77013   0.00000  Uiso   1.00
O819   O     0.74078   0.13291   0.73413   0.00000  Uiso   1.00
O820   O     0.93360   0.19272   0.71361   0.00000  Uiso   1.00
C821   C     0.71980   0.15983   0.75935   0.00000  Uiso   1.00
C822   C     0.94742   0.17363   0.74016   0.00000  Uiso   1.00
C823   C     0.82258   0.05596   0.76070   0.00000  Uiso   1.00
C824   C     0.84313   0.27785   0.73947   0.00000  Uiso   1.00
C825   C     0.85225   0.14816   0.62945   0.00000  Uiso   1.00
C826   C     0.81685   0.18592   0.87064   0.00000  Uiso   1.00
C827   C     0.90983   0.12323   0.50994   0.00000  Uiso   1.00
H828   H     0.93146   0.14123   0.92333   0.00000  Uiso   1.00
C829   C     0.86118   0.14109   0.58107   0.00000  Uiso   1.00
C830   C     0.77289   0.21049   0.94362   0.00000  Uiso   1.00
C831   C     0.75758   0.20692   0.98968   0.00000  Uiso   1.00
C832   C     0.77836   0.18356   0.51140   0.00000  Uiso   1.00
C833   C     0.82081   0.17446   0.98968   0.00000  Uiso   1.00
C834   C     0.83738   0.18127   0.94337   0.00000  Uiso   1.00
C835   C     0.84722   0.15848   0.51243   0.00000  Uiso   1.00
C836   C     0.88584   0.14318   0.98792   0.00000  Uiso   1.00
C837   C     0.90115   0.15052   0.94251   0.00000  Uiso   1.00
C838   C     0.88016   0.17404   0.92207   0.00000  Uiso   1.00
C839   C     0.83786   0.16017   0.55924   0.00000  Uiso   1.00
C840   C     0.89602   0.12067   0.55691   0.00000  Uiso   1.00
C841   C     0.81017   0.19403   0.91967   0.00000  Uiso   1.00
H842   H     0.81392   0.17846   0.57961   0.00000  Uiso   1.00
H843   H     0.75409   0.22405   0.92603   0.00000  Uiso   1.00
C844   C     0.99285   0.17721   0.73824   0.00000  Uiso   1.00
H845   H     0.68124   0.19964   0.71660   0.00000  Uiso   1.00
C846   C     0.67460   0.15493   0.76371   0.00000  Uiso   1.00
C847   C     0.84715   0.32242   0.73403   0.00000  Uiso   1.00
C848   C     0.82029   0.01190   0.76374   0.00000  Uiso   1.00
H849   H     0.79658   0.33155   0.79185   0.00000  Uiso   1.00
N850   N     0.91749   0.09837   0.58034   0.00000  Uiso   1.00
O851   O     0.89531   0.07249   0.60968   0.00000  Uiso   1.00
O852   O     0.95862   0.10636   0.57552   0.00000  Uiso   1.00
N853   N     0.98279   0.12076   0.78833   0.00000  Uiso   1.00
O854   O     0.98650   0.11656   0.82841   0.00000  Uiso   1.00
O855   O     0.96568   0.08901   0.76707   0.00000  Uiso   1.00
N856   N     0.87935   0.00723   0.69706   0.00000  Uiso   1.00
O857   O     0.88858   0.31978   0.65832   0.00000  Uiso   1.00
O858   O     0.90210   0.04276   0.70287   0.00000  Uiso   1.00
N859   N     0.94621   0.10421   0.98463   0.00000  Uiso   1.00
H860   H     0.94892   0.07620   0.99576   0.00000  Uiso   1.00
C861   C     0.98638   0.13155   0.97552   0.00000  Uiso   1.00
H862   H     0.99626   0.14206   0.50690   0.00000  Uiso   1.00
H863   H     0.98383   0.15937   0.95902   0.00000  Uiso   1.00
H864   H     0.67838   0.11466   0.95279   0.00000  Uiso   1.00
N865   N     0.75310   0.16138   0.54935   0.00000  Uiso   1.00
O866   O     0.75116   0.12108   0.54795   0.00000  Uiso   1.00
O867   O     0.73214   0.18083   0.58524   0.00000  Uiso   1.00
N868   N     0.71931   0.22450   0.51319   0.00000  Uiso   1.00
O869   O     0.69012   0.22766   0.99244   0.00000  Uiso   1.00
O870   O     0.71825   0.24603   0.55116   0.00000  Uiso   1.00
N871   N     0.90374   0.19278   0.88175   0.00000  Uiso   1.00
H872   H     0.92969   0.17832   0.86388   0.00000  Uiso   1.00
C873   C     0.91409   0.23750   0.88650   0.00000  Uiso   1.00
H874   H     0.93075   0.24933   0.85321   0.00000  Uiso   1.00
H875   H     0.93551   0.24588   0.90953   0.00000  Uiso   1.00
H876   H     0.88459   0.25272   0.89965   0.00000  Uiso   1.00
Zn877  Zn    0.19338   0.47327   0.78734   0.00000  Uiso   1.00
Zn878  Zn    0.13379   0.45791   0.71876   0.00000  Uiso   1.00
Zn879  Zn    0.21056   0.53109   0.70657   0.00000  Uiso   1.00
Zn880  Zn    0.12893   0.53773   0.78733   0.00000  Uiso   1.00
O881   O     0.16667   0.50000   0.75000   0.00000  Uiso   1.00
O882   O     0.07071   0.52211   0.78213   0.00000  Uiso   1.00
O883   O     0.25491   0.48559   0.77014   0.00000  Uiso   1.00
O884   O     0.13760   0.40277   0.73413   0.00000  Uiso   1.00
O885   O     0.20345   0.58953   0.71361   0.00000  Uiso   1.00
O886   O     0.15451   0.45970   0.65459   0.00000  Uiso   1.00
O887   O     0.12940   0.53724   0.84968   0.00000  Uiso   1.00
O888   O     0.20824   0.51092   0.64606   0.00000  Uiso   1.00
O889   O     0.17451   0.49213   0.84968   0.00000  Uiso   1.00
O890   O     0.17930   0.41352   0.78214   0.00000  Uiso   1.00
O891   O     0.14632   0.59418   0.77013   0.00000  Uiso   1.00
O892   O     0.07412   0.46625   0.73413   0.00000  Uiso   1.00
O893   O     0.26693   0.52605   0.71361   0.00000  Uiso   1.00
C894   C     0.05314   0.49316   0.75935   0.00000  Uiso   1.00
C895   C     0.28075   0.50696   0.74016   0.00000  Uiso   1.00
C896   C     0.15592   0.38929   0.76070   0.00000  Uiso   1.00
C897   C     0.17646   0.61118   0.73947   0.00000  Uiso   1.00
C898   C     0.18558   0.48150   0.62945   0.00000  Uiso   1.00
C899   C     0.15018   0.51925   0.87064   0.00000  Uiso   1.00
C900   C     0.24316   0.45656   0.50994   0.00000  Uiso   1.00
H901   H     0.26479   0.47457   0.92333   0.00000  Uiso   1.00
C902   C     0.19451   0.47443   0.58107   0.00000  Uiso   1.00
C903   C     0.10622   0.54382   0.94362   0.00000  Uiso   1.00
C904   C     0.09091   0.54026   0.98968   0.00000  Uiso   1.00
C905   C     0.11169   0.51689   0.51140   0.00000  Uiso   1.00
C906   C     0.15415   0.50779   0.98968   0.00000  Uiso   1.00
C907   C     0.17071   0.51460   0.94337   0.00000  Uiso   1.00
C908   C     0.18056   0.49181   0.51243   0.00000  Uiso   1.00
C909   C     0.21917   0.47651   0.98792   0.00000  Uiso   1.00
C910   C     0.23448   0.48386   0.94251   0.00000  Uiso   1.00
C911   C     0.21349   0.50737   0.92207   0.00000  Uiso   1.00
C912   C     0.17120   0.49350   0.55924   0.00000  Uiso   1.00
C913   C     0.22935   0.45400   0.55691   0.00000  Uiso   1.00
C914   C     0.14350   0.52737   0.91967   0.00000  Uiso   1.00
H915   H     0.14725   0.51179   0.57961   0.00000  Uiso   1.00
H916   H     0.08742   0.55739   0.92603   0.00000  Uiso   1.00
C917   C     0.32618   0.51055   0.73824   0.00000  Uiso   1.00
H918   H     0.01458   0.53297   0.71660   0.00000  Uiso   1.00
C919   C     0.00794   0.48826   0.76371   0.00000  Uiso   1.00
C920   C     0.18049   0.65575   0.73403   0.00000  Uiso   1.00
C921   C     0.15362   0.34523   0.76374   0.00000  Uiso   1.00
H922   H     0.12992   0.66489   0.79185   0.00000  Uiso   1.00
N923   N     0.25083   0.43170   0.58034   0.00000  Uiso   1.00
O924   O     0.22864   0.40582   0.60968   0.00000  Uiso   1.00
O925   O     0.29195   0.43969   0.57552   0.00000  Uiso   1.00
N926   N     0.31612   0.45409   0.78833   0.00000  Uiso   1.00
O927   O     0.31984   0.44989   0.82841   0.00000  Uiso   1.00
O928   O     0.29902   0.42235   0.76707   0.00000  Uiso   1.00
N929   N     0.21269   0.34056   0.69706   0.00000  Uiso   1.00
O930   O     0.22191   0.65311   0.65832   0.00000  Uiso   1.00
O931   O     0.23543   0.37609   0.70287   0.00000  Uiso   1.00
N932   N     0.27954   0.43754   0.98463   0.00000  Uiso   1.00
H933   H     0.28226   0.40953   0.99576   0.00000  Uiso   1.00
C934   C     0.31971   0.46488   0.97552   0.00000  Uiso   1.00
H935   H     0.32959   0.47539   0.50690   0.00000  Uiso   1.00
H936   H     0.31716   0.49271   0.95902   0.00000  Uiso   1.00
H937   H     0.01171   0.44800   0.95279   0.00000  Uiso   1.00
N938   N     0.08643   0.49472   0.54935   0.00000  Uiso   1.00
O939   O     0.08449   0.45441   0.54795   0.00000  Uiso   1.00
O940   O     0.06548   0.51416   0.58524   0.00000  Uiso   1.00
N941   N     0.05265   0.55784   0.51319   0.00000  Uiso   1.00
O942   O     0.02345   0.56099   0.99244   0.00000  Uiso   1.00
O943   O     0.05159   0.57936   0.55116   0.00000  Uiso   1.00
N944   N     0.23707   0.52611   0.88175   0.00000  Uiso   1.00
H945   H     0.26302   0.51166   0.86388   0.00000  Uiso   1.00
C946   C     0.24742   0.57083   0.88650   0.00000  Uiso   1.00
H947   H     0.26409   0.58266   0.85321   0.00000  Uiso   1.00
H948   H     0.26884   0.57922   0.90953   0.00000  Uiso   1.00
H949   H     0.21793   0.58605   0.89965   0.00000  Uiso   1.00
Zn950  Zn    0.52672   0.47327   0.78734   0.00000  Uiso   1.00
Zn951  Zn    0.46713   0.45791   0.71876   0.00000  Uiso   1.00
Zn952  Zn    0.54389   0.53109   0.70657   0.00000  Uiso   1.00
Zn953  Zn    0.46226   0.53773   0.78733   0.00000  Uiso   1.00
O954   O     0.50000   0.50000   0.75000   0.00000  Uiso   1.00
O955   O     0.40405   0.52211   0.78213   0.00000  Uiso   1.00
O956   O     0.58824   0.48559   0.77014   0.00000  Uiso   1.00
O957   O     0.47093   0.40277   0.73413   0.00000  Uiso   1.00
O958   O     0.53678   0.58953   0.71361   0.00000  Uiso   1.00
O959   O     0.48784   0.45970   0.65459   0.00000  Uiso   1.00
O960   O     0.46274   0.53724   0.84968   0.00000  Uiso   1.00
O961   O     0.54157   0.51092   0.64606   0.00000  Uiso   1.00
O962   O     0.50785   0.49213   0.84968   0.00000  Uiso   1.00
O963   O     0.51264   0.41352   0.78214   0.00000  Uiso   1.00
O964   O     0.47965   0.59418   0.77013   0.00000  Uiso   1.00
O965   O     0.40745   0.46625   0.73413   0.00000  Uiso   1.00
O966   O     0.60026   0.52605   0.71361   0.00000  Uiso   1.00
C967   C     0.38647   0.49316   0.75935   0.00000  Uiso   1.00
C968   C     0.61408   0.50696   0.74016   0.00000  Uiso   1.00
C969   C     0.48925   0.38929   0.76070   0.00000  Uiso   1.00
C970   C     0.50979   0.61118   0.73947   0.00000  Uiso   1.00
C971   C     0.51891   0.48150   0.62945   0.00000  Uiso   1.00
C972   C     0.48351   0.51925   0.87064   0.00000  Uiso   1.00
C973   C     0.57650   0.45656   0.50994   0.00000  Uiso   1.00
H974   H     0.59813   0.47457   0.92333   0.00000  Uiso   1.00
C975   C     0.52784   0.47443   0.58107   0.00000  Uiso   1.00
C976   C     0.43956   0.54382   0.94362   0.00000  Uiso   1.00
C977   C     0.42425   0.54026   0.98968   0.00000  Uiso   1.00
C978   C     0.44503   0.51689   0.51140   0.00000  Uiso   1.00
C979   C     0.48748   0.50779   0.98968   0.00000  Uiso   1.00
C980   C     0.50404   0.51460   0.94337   0.00000  Uiso   1.00
C981   C     0.51389   0.49181   0.51243   0.00000  Uiso   1.00
C982   C     0.55251   0.47651   0.98792   0.00000  Uiso   1.00
C983   C     0.56781   0.48386   0.94251   0.00000  Uiso   1.00
C984   C     0.54683   0.50737   0.92207   0.00000  Uiso   1.00
C985   C     0.50453   0.49350   0.55924   0.00000  Uiso   1.00
C986   C     0.56268   0.45400   0.55691   0.00000  Uiso   1.00
C987   C     0.47683   0.52737   0.91967   0.00000  Uiso   1.00
H988   H     0.48058   0.51179   0.57961   0.00000  Uiso   1.00
H989   H     0.42076   0.55739   0.92603   0.00000  Uiso   1.00
C990   C     0.65951   0.51055   0.73824   0.00000  Uiso   1.00
H991   H     0.34791   0.53297   0.71660   0.00000  Uiso   1.00
C992   C     0.34127   0.48826   0.76371   0.00000  Uiso   1.00
C993   C     0.51382   0.65575   0.73403   0.00000  Uiso   1.00
C994   C     0.48696   0.34523   0.76374   0.00000  Uiso   1.00
H995   H     0.46325   0.66489   0.79185   0.00000  Uiso   1.00
N996   N     0.58416   0.43170   0.58034   0.00000  Uiso   1.00
O997   O     0.56198   0.40582   0.60968   0.00000  Uiso   1.00
O998   O     0.62529   0.43969   0.57552   0.00000  Uiso   1.00
N999   N     0.64945   0.45409   0.78833   0.00000  Uiso   1.00
O1000  O     0.65317   0.44989   0.82841   0.00000  Uiso   1.00
O1001  O     0.63235   0.42235   0.76707   0.00000  Uiso   1.00
N1002  N     0.54602   0.34056   0.69706   0.00000  Uiso   1.00
O1003  O     0.55525   0.65311   0.65832   0.00000  Uiso   1.00
O1004  O     0.56877   0.37609   0.70287   0.00000  Uiso   1.00
N1005  N     0.61287   0.43754   0.98463   0.00000  Uiso   1.00
H1006  H     0.61559   0.40953   0.99576   0.00000  Uiso   1.00
C1007  C     0.65304   0.46488   0.97552   0.00000  Uiso   1.00
H1008  H     0.66293   0.47539   0.50690   0.00000  Uiso   1.00
H1009  H     0.65049   0.49271   0.95902   0.00000  Uiso   1.00
H1010  H     0.34505   0.44800   0.95279   0.00000  Uiso   1.00
N1011  N     0.41976   0.49472   0.54935   0.00000  Uiso   1.00
O1012  O     0.41783   0.45441   0.54795   0.00000  Uiso   1.00
O1013  O     0.39881   0.51416   0.58524   0.00000  Uiso   1.00
N1014  N     0.38598   0.55784   0.51319   0.00000  Uiso   1.00
O1015  O     0.35679   0.56099   0.99244   0.00000  Uiso   1.00
O1016  O     0.38492   0.57936   0.55116   0.00000  Uiso   1.00
N1017  N     0.57041   0.52611   0.88175   0.00000  Uiso   1.00
H1018  H     0.59636   0.51166   0.86388   0.00000  Uiso   1.00
C1019  C     0.58076   0.57083   0.88650   0.00000  Uiso   1.00
H1020  H     0.59742   0.58266   0.85321   0.00000  Uiso   1.00
H1021  H     0.60218   0.57922   0.90953   0.00000  Uiso   1.00
H1022  H     0.55126   0.58605   0.89965   0.00000  Uiso   1.00
Zn1023 Zn    0.86005   0.47327   0.78734   0.00000  Uiso   1.00
Zn1024 Zn    0.80046   0.45791   0.71876   0.00000  Uiso   1.00
Zn1025 Zn    0.87723   0.53109   0.70657   0.00000  Uiso   1.00
Zn1026 Zn    0.79560   0.53773   0.78733   0.00000  Uiso   1.00
O1027  O     0.83333   0.50000   0.75000   0.00000  Uiso   1.00
O1028  O     0.73738   0.52211   0.78213   0.00000  Uiso   1.00
O1029  O     0.92158   0.48559   0.77014   0.00000  Uiso   1.00
O1030  O     0.80426   0.40277   0.73413   0.00000  Uiso   1.00
O1031  O     0.87012   0.58953   0.71361   0.00000  Uiso   1.00
O1032  O     0.82118   0.45970   0.65459   0.00000  Uiso   1.00
O1033  O     0.79607   0.53724   0.84968   0.00000  Uiso   1.00
O1034  O     0.87491   0.51092   0.64606   0.00000  Uiso   1.00
O1035  O     0.84118   0.49213   0.84968   0.00000  Uiso   1.00
O1036  O     0.84597   0.41352   0.78214   0.00000  Uiso   1.00
O1037  O     0.81298   0.59418   0.77013   0.00000  Uiso   1.00
O1038  O     0.74078   0.46625   0.73413   0.00000  Uiso   1.00
O1039  O     0.93360   0.52605   0.71361   0.00000  Uiso   1.00
C1040  C     0.71980   0.49316   0.75935   0.00000  Uiso   1.00
C1041  C     0.94742   0.50696   0.74016   0.00000  Uiso   1.00
C1042  C     0.82258   0.38929   0.76070   0.00000  Uiso   1.00
C1043  C     0.84313   0.61118   0.73947   0.00000  Uiso   1.00
C1044  C     0.85225   0.48150   0.62945   0.00000  Uiso   1.00
C1045  C     0.81685   0.51925   0.87064   0.00000  Uiso   1.00
C1046  C     0.90983   0.45656   0.50994   0.00000  Uiso   1.00
H1047  H     0.93146   0.47457   0.92333   0.00000  Uiso   1.00
C1048  C     0.86118   0.47443   0.58107   0.00000  Uiso   1.00
C1049  C     0.77289   0.54382   0.94362   0.00000  Uiso   1.00
C1050  C     0.75758   0.54026   0.98968   0.00000  Uiso   1.00
C1051  C     0.77836   0.51689   0.51140   0.00000  Uiso   1.00
C1052  C     0.82081   0.50779   0.98968   0.00000  Uiso   1.00
C1053  C     0.83738   0.51460   0.94337   0.00000  Uiso   1.00
C1054  C     0.84722   0.49181   0.51243   0.00000  Uiso   1.00
C1055  C     0.88584   0.47651   0.98792   0.00000  Uiso   1.00
C1056  C     0.90115   0.48386   0.94251   0.00000  Uiso   1.00
C1057  C     0.88016   0.50737   0.92207   0.00000  Uiso   1.00
C1058  C     0.83786   0.49350   0.55924   0.00000  Uiso   1.00
C1059  C     0.89602   0.45400   0.55691   0.00000  Uiso   1.00
C1060  C     0.81017   0.52737   0.91967   0.00000  Uiso   1.00
H1061  H     0.81392   0.51179   0.57961   0.00000  Uiso   1.00
H1062  H     0.75409   0.55739   0.92603   0.00000  Uiso   1.00
C1063  C     0.99285   0.51055   0.73824   0.00000  Uiso   1.00
H1064  H     0.68124   0.53297   0.71660   0.00000  Uiso   1.00
C1065  C     0.67460   0.48826   0.76371   0.00000  Uiso   1.00
C1066  C     0.84715   0.65575   0.73403   0.00000  Uiso   1.00
C1067  C     0.82029   0.34523   0.76374   0.00000  Uiso   1.00
H1068  H     0.79658   0.66489   0.79185   0.00000  Uiso   1.00
N1069  N     0.91749   0.43170   0.58034   0.00000  Uiso   1.00
O1070  O     0.89531   0.40582   0.60968   0.00000  Uiso   1.00
O1071  O     0.95862   0.43969   0.57552   0.00000  Uiso   1.00
N1072  N     0.98279   0.45409   0.78833   0.00000  Uiso   1.00
O1073  O     0.98650   0.44989   0.82841   0.00000  Uiso   1.00
O1074  O     0.96568   0.42235   0.76707   0.00000  Uiso   1.00
N1075  N     0.87935   0.34056   0.69706   0.00000  Uiso   1.00
O1076  O     0.88858   0.65311   0.65832   0.00000  Uiso   1.00
O1077  O     0.90210   0.37609   0.70287   0.00000  Uiso   1.00
N1078  N     0.94621   0.43754   0.98463   0.00000  Uiso   1.00
H1079  H     0.94892   0.40953   0.99576   0.00000  Uiso   1.00
C1080  C     0.98638   0.46488   0.97552   0.00000  Uiso   1.00
H1081  H     0.99626   0.47539   0.50690   0.00000  Uiso   1.00
H1082  H     0.98383   0.49271   0.95902   0.00000  Uiso   1.00
H1083  H     0.67838   0.44800   0.95279   0.00000  Uiso   1.00
N1084  N     0.75310   0.49472   0.54935   0.00000  Uiso   1.00
O1085  O     0.75116   0.45441   0.54795   0.00000  Uiso   1.00
O1086  O     0.73214   0.51416   0.58524   0.00000  Uiso   1.00
N1087  N     0.71931   0.55784   0.51319   0.00000  Uiso   1.00
O1088  O     0.69012   0.56099   0.99244   0.00000  Uiso   1.00
O1089  O     0.71825   0.57936   0.55116   0.00000  Uiso   1.00
N1090  N     0.90374   0.52611   0.88175   0.00000  Uiso   1.00
H1091  H     0.92969   0.51166   0.86388   0.00000  Uiso   1.00
C1092  C     0.91409   0.57083   0.88650   0.00000  Uiso   1.00
H1093  H     0.93075   0.58266   0.85321   0.00000  Uiso   1.00
H1094  H     0.93551   0.57922   0.90953   0.00000  Uiso   1.00
H1095  H     0.88459   0.58605   0.89965   0.00000  Uiso   1.00
Zn1096 Zn    0.19338   0.80661   0.78734   0.00000  Uiso   1.00
Zn1097 Zn    0.13379   0.79124   0.71876   0.00000  Uiso   1.00
Zn1098 Zn    0.21056   0.86442   0.70657   0.00000  Uiso   1.00
Zn1099 Zn    0.12893   0.87106   0.78733   0.00000  Uiso   1.00
O1100  O     0.16667   0.83333   0.75000   0.00000  Uiso   1.00
O1101  O     0.07071   0.85544   0.78213   0.00000  Uiso   1.00
O1102  O     0.25491   0.81892   0.77014   0.00000  Uiso   1.00
O1103  O     0.13760   0.73610   0.73413   0.00000  Uiso   1.00
O1104  O     0.20345   0.92286   0.71361   0.00000  Uiso   1.00
O1105  O     0.15451   0.79304   0.65459   0.00000  Uiso   1.00
O1106  O     0.12940   0.87058   0.84968   0.00000  Uiso   1.00
O1107  O     0.20824   0.84425   0.64606   0.00000  Uiso   1.00
O1108  O     0.17451   0.82546   0.84968   0.00000  Uiso   1.00
O1109  O     0.17930   0.74686   0.78214   0.00000  Uiso   1.00
O1110  O     0.14632   0.92751   0.77013   0.00000  Uiso   1.00
O1111  O     0.07412   0.79958   0.73413   0.00000  Uiso   1.00
O1112  O     0.26693   0.85939   0.71361   0.00000  Uiso   1.00
C1113  C     0.05314   0.82650   0.75935   0.00000  Uiso   1.00
C1114  C     0.28075   0.84029   0.74016   0.00000  Uiso   1.00
C1115  C     0.15592   0.72262   0.76070   0.00000  Uiso   1.00
C1116  C     0.17646   0.94452   0.73947   0.00000  Uiso   1.00
C1117  C     0.18558   0.81483   0.62945   0.00000  Uiso   1.00
C1118  C     0.15018   0.85259   0.87064   0.00000  Uiso   1.00
C1119  C     0.24316   0.78990   0.50994   0.00000  Uiso   1.00
H1120  H     0.26479   0.80790   0.92333   0.00000  Uiso   1.00
C1121  C     0.19451   0.80776   0.58107   0.00000  Uiso   1.00
C1122  C     0.10622   0.87715   0.94362   0.00000  Uiso   1.00
C1123  C     0.09091   0.87359   0.98968   0.00000  Uiso   1.00
C1124  C     0.11169   0.85023   0.51140   0.00000  Uiso   1.00
C1125  C     0.15415   0.84112   0.98968   0.00000  Uiso   1.00
C1126  C     0.17071   0.84794   0.94337   0.00000  Uiso   1.00
C1127  C     0.18056   0.82515   0.51243   0.00000  Uiso   1.00
C1128  C     0.21917   0.80984   0.98792   0.00000  Uiso   1.00
C1129  C     0.23448   0.81719   0.94251   0.00000  Uiso   1.00
C1130  C     0.21349   0.84070   0.92207   0.00000  Uiso   1.00
C1131  C     0.17120   0.82684   0.55924   0.00000  Uiso   1.00
C1132  C     0.22935   0.78734   0.55691   0.00000  Uiso   1.00
C1133  C     0.14350   0.86070   0.91967   0.00000  Uiso   1.00
H1134  H     0.14725   0.84513   0.57961   0.00000  Uiso   1.00
H1135  H     0.08742   0.89072   0.92603   0.00000  Uiso   1.00
C1136  C     0.32618   0.84388   0.73824   0.00000  Uiso   1.00
H1137  H     0.01458   0.86630   0.71660   0.00000  Uiso   1.00
C1138  C     0.00794   0.82160   0.76371   0.00000  Uiso   1.00
C1139  C     0.18049   0.98909   0.73403   0.00000  Uiso   1.00
C1140  C     0.15362   0.67857   0.76374   0.00000  Uiso   1.00
H1141  H     0.12992   0.99822   0.79185   0.00000  Uiso   1.00
N1142  N     0.25083   0.76504   0.58034   0.00000  Uiso   1.00
O1143  O     0.22864   0.73916   0.60968   0.00000  Uiso   1.00
O1144  O     0.29195   0.77303   0.57552   0.00000  Uiso   1.00
N1145  N     0.31612   0.78742   0.78833   0.00000  Uiso   1.00
O1146  O     0.31984   0.78322   0.82841   0.00000  Uiso   1.00
O1147  O     0.29902   0.75568   0.76707   0.00000  Uiso   1.00
N1148  N     0.21269   0.67390   0.69706   0.00000  Uiso   1.00
O1149  O     0.22191   0.98644   0.65832   0.00000  Uiso   1.00
O1150  O     0.23543   0.70943   0.70287   0.00000  Uiso   1.00
N1151  N     0.27954   0.77088   0.98463   0.00000  Uiso   1.00
H1152  H     0.28226   0.74287   0.99576   0.00000  Uiso   1.00
C1153  C     0.31971   0.79822   0.97552   0.00000  Uiso   1.00
H1154  H     0.32959   0.80873   0.50690   0.00000  Uiso   1.00
H1155  H     0.31716   0.82604   0.95902   0.00000  Uiso   1.00
H1156  H     0.01171   0.78133   0.95279   0.00000  Uiso   1.00
N1157  N     0.08643   0.82805   0.54935   0.00000  Uiso   1.00
O1158  O     0.08449   0.78774   0.54795   0.00000  Uiso   1.00
O1159  O     0.06548   0.84749   0.58524   0.00000  Uiso   1.00
N1160  N     0.05265   0.89117   0.51319   0.00000  Uiso   1.00
O1161  O     0.02345   0.89433   0.99244   0.00000  Uiso   1.00
O1162  O     0.05159   0.91269   0.55116   0.00000  Uiso   1.00
N1163  N     0.23707   0.85944   0.88175   0.00000  Uiso   1.00
H1164  H     0.26302   0.84499   0.86388   0.00000  Uiso   1.00
C1165  C     0.24742   0.90417   0.88650   0.00000  Uiso   1.00
H1166  H     0.26409   0.91600   0.85321   0.00000  Uiso   1.00
H1167  H     0.26884   0.91255   0.90953   0.00000  Uiso   1.00
H1168  H     0.21793   0.91938   0.89965   0.00000  Uiso   1.00
Zn1169 Zn    0.52672   0.80661   0.78734   0.00000  Uiso   1.00
Zn1170 Zn    0.46713   0.79124   0.71876   0.00000  Uiso   1.00
Zn1171 Zn    0.54389   0.86442   0.70657   0.00000  Uiso   1.00
Zn1172 Zn    0.46226   0.87106   0.78733   0.00000  Uiso   1.00
O1173  O     0.50000   0.83333   0.75000   0.00000  Uiso   1.00
O1174  O     0.40405   0.85544   0.78213   0.00000  Uiso   1.00
O1175  O     0.58824   0.81892   0.77014   0.00000  Uiso   1.00
O1176  O     0.47093   0.73610   0.73413   0.00000  Uiso   1.00
O1177  O     0.53678   0.92286   0.71361   0.00000  Uiso   1.00
O1178  O     0.48784   0.79304   0.65459   0.00000  Uiso   1.00
O1179  O     0.46274   0.87058   0.84968   0.00000  Uiso   1.00
O1180  O     0.54157   0.84425   0.64606   0.00000  Uiso   1.00
O1181  O     0.50785   0.82546   0.84968   0.00000  Uiso   1.00
O1182  O     0.51264   0.74686   0.78214   0.00000  Uiso   1.00
O1183  O     0.47965   0.92751   0.77013   0.00000  Uiso   1.00
O1184  O     0.40745   0.79958   0.73413   0.00000  Uiso   1.00
O1185  O     0.60026   0.85939   0.71361   0.00000  Uiso   1.00
C1186  C     0.38647   0.82650   0.75935   0.00000  Uiso   1.00
C1187  C     0.61408   0.84029   0.74016   0.00000  Uiso   1.00
C1188  C     0.48925   0.72262   0.76070   0.00000  Uiso   1.00
C1189  C     0.50979   0.94452   0.73947   0.00000  Uiso   1.00
C1190  C     0.51891   0.81483   0.62945   0.00000  Uiso   1.00
C1191  C     0.48351   0.85259   0.87064   0.00000  Uiso   1.00
C1192  C     0.57650   0.78990   0.50994   0.00000  Uiso   1.00
H1193  H     0.59813   0.80790   0.92333   0.00000  Uiso   1.00
C1194  C     0.52784   0.80776   0.58107   0.00000  Uiso   1.00
C1195  C     0.43956   0.87715   0.94362   0.00000  Uiso   1.00
C1196  C     0.42425   0.87359   0.98968   0.00000  Uiso   1.00
C1197  C     0.44503   0.85023   0.51140   0.00000  Uiso   1.00
C1198  C     0.48748   0.84112   0.98968   0.00000  Uiso   1.00
C1199  C     0.50404   0.84794   0.94337   0.00000  Uiso   1.00
C1200  C     0.51389   0.82515   0.51243   0.00000  Uiso   1.00
C1201  C     0.55251   0.80984   0.98792   0.00000  Uiso   1.00
C1202  C     0.56781   0.81719   0.94251   0.00000  Uiso   1.00
C1203  C     0.54683   0.84070   0.92207   0.00000  Uiso   1.00
C1204  C     0.50453   0.82684   0.55924   0.00000  Uiso   1.00
C1205  C     0.56268   0.78734   0.55691   0.00000  Uiso   1.00
C1206  C     0.47683   0.86070   0.91967   0.00000  Uiso   1.00
H1207  H     0.48058   0.84513   0.57961   0.00000  Uiso   1.00
H1208  H     0.42076   0.89072   0.92603   0.00000  Uiso   1.00
C1209  C     0.65951   0.84388   0.73824   0.00000  Uiso   1.00
H1210  H     0.34791   0.86630   0.71660   0.00000  Uiso   1.00
C1211  C     0.34127   0.82160   0.76371   0.00000  Uiso   1.00
C1212  C     0.51382   0.98909   0.73403   0.00000  Uiso   1.00
C1213  C     0.48696   0.67857   0.76374   0.00000  Uiso   1.00
H1214  H     0.46325   0.99822   0.79185   0.00000  Uiso   1.00
N1215  N     0.58416   0.76504   0.58034   0.00000  Uiso   1.00
O1216  O     0.56198   0.73916   0.60968   0.00000  Uiso   1.00
O1217  O     0.62529   0.77303   0.57552   0.00000  Uiso   1.00
N1218  N     0.64945   0.78742   0.78833   0.00000  Uiso   1.00
O1219  O     0.65317   0.78322   0.82841   0.00000  Uiso   1.00
O1220  O     0.63235   0.75568   0.76707   0.00000  Uiso   1.00
N1221  N     0.54602   0.67390   0.69706   0.00000  Uiso   1.00
O1222  O     0.55525   0.98644   0.65832   0.00000  Uiso   1.00
O1223  O     0.56877   0.70943   0.70287   0.00000  Uiso   1.00
N1224  N     0.61287   0.77088   0.98463   0.00000  Uiso   1.00
H1225  H     0.61559   0.74287   0.99576   0.00000  Uiso   1.00
C1226  C     0.65304   0.79822   0.97552   0.00000  Uiso   1.00
H1227  H     0.66293   0.80873   0.50690   0.00000  Uiso   1.00
H1228  H     0.65049   0.82604   0.95902   0.00000  Uiso   1.00
H1229  H     0.34505   0.78133   0.95279   0.00000  Uiso   1.00
N1230  N     0.41976   0.82805   0.54935   0.00000  Uiso   1.00
O1231  O     0.41783   0.78774   0.54795   0.00000  Uiso   1.00
O1232  O     0.39881   0.84749   0.58524   0.00000  Uiso   1.00
N1233  N     0.38598   0.89117   0.51319   0.00000  Uiso   1.00
O1234  O     0.35679   0.89433   0.99244   0.00000  Uiso   1.00
O1235  O     0.38492   0.91269   0.55116   0.00000  Uiso   1.00
N1236  N     0.57041   0.85944   0.88175   0.00000  Uiso   1.00
H1237  H     0.59636   0.84499   0.86388   0.00000  Uiso   1.00
C1238  C     0.58076   0.90417   0.88650   0.00000  Uiso   1.00
H1239  H     0.59742   0.91600   0.85321   0.00000  Uiso   1.00
H1240  H     0.60218   0.91255   0.90953   0.00000  Uiso   1.00
H1241  H     0.55126   0.91938   0.89965   0.00000  Uiso   1.00
Zn1242 Zn    0.86005   0.80661   0.78734   0.00000  Uiso   1.00
Zn1243 Zn    0.80046   0.79124   0.71876   0.00000  Uiso   1.00
Zn1244 Zn    0.87723   0.86442   0.70657   0.00000  Uiso   1.00
Zn1245 Zn    0.79560   0.87106   0.78733   0.00000  Uiso   1.00
O1246  O     0.83333   0.83333   0.75000   0.00000  Uiso   1.00
O1247  O     0.73738   0.85544   0.78213   0.00000  Uiso   1.00
O1248  O     0.92158   0.81892   0.77014   0.00000  Uiso   1.00
O1249  O     0.80426   0.73610   0.73413   0.00000  Uiso   1.00
O1250  O     0.87012   0.92286   0.71361   0.00000  Uiso   1.00
O1251  O     0.82118   0.79304   0.65459   0.00000  Uiso   1.00
O1252  O     0.79607   0.87058   0.84968   0.00000  Uiso   1.00
O1253  O     0.87491   0.84425   0.64606   0.00000  Uiso   1.00
O1254  O     0.84118   0.82546   0.84968   0.00000  Uiso   1.00
O1255  O     0.84597   0.74686   0.78214   0.00000  Uiso   1.00
O1256  O     0.81298   0.92751   0.77013   0.00000  Uiso   1.00
O1257  O     0.74078   0.79958   0.73413   0.00000  Uiso   1.00
O1258  O     0.93360   0.85939   0.71361   0.00000  Uiso   1.00
C1259  C     0.71980   0.82650   0.75935   0.00000  Uiso   1.00
C1260  C     0.94742   0.84029   0.74016   0.00000  Uiso   1.00
C1261  C     0.82258   0.72262   0.76070   0.00000  Uiso   1.00
C1262  C     0.84313   0.94452   0.73947   0.00000  Uiso   1.00
C1263  C     0.85225   0.81483   0.62945   0.00000  Uiso   1.00
C1264  C     0.81685   0.85259   0.87064   0.00000  Uiso   1.00
C1265  C     0.90983   0.78990   0.50994   0.00000  Uiso   1.00
H1266  H     0.93146   0.80790   0.92333   0.00000  Uiso   1.00
C1267  C     0.86118   0.80776   0.58107   0.00000  Uiso   1.00
C1268  C     0.77289   0.87715   0.94362   0.00000  Uiso   1.00
C1269  C     0.75758   0.87359   0.98968   0.00000  Uiso   1.00
C1270  C     0.77836   0.85023   0.51140   0.00000  Uiso   1.00
C1271  C     0.82081   0.84112   0.98968   0.00000  Uiso   1.00
C1272  C     0.83738   0.84794   0.94337   0.00000  Uiso   1.00
C1273  C     0.84722   0.82515   0.51243   0.00000  Uiso   1.00
C1274  C     0.88584   0.80984   0.98792   0.00000  Uiso   1.00
C1275  C     0.90115   0.81719   0.94251   0.00000  Uiso   1.00
C1276  C     0.88016   0.84070   0.92207   0.00000  Uiso   1.00
C1277  C     0.83786   0.82684   0.55924   0.00000  Uiso   1.00
C1278  C     0.89602   0.78734   0.55691   0.00000  Uiso   1.00
C1279  C     0.81017   0.86070   0.91967   0.00000  Uiso   1.00
H1280  H     0.81392   0.84513   0.57961   0.00000  Uiso   1.00
H1281  H     0.75409   0.89072   0.92603   0.00000  Uiso   1.00
C1282  C     0.99285   0.84388   0.73824   0.00000  Uiso   1.00
H1283  H     0.68124   0.86630   0.71660   0.00000  Uiso   1.00
C1284  C     0.67460   0.82160   0.76371   0.00000  Uiso   1.00
C1285  C     0.84715   0.98909   0.73403   0.00000  Uiso   1.00
C1286  C     0.82029   0.67857   0.76374   0.00000  Uiso   1.00
H1287  H     0.79658   0.99822   0.79185   0.00000  Uiso   1.00
N1288  N     0.91749   0.76504   0.58034   0.00000  Uiso   1.00
O1289  O     0.89531   0.73916   0.60968   0.00000  Uiso   1.00
O1290  O     0.95862   0.77303   0.57552   0.00000  Uiso   1.00
N1291  N     0.98279   0.78742   0.78833   0.00000  Uiso   1.00
O1292  O     0.98650   0.78322   0.82841   0.00000  Uiso   1.00
O1293  O     0.96568   0.75568   0.76707   0.00000  Uiso   1.00
N1294  N     0.87935   0.67390   0.69706   0.00000  Uiso   1.00
O1295  O     0.88858   0.98644   0.65832   0.00000  Uiso   1.00
O1296  O     0.90210   0.70943   0.70287   0.00000  Uiso   1.00
N1297  N     0.94621   0.77088   0.98463   0.00000  Uiso   1.00
H1298  H     0.94892   0.74287   0.99576   0.00000  Uiso   1.00
C1299  C     0.98638   0.79822   0.97552   0.00000  Uiso   1.00
H1300  H     0.99626   0.80873   0.50690   0.00000  Uiso   1.00
H1301  H     0.98383   0.82604   0.95902   0.00000  Uiso   1.00
H1302  H     0.67838   0.78133   0.95279   0.00000  Uiso   1.00
N1303  N     0.75310   0.82805   0.54935   0.00000  Uiso   1.00
O1304  O     0.75116   0.78774   0.54795   0.00000  Uiso   1.00
O1305  O     0.73214   0.84749   0.58524   0.00000  Uiso   1.00
N1306  N     0.71931   0.89117   0.51319   0.00000  Uiso   1.00
O1307  O     0.69012   0.89433   0.99244   0.00000  Uiso   1.00
O1308  O     0.71825   0.91269   0.55116   0.00000  Uiso   1.00
N1309  N     0.90374   0.85944   0.88175   0.00000  Uiso   1.00
H1310  H     0.92969   0.84499   0.86388   0.00000  Uiso   1.00
C1311  C     0.91409   0.90417   0.88650   0.00000  Uiso   1.00
H1312  H     0.93075   0.91600   0.85321   0.00000  Uiso   1.00
H1313  H     0.93551   0.91255   0.90953   0.00000  Uiso   1.00
H1314  H     0.88459   0.91938   0.89965   0.00000  Uiso   1.00
loop_
_geom_bond_atom_site_label_1
_geom_bond_atom_site_label_2
_geom_bond_distance
_geom_bond_site_symmetry_2
_ccdc_geom_bond_type
Zn1    O7      1.929   .     S
Zn1    O5      1.953   .     S
Zn1    O13     1.932   .     S
Zn1    O14     1.932   .     S
Zn2    O16     1.933   .     S
Zn2    O5      1.949   .     S
Zn2    O8      1.934   .     S
Zn2    O10     1.929   .     S
Zn3    O9      1.935   .     S
Zn3    O12     1.938   .     S
Zn3    O17     1.940   .     S
Zn3    O5      1.931   .     S
Zn4    O15     1.928   .     S
Zn4    O11     1.937   .     S
Zn4    O6      1.936   .     S
Zn4    O5      1.943   .     S
O6     C18     1.277   .     A
O7     C19     1.267   .     A
O8     C20     1.279   .     A
O9     C21     1.270   .     A
O10    C22     1.275   .     A
O11    C23     1.285   .     A
O12    C22     1.271   .     A
O13    C23     1.286   .     A
O14    C20     1.274   .     A
O15    C21     1.278   .     A
O16    C18     1.267   .     A
O17    C19     1.284   .     A
C18    C43     1.431   .     S
C19    C41     1.455   .     S
C20    C45     1.437   .     S
C21    C44     1.461   .     S
C22    C26     1.450   .     S
C23    C38     1.478   .     S
C24    C37     1.413   .     A
C24    C690    1.421   1_554 S
C24    N713    1.428   1_554 S
H25    C34     1.081   .     S
C26    C37     1.404   .     A
C26    C36     1.385   .     A
C27    H40     1.083   .     S
C27    C38     1.399   .     A
C27    C28     1.393   .     A
C28    C686    1.410   .     S
C28    N722    1.438   .     S
C29    N62     1.440   .     S
C29    C685    1.410   1_554 S
C29    C687    1.433   1_554 S
C30    C31     1.422   .     A
C30    C686    1.433   .     S
C30    C689    1.427   .     S
C31    C38     1.419   .     A
C31    C35     1.423   .     A
C32    C36     1.398   .     A
C32    C687    1.427   1_554 S
C32    C690    1.422   1_554 S
C33    C34     1.397   .     A
C33    C681    1.421   .     S
C33    C689    1.422   .     S
C34    C35     1.392   .     A
C35    N68     1.428   .     S
C36    H39     1.080   .     S
C37    N47     1.439   .     S
C41    H115    1.088   .     S
C41    C116    1.348   .     S
H42    C187    1.088   1_455 S
C43    C187    1.348   1_455 S
C43    N196    1.439   1_455 S
C44    C264    1.341   .     S
C44    N272    1.446   .     S
C45    C482    1.341   1_545 S
C45    H484    1.086   1_545 S
H46    C264    1.086   .     S
N47    O49     1.300   .     A
N47    O48     1.301   .     A
N50    O52     1.302   .     A
N50    O51     1.301   .     A
N50    C116    1.439   .     S
N53    O55     1.302   .     A
N53    C482    1.446   1_545 S
N53    O492    1.301   1_545 S
O54    N272    1.301   .     S
N56    C58     1.450   .     S
N56    H57     1.031   .     S
N56    C681    1.428   .     S
C58    H60     1.108   .     S
C58    H716    1.108   .     S
C58    H134    1.110   .     S
H59    C715    1.108   1_554 S
H61    C204    1.110   1_455 S
N62    O63     1.301   .     A
N62    O64     1.300   .     A
N65    O67     1.301   .     A
N65    C685    1.438   1_554 S
N65    O723    1.301   1_554 S
O66    N722    1.301   .     S
N68    C70     1.447   .     S
N68    H69     1.032   .     S
C70    H73     1.110   .     S
C70    H71     1.111   .     S
C70    H72     1.111   .     S
Zn74   O80     1.929   .     S
Zn74   O78     1.953   .     S
Zn74   O86     1.932   .     S
Zn74   O87     1.932   .     S
Zn75   O89     1.933   .     S
Zn75   O78     1.949   .     S
Zn75   O81     1.934   .     S
Zn75   O83     1.929   .     S
Zn76   O82     1.935   .     S
Zn76   O85     1.938   .     S
Zn76   O90     1.940   .     S
Zn76   O78     1.931   .     S
Zn77   O88     1.928   .     S
Zn77   O84     1.937   .     S
Zn77   O79     1.936   .     S
Zn77   O78     1.943   .     S
O79    C91     1.277   .     A
O80    C92     1.267   .     A
O81    C93     1.279   .     A
O82    C94     1.270   .     A
O83    C95     1.275   .     A
O84    C96     1.285   .     A
O85    C95     1.271   .     A
O86    C96     1.286   .     A
O87    C93     1.274   .     A
O88    C94     1.278   .     A
O89    C91     1.267   .     A
O90    C92     1.284   .     A
C91    C116    1.431   .     S
C92    C114    1.455   .     S
C93    C118    1.437   .     S
C94    C117    1.461   .     S
C95    C99     1.450   .     S
C96    C111    1.478   .     S
C97    C110    1.413   .     A
C97    C763    1.421   1_554 S
C97    N786    1.428   1_554 S
H98    C107    1.081   .     S
C99    C110    1.404   .     A
C99    C109    1.385   .     A
C100   H113    1.083   .     S
C100   C111    1.399   .     A
C100   C101    1.393   .     A
C101   C759    1.410   .     S
C101   N795    1.438   .     S
C102   N135    1.440   .     S
C102   C758    1.410   1_554 S
C102   C760    1.433   1_554 S
C103   C104    1.422   .     A
C103   C759    1.433   .     S
C103   C762    1.427   .     S
C104   C111    1.419   .     A
C104   C108    1.423   .     A
C105   C109    1.398   .     A
C105   C760    1.427   1_554 S
C105   C763    1.422   1_554 S
C106   C107    1.397   .     A
C106   C754    1.421   .     S
C106   C762    1.422   .     S
C107   C108    1.392   .     A
C108   N141    1.428   .     S
C109   H112    1.080   .     S
C110   N120    1.439   .     S
C114   H188    1.088   .     S
C114   C189    1.348   .     S
C117   C337    1.341   .     S
C117   N345    1.446   .     S
C118   C555    1.341   1_545 S
C118   H557    1.086   1_545 S
H119   C337    1.086   .     S
N120   O122    1.300   .     A
N120   O121    1.301   .     A
N123   O125    1.302   .     A
N123   O124    1.301   .     A
N123   C189    1.439   .     S
N126   O128    1.302   .     A
N126   C555    1.446   1_545 S
N126   O565    1.301   1_545 S
O127   N345    1.301   .     S
N129   C131    1.450   .     S
N129   H130    1.031   .     S
N129   C754    1.428   .     S
C131   H133    1.108   .     S
C131   H789    1.108   .     S
C131   H207    1.110   .     S
H132   C788    1.108   1_554 S
N135   O136    1.301   .     A
N135   O137    1.300   .     A
N138   O140    1.301   .     A
N138   C758    1.438   1_554 S
N138   O796    1.301   1_554 S
O139   N795    1.301   .     S
N141   C143    1.447   .     S
N141   H142    1.032   .     S
C143   H146    1.110   .     S
C143   H144    1.111   .     S
C143   H145    1.111   .     S
Zn147  O153    1.929   .     S
Zn147  O151    1.953   .     S
Zn147  O159    1.932   .     S
Zn147  O160    1.932   .     S
Zn148  O162    1.933   .     S
Zn148  O151    1.949   .     S
Zn148  O154    1.934   .     S
Zn148  O156    1.929   .     S
Zn149  O155    1.935   .     S
Zn149  O158    1.938   .     S
Zn149  O163    1.940   .     S
Zn149  O151    1.931   .     S
Zn150  O161    1.928   .     S
Zn150  O157    1.937   .     S
Zn150  O152    1.936   .     S
Zn150  O151    1.943   .     S
O152   C164    1.277   .     A
O153   C165    1.267   .     A
O154   C166    1.279   .     A
O155   C167    1.270   .     A
O156   C168    1.275   .     A
O157   C169    1.285   .     A
O158   C168    1.271   .     A
O159   C169    1.286   .     A
O160   C166    1.274   .     A
O161   C167    1.278   .     A
O162   C164    1.267   .     A
O163   C165    1.284   .     A
C164   C189    1.431   .     S
C165   C187    1.455   .     S
C166   C191    1.437   .     S
C167   C190    1.461   .     S
C168   C172    1.450   .     S
C169   C184    1.478   .     S
C170   C183    1.413   .     A
C170   C836    1.421   1_554 S
C170   N859    1.428   1_554 S
H171   C180    1.081   .     S
C172   C183    1.404   .     A
C172   C182    1.385   .     A
C173   H186    1.083   .     S
C173   C184    1.399   .     A
C173   C174    1.393   .     A
C174   C832    1.410   .     S
C174   N868    1.438   .     S
C175   N208    1.440   .     S
C175   C831    1.410   1_554 S
C175   C833    1.433   1_554 S
C176   C177    1.422   .     A
C176   C832    1.433   .     S
C176   C835    1.427   .     S
C177   C184    1.419   .     A
C177   C181    1.423   .     A
C178   C182    1.398   .     A
C178   C833    1.427   1_554 S
C178   C836    1.422   1_554 S
C179   C180    1.397   .     A
C179   C827    1.421   .     S
C179   C835    1.422   .     S
C180   C181    1.392   .     A
C181   N214    1.428   .     S
C182   H185    1.080   .     S
C183   N193    1.439   .     S
C187   H42     1.088   1_655 S
C187   C43     1.348   1_655 S
C190   C410    1.341   .     S
C190   N418    1.446   .     S
C191   C628    1.341   1_545 S
C191   H630    1.086   1_545 S
H192   C410    1.086   .     S
N193   O195    1.300   .     A
N193   O194    1.301   .     A
N196   O198    1.302   .     A
N196   O197    1.301   .     A
N196   C43     1.439   1_655 S
N199   O201    1.302   .     A
N199   C628    1.446   1_545 S
N199   O638    1.301   1_545 S
O200   N418    1.301   .     S
N202   C204    1.450   .     S
N202   H203    1.031   .     S
N202   C827    1.428   .     S
C204   H206    1.108   .     S
C204   H862    1.108   .     S
C204   H61     1.110   1_655 S
H205   C861    1.108   1_554 S
N208   O209    1.301   .     A
N208   O210    1.300   .     A
N211   O213    1.301   .     A
N211   C831    1.438   1_554 S
N211   O869    1.301   1_554 S
O212   N868    1.301   .     S
N214   C216    1.447   .     S
N214   H215    1.032   .     S
C216   H219    1.110   .     S
C216   H217    1.111   .     S
C216   H218    1.111   .     S
Zn220  O226    1.929   .     S
Zn220  O224    1.953   .     S
Zn220  O232    1.932   .     S
Zn220  O233    1.932   .     S
Zn221  O235    1.933   .     S
Zn221  O224    1.949   .     S
Zn221  O227    1.934   .     S
Zn221  O229    1.929   .     S
Zn222  O228    1.935   .     S
Zn222  O231    1.938   .     S
Zn222  O236    1.940   .     S
Zn222  O224    1.931   .     S
Zn223  O234    1.928   .     S
Zn223  O230    1.937   .     S
Zn223  O225    1.936   .     S
Zn223  O224    1.943   .     S
O225   C237    1.277   .     A
O226   C238    1.267   .     A
O227   C239    1.279   .     A
O228   C240    1.270   .     A
O229   C241    1.275   .     A
O230   C242    1.285   .     A
O231   C241    1.271   .     A
O232   C242    1.286   .     A
O233   C239    1.274   .     A
O234   C240    1.278   .     A
O235   C237    1.267   .     A
O236   C238    1.284   .     A
C237   C262    1.431   .     S
C238   C260    1.455   .     S
C239   C264    1.437   .     S
C240   C263    1.461   .     S
C241   C245    1.450   .     S
C242   C257    1.478   .     S
C243   C256    1.413   .     A
C243   C909    1.421   1_554 S
C243   N932    1.428   1_554 S
H244   C253    1.081   .     S
C245   C256    1.404   .     A
C245   C255    1.385   .     A
C246   H259    1.083   .     S
C246   C257    1.399   .     A
C246   C247    1.393   .     A
C247   C905    1.410   .     S
C247   N941    1.438   .     S
C248   N281    1.440   .     S
C248   C904    1.410   1_554 S
C248   C906    1.433   1_554 S
C249   C250    1.422   .     A
C249   C905    1.433   .     S
C249   C908    1.427   .     S
C250   C257    1.419   .     A
C250   C254    1.423   .     A
C251   C255    1.398   .     A
C251   C906    1.427   1_554 S
C251   C909    1.422   1_554 S
C252   C253    1.397   .     A
C252   C900    1.421   .     S
C252   C908    1.422   .     S
C253   C254    1.392   .     A
C254   N287    1.428   .     S
C255   H258    1.080   .     S
C256   N266    1.439   .     S
C260   H334    1.088   .     S
C260   C335    1.348   .     S
H261   C406    1.088   1_455 S
C262   C406    1.348   1_455 S
C262   N415    1.439   1_455 S
C263   C483    1.341   .     S
C263   N491    1.446   .     S
H265   C483    1.086   .     S
N266   O268    1.300   .     A
N266   O267    1.301   .     A
N269   O271    1.302   .     A
N269   O270    1.301   .     A
N269   C335    1.439   .     S
N272   O274    1.302   .     A
O273   N491    1.301   .     S
N275   C277    1.450   .     S
N275   H276    1.031   .     S
N275   C900    1.428   .     S
C277   H279    1.108   .     S
C277   H935    1.108   .     S
C277   H353    1.110   .     S
H278   C934    1.108   1_554 S
H280   C423    1.110   1_455 S
N281   O282    1.301   .     A
N281   O283    1.300   .     A
N284   O286    1.301   .     A
N284   C904    1.438   1_554 S
N284   O942    1.301   1_554 S
O285   N941    1.301   .     S
N287   C289    1.447   .     S
N287   H288    1.032   .     S
C289   H292    1.110   .     S
C289   H290    1.111   .     S
C289   H291    1.111   .     S
Zn293  O299    1.929   .     S
Zn293  O297    1.953   .     S
Zn293  O305    1.932   .     S
Zn293  O306    1.932   .     S
Zn294  O308    1.933   .     S
Zn294  O297    1.949   .     S
Zn294  O300    1.934   .     S
Zn294  O302    1.929   .     S
Zn295  O301    1.935   .     S
Zn295  O304    1.938   .     S
Zn295  O309    1.940   .     S
Zn295  O297    1.931   .     S
Zn296  O307    1.928   .     S
Zn296  O303    1.937   .     S
Zn296  O298    1.936   .     S
Zn296  O297    1.943   .     S
O298   C310    1.277   .     A
O299   C311    1.267   .     A
O300   C312    1.279   .     A
O301   C313    1.270   .     A
O302   C314    1.275   .     A
O303   C315    1.285   .     A
O304   C314    1.271   .     A
O305   C315    1.286   .     A
O306   C312    1.274   .     A
O307   C313    1.278   .     A
O308   C310    1.267   .     A
O309   C311    1.284   .     A
C310   C335    1.431   .     S
C311   C333    1.455   .     S
C312   C337    1.437   .     S
C313   C336    1.461   .     S
C314   C318    1.450   .     S
C315   C330    1.478   .     S
C316   C329    1.413   .     A
C316   C982    1.421   1_554 S
C316   N1005   1.428   1_554 S
H317   C326    1.081   .     S
C318   C329    1.404   .     A
C318   C328    1.385   .     A
C319   H332    1.083   .     S
C319   C330    1.399   .     A
C319   C320    1.393   .     A
C320   C978    1.410   .     S
C320   N1014   1.438   .     S
C321   N354    1.440   .     S
C321   C977    1.410   1_554 S
C321   C979    1.433   1_554 S
C322   C323    1.422   .     A
C322   C978    1.433   .     S
C322   C981    1.427   .     S
C323   C330    1.419   .     A
C323   C327    1.423   .     A
C324   C328    1.398   .     A
C324   C979    1.427   1_554 S
C324   C982    1.422   1_554 S
C325   C326    1.397   .     A
C325   C973    1.421   .     S
C325   C981    1.422   .     S
C326   C327    1.392   .     A
C327   N360    1.428   .     S
C328   H331    1.080   .     S
C329   N339    1.439   .     S
C333   H407    1.088   .     S
C333   C408    1.348   .     S
C336   C556    1.341   .     S
C336   N564    1.446   .     S
H338   C556    1.086   .     S
N339   O341    1.300   .     A
N339   O340    1.301   .     A
N342   O344    1.302   .     A
N342   O343    1.301   .     A
N342   C408    1.439   .     S
N345   O347    1.302   .     A
O346   N564    1.301   .     S
N348   C350    1.450   .     S
N348   H349    1.031   .     S
N348   C973    1.428   .     S
C350   H352    1.108   .     S
C350   H1008   1.108   .     S
C350   H426    1.110   .     S
H351   C1007   1.108   1_554 S
N354   O355    1.301   .     A
N354   O356    1.300   .     A
N357   O359    1.301   .     A
N357   C977    1.438   1_554 S
N357   O1015   1.301   1_554 S
O358   N1014   1.301   .     S
N360   C362    1.447   .     S
N360   H361    1.032   .     S
C362   H365    1.110   .     S
C362   H363    1.111   .     S
C362   H364    1.111   .     S
Zn366  O372    1.929   .     S
Zn366  O370    1.953   .     S
Zn366  O378    1.932   .     S
Zn366  O379    1.932   .     S
Zn367  O381    1.933   .     S
Zn367  O370    1.949   .     S
Zn367  O373    1.934   .     S
Zn367  O375    1.929   .     S
Zn368  O374    1.935   .     S
Zn368  O377    1.938   .     S
Zn368  O382    1.940   .     S
Zn368  O370    1.931   .     S
Zn369  O380    1.928   .     S
Zn369  O376    1.937   .     S
Zn369  O371    1.936   .     S
Zn369  O370    1.943   .     S
O371   C383    1.277   .     A
O372   C384    1.267   .     A
O373   C385    1.279   .     A
O374   C386    1.270   .     A
O375   C387    1.275   .     A
O376   C388    1.285   .     A
O377   C387    1.271   .     A
O378   C388    1.286   .     A
O379   C385    1.274   .     A
O380   C386    1.278   .     A
O381   C383    1.267   .     A
O382   C384    1.284   .     A
C383   C408    1.431   .     S
C384   C406    1.455   .     S
C385   C410    1.437   .     S
C386   C409    1.461   .     S
C387   C391    1.450   .     S
C388   C403    1.478   .     S
C389   C402    1.413   .     A
C389   C1055   1.421   1_554 S
C389   N1078   1.428   1_554 S
H390   C399    1.081   .     S
C391   C402    1.404   .     A
C391   C401    1.385   .     A
C392   H405    1.083   .     S
C392   C403    1.399   .     A
C392   C393    1.393   .     A
C393   C1051   1.410   .     S
C393   N1087   1.438   .     S
C394   N427    1.440   .     S
C394   C1050   1.410   1_554 S
C394   C1052   1.433   1_554 S
C395   C396    1.422   .     A
C395   C1051   1.433   .     S
C395   C1054   1.427   .     S
C396   C403    1.419   .     A
C396   C400    1.423   .     A
C397   C401    1.398   .     A
C397   C1052   1.427   1_554 S
C397   C1055   1.422   1_554 S
C398   C399    1.397   .     A
C398   C1046   1.421   .     S
C398   C1054   1.422   .     S
C399   C400    1.392   .     A
C400   N433    1.428   .     S
C401   H404    1.080   .     S
C402   N412    1.439   .     S
C406   H261    1.088   1_655 S
C406   C262    1.348   1_655 S
C409   C629    1.341   .     S
C409   N637    1.446   .     S
H411   C629    1.086   .     S
N412   O414    1.300   .     A
N412   O413    1.301   .     A
N415   O417    1.302   .     A
N415   O416    1.301   .     A
N415   C262    1.439   1_655 S
N418   O420    1.302   .     A
O419   N637    1.301   .     S
N421   C423    1.450   .     S
N421   H422    1.031   .     S
N421   C1046   1.428   .     S
C423   H425    1.108   .     S
C423   H1081   1.108   .     S
C423   H280    1.110   1_655 S
H424   C1080   1.108   1_554 S
N427   O428    1.301   .     A
N427   O429    1.300   .     A
N430   O432    1.301   .     A
N430   C1050   1.438   1_554 S
N430   O1088   1.301   1_554 S
O431   N1087   1.301   .     S
N433   C435    1.447   .     S
N433   H434    1.032   .     S
C435   H438    1.110   .     S
C435   H436    1.111   .     S
C435   H437    1.111   .     S
Zn439  O445    1.929   .     S
Zn439  O443    1.953   .     S
Zn439  O451    1.932   .     S
Zn439  O452    1.932   .     S
Zn440  O454    1.933   .     S
Zn440  O443    1.949   .     S
Zn440  O446    1.934   .     S
Zn440  O448    1.929   .     S
Zn441  O447    1.935   .     S
Zn441  O450    1.938   .     S
Zn441  O455    1.940   .     S
Zn441  O443    1.931   .     S
Zn442  O453    1.928   .     S
Zn442  O449    1.937   .     S
Zn442  O444    1.936   .     S
Zn442  O443    1.943   .     S
O444   C456    1.277   .     A
O445   C457    1.267   .     A
O446   C458    1.279   .     A
O447   C459    1.270   .     A
O448   C460    1.275   .     A
O449   C461    1.285   .     A
O450   C460    1.271   .     A
O451   C461    1.286   .     A
O452   C458    1.274   .     A
O453   C459    1.278   .     A
O454   C456    1.267   .     A
O455   C457    1.284   .     A
C456   C481    1.431   .     S
C457   C479    1.455   .     S
C458   C483    1.437   .     S
C459   C482    1.461   .     S
C460   C464    1.450   .     S
C461   C476    1.478   .     S
C462   C475    1.413   .     A
C462   C1128   1.421   1_554 S
C462   N1151   1.428   1_554 S
H463   C472    1.081   .     S
C464   C475    1.404   .     A
C464   C474    1.385   .     A
C465   H478    1.083   .     S
C465   C476    1.399   .     A
C465   C466    1.393   .     A
C466   C1124   1.410   .     S
C466   N1160   1.438   .     S
C467   N500    1.440   .     S
C467   C1123   1.410   1_554 S
C467   C1125   1.433   1_554 S
C468   C469    1.422   .     A
C468   C1124   1.433   .     S
C468   C1127   1.427   .     S
C469   C476    1.419   .     A
C469   C473    1.423   .     A
C470   C474    1.398   .     A
C470   C1125   1.427   1_554 S
C470   C1128   1.422   1_554 S
C471   C472    1.397   .     A
C471   C1119   1.421   .     S
C471   C1127   1.422   .     S
C472   C473    1.392   .     A
C473   N506    1.428   .     S
C474   H477    1.080   .     S
C475   N485    1.439   .     S
C479   H553    1.088   .     S
C479   C554    1.348   .     S
H480   C625    1.088   1_455 S
C481   C625    1.348   1_455 S
C481   N634    1.439   1_455 S
C482   C45     1.341   1_565 S
C482   N53     1.446   1_565 S
H484   C45     1.086   1_565 S
N485   O487    1.300   .     A
N485   O486    1.301   .     A
N488   O490    1.302   .     A
N488   O489    1.301   .     A
N488   C554    1.439   .     S
N491   O493    1.302   .     A
O492   N53     1.301   1_565 S
N494   C496    1.450   .     S
N494   H495    1.031   .     S
N494   C1119   1.428   .     S
C496   H498    1.108   .     S
C496   H1154   1.108   .     S
C496   H572    1.110   .     S
H497   C1153   1.108   1_554 S
H499   C642    1.110   1_455 S
N500   O501    1.301   .     A
N500   O502    1.300   .     A
N503   O505    1.301   .     A
N503   C1123   1.438   1_554 S
N503   O1161   1.301   1_554 S
O504   N1160   1.301   .     S
N506   C508    1.447   .     S
N506   H507    1.032   .     S
C508   H511    1.110   .     S
C508   H509    1.111   .     S
C508   H510    1.111   .     S
Zn512  O518    1.929   .     S
Zn512  O516    1.953   .     S
Zn512  O524    1.932   .     S
Zn512  O525    1.932   .     S
Zn513  O527    1.933   .     S
Zn513  O516    1.949   .     S
Zn513  O519    1.934   .     S
Zn513  O521    1.929   .     S
Zn514  O520    1.935   .     S
Zn514  O523    1.938   .     S
Zn514  O528    1.940   .     S
Zn514  O516    1.931   .     S
Zn515  O526    1.928   .     S
Zn515  O522    1.937   .     S
Zn515  O517    1.936   .     S
Zn515  O516    1.943   .     S
O517   C529    1.277   .     A
O518   C530    1.267   .     A
O519   C531    1.279   .     A
O520   C532    1.270   .     A
O521   C533    1.275   .     A
O522   C534    1.285   .     A
O523   C533    1.271   .     A
O524   C534    1.286   .     A
O525   C531    1.274   .     A
O526   C532    1.278   .     A
O527   C529    1.267   .     A
O528   C530    1.284   .     A
C529   C554    1.431   .     S
C530   C552    1.455   .     S
C531   C556    1.437   .     S
C532   C555    1.461   .     S
C533   C537    1.450   .     S
C534   C549    1.478   .     S
C535   C548    1.413   .     A
C535   C1201   1.421   1_554 S
C535   N1224   1.428   1_554 S
H536   C545    1.081   .     S
C537   C548    1.404   .     A
C537   C547    1.385   .     A
C538   H551    1.083   .     S
C538   C549    1.399   .     A
C538   C539    1.393   .     A
C539   C1197   1.410   .     S
C539   N1233   1.438   .     S
C540   N573    1.440   .     S
C540   C1196   1.410   1_554 S
C540   C1198   1.433   1_554 S
C541   C542    1.422   .     A
C541   C1197   1.433   .     S
C541   C1200   1.427   .     S
C542   C549    1.419   .     A
C542   C546    1.423   .     A
C543   C547    1.398   .     A
C543   C1198   1.427   1_554 S
C543   C1201   1.422   1_554 S
C544   C545    1.397   .     A
C544   C1192   1.421   .     S
C544   C1200   1.422   .     S
C545   C546    1.392   .     A
C546   N579    1.428   .     S
C547   H550    1.080   .     S
C548   N558    1.439   .     S
C552   H626    1.088   .     S
C552   C627    1.348   .     S
C555   C118    1.341   1_565 S
C555   N126    1.446   1_565 S
H557   C118    1.086   1_565 S
N558   O560    1.300   .     A
N558   O559    1.301   .     A
N561   O563    1.302   .     A
N561   O562    1.301   .     A
N561   C627    1.439   .     S
N564   O566    1.302   .     A
O565   N126    1.301   1_565 S
N567   C569    1.450   .     S
N567   H568    1.031   .     S
N567   C1192   1.428   .     S
C569   H571    1.108   .     S
C569   H1227   1.108   .     S
C569   H645    1.110   .     S
H570   C1226   1.108   1_554 S
N573   O574    1.301   .     A
N573   O575    1.300   .     A
N576   O578    1.301   .     A
N576   C1196   1.438   1_554 S
N576   O1234   1.301   1_554 S
O577   N1233   1.301   .     S
N579   C581    1.447   .     S
N579   H580    1.032   .     S
C581   H584    1.110   .     S
C581   H582    1.111   .     S
C581   H583    1.111   .     S
Zn585  O591    1.929   .     S
Zn585  O589    1.953   .     S
Zn585  O597    1.932   .     S
Zn585  O598    1.932   .     S
Zn586  O600    1.933   .     S
Zn586  O589    1.949   .     S
Zn586  O592    1.934   .     S
Zn586  O594    1.929   .     S
Zn587  O593    1.935   .     S
Zn587  O596    1.938   .     S
Zn587  O601    1.940   .     S
Zn587  O589    1.931   .     S
Zn588  O599    1.928   .     S
Zn588  O595    1.937   .     S
Zn588  O590    1.936   .     S
Zn588  O589    1.943   .     S
O590   C602    1.277   .     A
O591   C603    1.267   .     A
O592   C604    1.279   .     A
O593   C605    1.270   .     A
O594   C606    1.275   .     A
O595   C607    1.285   .     A
O596   C606    1.271   .     A
O597   C607    1.286   .     A
O598   C604    1.274   .     A
O599   C605    1.278   .     A
O600   C602    1.267   .     A
O601   C603    1.284   .     A
C602   C627    1.431   .     S
C603   C625    1.455   .     S
C604   C629    1.437   .     S
C605   C628    1.461   .     S
C606   C610    1.450   .     S
C607   C622    1.478   .     S
C608   C621    1.413   .     A
C608   C1274   1.421   1_554 S
C608   N1297   1.428   1_554 S
H609   C618    1.081   .     S
C610   C621    1.404   .     A
C610   C620    1.385   .     A
C611   H624    1.083   .     S
C611   C622    1.399   .     A
C611   C612    1.393   .     A
C612   C1270   1.410   .     S
C612   N1306   1.438   .     S
C613   N646    1.440   .     S
C613   C1269   1.410   1_554 S
C613   C1271   1.433   1_554 S
C614   C615    1.422   .     A
C614   C1270   1.433   .     S
C614   C1273   1.427   .     S
C615   C622    1.419   .     A
C615   C619    1.423   .     A
C616   C620    1.398   .     A
C616   C1271   1.427   1_554 S
C616   C1274   1.422   1_554 S
C617   C618    1.397   .     A
C617   C1265   1.421   .     S
C617   C1273   1.422   .     S
C618   C619    1.392   .     A
C619   N652    1.428   .     S
C620   H623    1.080   .     S
C621   N631    1.439   .     S
C625   H480    1.088   1_655 S
C625   C481    1.348   1_655 S
C628   C191    1.341   1_565 S
C628   N199    1.446   1_565 S
H630   C191    1.086   1_565 S
N631   O633    1.300   .     A
N631   O632    1.301   .     A
N634   O636    1.302   .     A
N634   O635    1.301   .     A
N634   C481    1.439   1_655 S
N637   O639    1.302   .     A
O638   N199    1.301   1_565 S
N640   C642    1.450   .     S
N640   H641    1.031   .     S
N640   C1265   1.428   .     S
C642   H644    1.108   .     S
C642   H1300   1.108   .     S
C642   H499    1.110   1_655 S
H643   C1299   1.108   1_554 S
N646   O647    1.301   .     A
N646   O648    1.300   .     A
N649   O651    1.301   .     A
N649   C1269   1.438   1_554 S
N649   O1307   1.301   1_554 S
O650   N1306   1.301   .     S
N652   C654    1.447   .     S
N652   H653    1.032   .     S
C654   H657    1.110   .     S
C654   H655    1.111   .     S
C654   H656    1.111   .     S
Zn658  O664    1.929   .     S
Zn658  O662    1.953   .     S
Zn658  O670    1.932   .     S
Zn658  O671    1.932   .     S
Zn659  O673    1.933   .     S
Zn659  O662    1.949   .     S
Zn659  O665    1.934   .     S
Zn659  O667    1.929   .     S
Zn660  O666    1.935   .     S
Zn660  O669    1.938   .     S
Zn660  O674    1.940   .     S
Zn660  O662    1.931   .     S
Zn661  O672    1.928   .     S
Zn661  O668    1.937   .     S
Zn661  O663    1.936   .     S
Zn661  O662    1.943   .     S
O663   C675    1.277   .     A
O664   C676    1.267   .     A
O665   C677    1.279   .     A
O666   C678    1.270   .     A
O667   C679    1.275   .     A
O668   C680    1.285   .     A
O669   C679    1.271   .     A
O670   C680    1.286   .     A
O671   C677    1.274   .     A
O672   C678    1.278   .     A
O673   C675    1.267   .     A
O674   C676    1.284   .     A
C675   C700    1.431   .     S
C676   C698    1.455   .     S
C677   C702    1.437   .     S
C678   C701    1.461   .     S
C679   C683    1.450   .     S
C680   C695    1.478   .     S
C681   C694    1.413   .     A
H682   C691    1.081   .     S
C683   C694    1.404   .     A
C683   C693    1.385   .     A
C684   H697    1.083   .     S
C684   C695    1.399   .     A
C684   C685    1.393   .     A
C685   C29     1.410   1_556 S
C685   N65     1.438   1_556 S
C686   N719    1.440   .     S
C687   C688    1.422   .     A
C687   C29     1.433   1_556 S
C687   C32     1.427   1_556 S
C688   C695    1.419   .     A
C688   C692    1.423   .     A
C689   C693    1.398   .     A
C690   C691    1.397   .     A
C690   C24     1.421   1_556 S
C690   C32     1.422   1_556 S
C691   C692    1.392   .     A
C692   N725    1.428   .     S
C693   H696    1.080   .     S
C694   N704    1.439   .     S
C698   H772    1.088   .     S
C698   C773    1.348   .     S
H699   C844    1.088   1_455 S
C700   C844    1.348   1_455 S
C700   N853    1.439   1_455 S
C701   C921    1.341   .     S
C701   N929    1.446   .     S
C702   C1139   1.341   1_545 S
C702   H1141   1.086   1_545 S
H703   C921    1.086   .     S
N704   O706    1.300   .     A
N704   O705    1.301   .     A
N707   O709    1.302   .     A
N707   O708    1.301   .     A
N707   C773    1.439   .     S
N710   O712    1.302   .     A
N710   C1139   1.446   1_545 S
N710   O1149   1.301   1_545 S
O711   N929    1.301   .     S
N713   C715    1.450   .     S
N713   H714    1.031   .     S
N713   C24     1.428   1_556 S
C715   H717    1.108   .     S
C715   H59     1.108   1_556 S
C715   H791    1.110   .     S
H718   C861    1.110   1_455 S
N719   O720    1.301   .     A
N719   O721    1.300   .     A
N722   O724    1.301   .     A
O723   N65     1.301   1_556 S
N725   C727    1.447   .     S
N725   H726    1.032   .     S
C727   H730    1.110   .     S
C727   H728    1.111   .     S
C727   H729    1.111   .     S
Zn731  O737    1.929   .     S
Zn731  O735    1.953   .     S
Zn731  O743    1.932   .     S
Zn731  O744    1.932   .     S
Zn732  O746    1.933   .     S
Zn732  O735    1.949   .     S
Zn732  O738    1.934   .     S
Zn732  O740    1.929   .     S
Zn733  O739    1.935   .     S
Zn733  O742    1.938   .     S
Zn733  O747    1.940   .     S
Zn733  O735    1.931   .     S
Zn734  O745    1.928   .     S
Zn734  O741    1.937   .     S
Zn734  O736    1.936   .     S
Zn734  O735    1.943   .     S
O736   C748    1.277   .     A
O737   C749    1.267   .     A
O738   C750    1.279   .     A
O739   C751    1.270   .     A
O740   C752    1.275   .     A
O741   C753    1.285   .     A
O742   C752    1.271   .     A
O743   C753    1.286   .     A
O744   C750    1.274   .     A
O745   C751    1.278   .     A
O746   C748    1.267   .     A
O747   C749    1.284   .     A
C748   C773    1.431   .     S
C749   C771    1.455   .     S
C750   C775    1.437   .     S
C751   C774    1.461   .     S
C752   C756    1.450   .     S
C753   C768    1.478   .     S
C754   C767    1.413   .     A
H755   C764    1.081   .     S
C756   C767    1.404   .     A
C756   C766    1.385   .     A
C757   H770    1.083   .     S
C757   C768    1.399   .     A
C757   C758    1.393   .     A
C758   C102    1.410   1_556 S
C758   N138    1.438   1_556 S
C759   N792    1.440   .     S
C760   C761    1.422   .     A
C760   C102    1.433   1_556 S
C760   C105    1.427   1_556 S
C761   C768    1.419   .     A
C761   C765    1.423   .     A
C762   C766    1.398   .     A
C763   C764    1.397   .     A
C763   C97     1.421   1_556 S
C763   C105    1.422   1_556 S
C764   C765    1.392   .     A
C765   N798    1.428   .     S
C766   H769    1.080   .     S
C767   N777    1.439   .     S
C771   H845    1.088   .     S
C771   C846    1.348   .     S
C774   C994    1.341   .     S
C774   N1002   1.446   .     S
C775   C1212   1.341   1_545 S
C775   H1214   1.086   1_545 S
H776   C994    1.086   .     S
N777   O779    1.300   .     A
N777   O778    1.301   .     A
N780   O782    1.302   .     A
N780   O781    1.301   .     A
N780   C846    1.439   .     S
N783   O785    1.302   .     A
N783   C1212   1.446   1_545 S
N783   O1222   1.301   1_545 S
O784   N1002   1.301   .     S
N786   C788    1.450   .     S
N786   H787    1.031   .     S
N786   C97     1.428   1_556 S
C788   H790    1.108   .     S
C788   H132    1.108   1_556 S
C788   H864    1.110   .     S
N792   O793    1.301   .     A
N792   O794    1.300   .     A
N795   O797    1.301   .     A
O796   N138    1.301   1_556 S
N798   C800    1.447   .     S
N798   H799    1.032   .     S
C800   H803    1.110   .     S
C800   H801    1.111   .     S
C800   H802    1.111   .     S
Zn804  O810    1.929   .     S
Zn804  O808    1.953   .     S
Zn804  O816    1.932   .     S
Zn804  O817    1.932   .     S
Zn805  O819    1.933   .     S
Zn805  O808    1.949   .     S
Zn805  O811    1.934   .     S
Zn805  O813    1.929   .     S
Zn806  O812    1.935   .     S
Zn806  O815    1.938   .     S
Zn806  O820    1.940   .     S
Zn806  O808    1.931   .     S
Zn807  O818    1.928   .     S
Zn807  O814    1.937   .     S
Zn807  O809    1.936   .     S
Zn807  O808    1.943   .     S
O809   C821    1.277   .     A
O810   C822    1.267   .     A
O811   C823    1.279   .     A
O812   C824    1.270   .     A
O813   C825    1.275   .     A
O814   C826    1.285   .     A
O815   C825    1.271   .     A
O816   C826    1.286   .     A
O817   C823    1.274   .     A
O818   C824    1.278   .     A
O819   C821    1.267   .     A
O820   C822    1.284   .     A
C821   C846    1.431   .     S
C822   C844    1.455   .     S
C823   C848    1.437   .     S
C824   C847    1.461   .     S
C825   C829    1.450   .     S
C826   C841    1.478   .     S
C827   C840    1.413   .     A
H828   C837    1.081   .     S
C829   C840    1.404   .     A
C829   C839    1.385   .     A
C830   H843    1.083   .     S
C830   C841    1.399   .     A
C830   C831    1.393   .     A
C831   C175    1.410   1_556 S
C831   N211    1.438   1_556 S
C832   N865    1.440   .     S
C833   C834    1.422   .     A
C833   C175    1.433   1_556 S
C833   C178    1.427   1_556 S
C834   C841    1.419   .     A
C834   C838    1.423   .     A
C835   C839    1.398   .     A
C836   C837    1.397   .     A
C836   C170    1.421   1_556 S
C836   C178    1.422   1_556 S
C837   C838    1.392   .     A
C838   N871    1.428   .     S
C839   H842    1.080   .     S
C840   N850    1.439   .     S
C844   H699    1.088   1_655 S
C844   C700    1.348   1_655 S
C847   C1067   1.341   .     S
C847   N1075   1.446   .     S
C848   C1285   1.341   1_545 S
C848   H1287   1.086   1_545 S
H849   C1067   1.086   .     S
N850   O852    1.300   .     A
N850   O851    1.301   .     A
N853   O855    1.302   .     A
N853   O854    1.301   .     A
N853   C700    1.439   1_655 S
N856   O858    1.302   .     A
N856   C1285   1.446   1_545 S
N856   O1295   1.301   1_545 S
O857   N1075   1.301   .     S
N859   C861    1.450   .     S
N859   H860    1.031   .     S
N859   C170    1.428   1_556 S
C861   H863    1.108   .     S
C861   H205    1.108   1_556 S
C861   H718    1.110   1_655 S
N865   O866    1.301   .     A
N865   O867    1.300   .     A
N868   O870    1.301   .     A
O869   N211    1.301   1_556 S
N871   C873    1.447   .     S
N871   H872    1.032   .     S
C873   H876    1.110   .     S
C873   H874    1.111   .     S
C873   H875    1.111   .     S
Zn877  O883    1.929   .     S
Zn877  O881    1.953   .     S
Zn877  O889    1.932   .     S
Zn877  O890    1.932   .     S
Zn878  O892    1.933   .     S
Zn878  O881    1.949   .     S
Zn878  O884    1.934   .     S
Zn878  O886    1.929   .     S
Zn879  O885    1.935   .     S
Zn879  O888    1.938   .     S
Zn879  O893    1.940   .     S
Zn879  O881    1.931   .     S
Zn880  O891    1.928   .     S
Zn880  O887    1.937   .     S
Zn880  O882    1.936   .     S
Zn880  O881    1.943   .     S
O882   C894    1.277   .     A
O883   C895    1.267   .     A
O884   C896    1.279   .     A
O885   C897    1.270   .     A
O886   C898    1.275   .     A
O887   C899    1.285   .     A
O888   C898    1.271   .     A
O889   C899    1.286   .     A
O890   C896    1.274   .     A
O891   C897    1.278   .     A
O892   C894    1.267   .     A
O893   C895    1.284   .     A
C894   C919    1.431   .     S
C895   C917    1.455   .     S
C896   C921    1.437   .     S
C897   C920    1.461   .     S
C898   C902    1.450   .     S
C899   C914    1.478   .     S
C900   C913    1.413   .     A
H901   C910    1.081   .     S
C902   C913    1.404   .     A
C902   C912    1.385   .     A
C903   H916    1.083   .     S
C903   C914    1.399   .     A
C903   C904    1.393   .     A
C904   C248    1.410   1_556 S
C904   N284    1.438   1_556 S
C905   N938    1.440   .     S
C906   C907    1.422   .     A
C906   C248    1.433   1_556 S
C906   C251    1.427   1_556 S
C907   C914    1.419   .     A
C907   C911    1.423   .     A
C908   C912    1.398   .     A
C909   C910    1.397   .     A
C909   C243    1.421   1_556 S
C909   C251    1.422   1_556 S
C910   C911    1.392   .     A
C911   N944    1.428   .     S
C912   H915    1.080   .     S
C913   N923    1.439   .     S
C917   H991    1.088   .     S
C917   C992    1.348   .     S
H918   C1063   1.088   1_455 S
C919   C1063   1.348   1_455 S
C919   N1072   1.439   1_455 S
C920   C1140   1.341   .     S
C920   N1148   1.446   .     S
H922   C1140   1.086   .     S
N923   O925    1.300   .     A
N923   O924    1.301   .     A
N926   O928    1.302   .     A
N926   O927    1.301   .     A
N926   C992    1.439   .     S
N929   O931    1.302   .     A
O930   N1148   1.301   .     S
N932   C934    1.450   .     S
N932   H933    1.031   .     S
N932   C243    1.428   1_556 S
C934   H936    1.108   .     S
C934   H278    1.108   1_556 S
C934   H1010   1.110   .     S
H937   C1080   1.110   1_455 S
N938   O939    1.301   .     A
N938   O940    1.300   .     A
N941   O943    1.301   .     A
O942   N284    1.301   1_556 S
N944   C946    1.447   .     S
N944   H945    1.032   .     S
C946   H949    1.110   .     S
C946   H947    1.111   .     S
C946   H948    1.111   .     S
Zn950  O956    1.929   .     S
Zn950  O954    1.953   .     S
Zn950  O962    1.932   .     S
Zn950  O963    1.932   .     S
Zn951  O965    1.933   .     S
Zn951  O954    1.949   .     S
Zn951  O957    1.934   .     S
Zn951  O959    1.929   .     S
Zn952  O958    1.935   .     S
Zn952  O961    1.938   .     S
Zn952  O966    1.940   .     S
Zn952  O954    1.931   .     S
Zn953  O964    1.928   .     S
Zn953  O960    1.937   .     S
Zn953  O955    1.936   .     S
Zn953  O954    1.943   .     S
O955   C967    1.277   .     A
O956   C968    1.267   .     A
O957   C969    1.279   .     A
O958   C970    1.270   .     A
O959   C971    1.275   .     A
O960   C972    1.285   .     A
O961   C971    1.271   .     A
O962   C972    1.286   .     A
O963   C969    1.274   .     A
O964   C970    1.278   .     A
O965   C967    1.267   .     A
O966   C968    1.284   .     A
C967   C992    1.431   .     S
C968   C990    1.455   .     S
C969   C994    1.437   .     S
C970   C993    1.461   .     S
C971   C975    1.450   .     S
C972   C987    1.478   .     S
C973   C986    1.413   .     A
H974   C983    1.081   .     S
C975   C986    1.404   .     A
C975   C985    1.385   .     A
C976   H989    1.083   .     S
C976   C987    1.399   .     A
C976   C977    1.393   .     A
C977   C321    1.410   1_556 S
C977   N357    1.438   1_556 S
C978   N1011   1.440   .     S
C979   C980    1.422   .     A
C979   C321    1.433   1_556 S
C979   C324    1.427   1_556 S
C980   C987    1.419   .     A
C980   C984    1.423   .     A
C981   C985    1.398   .     A
C982   C983    1.397   .     A
C982   C316    1.421   1_556 S
C982   C324    1.422   1_556 S
C983   C984    1.392   .     A
C984   N1017   1.428   .     S
C985   H988    1.080   .     S
C986   N996    1.439   .     S
C990   H1064   1.088   .     S
C990   C1065   1.348   .     S
C993   C1213   1.341   .     S
C993   N1221   1.446   .     S
H995   C1213   1.086   .     S
N996   O998    1.300   .     A
N996   O997    1.301   .     A
N999   O1001   1.302   .     A
N999   O1000   1.301   .     A
N999   C1065   1.439   .     S
N1002  O1004   1.302   .     A
O1003  N1221   1.301   .     S
N1005  C1007   1.450   .     S
N1005  H1006   1.031   .     S
N1005  C316    1.428   1_556 S
C1007  H1009   1.108   .     S
C1007  H351    1.108   1_556 S
C1007  H1083   1.110   .     S
N1011  O1012   1.301   .     A
N1011  O1013   1.300   .     A
N1014  O1016   1.301   .     A
O1015  N357    1.301   1_556 S
N1017  C1019   1.447   .     S
N1017  H1018   1.032   .     S
C1019  H1022   1.110   .     S
C1019  H1020   1.111   .     S
C1019  H1021   1.111   .     S
Zn1023 O1029   1.929   .     S
Zn1023 O1027   1.953   .     S
Zn1023 O1035   1.932   .     S
Zn1023 O1036   1.932   .     S
Zn1024 O1038   1.933   .     S
Zn1024 O1027   1.949   .     S
Zn1024 O1030   1.934   .     S
Zn1024 O1032   1.929   .     S
Zn1025 O1031   1.935   .     S
Zn1025 O1034   1.938   .     S
Zn1025 O1039   1.940   .     S
Zn1025 O1027   1.931   .     S
Zn1026 O1037   1.928   .     S
Zn1026 O1033   1.937   .     S
Zn1026 O1028   1.936   .     S
Zn1026 O1027   1.943   .     S
O1028  C1040   1.277   .     A
O1029  C1041   1.267   .     A
O1030  C1042   1.279   .     A
O1031  C1043   1.270   .     A
O1032  C1044   1.275   .     A
O1033  C1045   1.285   .     A
O1034  C1044   1.271   .     A
O1035  C1045   1.286   .     A
O1036  C1042   1.274   .     A
O1037  C1043   1.278   .     A
O1038  C1040   1.267   .     A
O1039  C1041   1.284   .     A
C1040  C1065   1.431   .     S
C1041  C1063   1.455   .     S
C1042  C1067   1.437   .     S
C1043  C1066   1.461   .     S
C1044  C1048   1.450   .     S
C1045  C1060   1.478   .     S
C1046  C1059   1.413   .     A
H1047  C1056   1.081   .     S
C1048  C1059   1.404   .     A
C1048  C1058   1.385   .     A
C1049  H1062   1.083   .     S
C1049  C1060   1.399   .     A
C1049  C1050   1.393   .     A
C1050  C394    1.410   1_556 S
C1050  N430    1.438   1_556 S
C1051  N1084   1.440   .     S
C1052  C1053   1.422   .     A
C1052  C394    1.433   1_556 S
C1052  C397    1.427   1_556 S
C1053  C1060   1.419   .     A
C1053  C1057   1.423   .     A
C1054  C1058   1.398   .     A
C1055  C1056   1.397   .     A
C1055  C389    1.421   1_556 S
C1055  C397    1.422   1_556 S
C1056  C1057   1.392   .     A
C1057  N1090   1.428   .     S
C1058  H1061   1.080   .     S
C1059  N1069   1.439   .     S
C1063  H918    1.088   1_655 S
C1063  C919    1.348   1_655 S
C1066  C1286   1.341   .     S
C1066  N1294   1.446   .     S
H1068  C1286   1.086   .     S
N1069  O1071   1.300   .     A
N1069  O1070   1.301   .     A
N1072  O1074   1.302   .     A
N1072  O1073   1.301   .     A
N1072  C919    1.439   1_655 S
N1075  O1077   1.302   .     A
O1076  N1294   1.301   .     S
N1078  C1080   1.450   .     S
N1078  H1079   1.031   .     S
N1078  C389    1.428   1_556 S
C1080  H1082   1.108   .     S
C1080  H424    1.108   1_556 S
C1080  H937    1.110   1_655 S
N1084  O1085   1.301   .     A
N1084  O1086   1.300   .     A
N1087  O1089   1.301   .     A
O1088  N430    1.301   1_556 S
N1090  C1092   1.447   .     S
N1090  H1091   1.032   .     S
C1092  H1095   1.110   .     S
C1092  H1093   1.111   .     S
C1092  H1094   1.111   .     S
Zn1096 O1102   1.929   .     S
Zn1096 O1100   1.953   .     S
Zn1096 O1108   1.932   .     S
Zn1096 O1109   1.932   .     S
Zn1097 O1111   1.933   .     S
Zn1097 O1100   1.949   .     S
Zn1097 O1103   1.934   .     S
Zn1097 O1105   1.929   .     S
Zn1098 O1104   1.935   .     S
Zn1098 O1107   1.938   .     S
Zn1098 O1112   1.940   .     S
Zn1098 O1100   1.931   .     S
Zn1099 O1110   1.928   .     S
Zn1099 O1106   1.937   .     S
Zn1099 O1101   1.936   .     S
Zn1099 O1100   1.943   .     S
O1101  C1113   1.277   .     A
O1102  C1114   1.267   .     A
O1103  C1115   1.279   .     A
O1104  C1116   1.270   .     A
O1105  C1117   1.275   .     A
O1106  C1118   1.285   .     A
O1107  C1117   1.271   .     A
O1108  C1118   1.286   .     A
O1109  C1115   1.274   .     A
O1110  C1116   1.278   .     A
O1111  C1113   1.267   .     A
O1112  C1114   1.284   .     A
C1113  C1138   1.431   .     S
C1114  C1136   1.455   .     S
C1115  C1140   1.437   .     S
C1116  C1139   1.461   .     S
C1117  C1121   1.450   .     S
C1118  C1133   1.478   .     S
C1119  C1132   1.413   .     A
H1120  C1129   1.081   .     S
C1121  C1132   1.404   .     A
C1121  C1131   1.385   .     A
C1122  H1135   1.083   .     S
C1122  C1133   1.399   .     A
C1122  C1123   1.393   .     A
C1123  C467    1.410   1_556 S
C1123  N503    1.438   1_556 S
C1124  N1157   1.440   .     S
C1125  C1126   1.422   .     A
C1125  C467    1.433   1_556 S
C1125  C470    1.427   1_556 S
C1126  C1133   1.419   .     A
C1126  C1130   1.423   .     A
C1127  C1131   1.398   .     A
C1128  C1129   1.397   .     A
C1128  C462    1.421   1_556 S
C1128  C470    1.422   1_556 S
C1129  C1130   1.392   .     A
C1130  N1163   1.428   .     S
C1131  H1134   1.080   .     S
C1132  N1142   1.439   .     S
C1136  H1210   1.088   .     S
C1136  C1211   1.348   .     S
H1137  C1282   1.088   1_455 S
C1138  C1282   1.348   1_455 S
C1138  N1291   1.439   1_455 S
C1139  C702    1.341   1_565 S
C1139  N710    1.446   1_565 S
H1141  C702    1.086   1_565 S
N1142  O1144   1.300   .     A
N1142  O1143   1.301   .     A
N1145  O1147   1.302   .     A
N1145  O1146   1.301   .     A
N1145  C1211   1.439   .     S
N1148  O1150   1.302   .     A
O1149  N710    1.301   1_565 S
N1151  C1153   1.450   .     S
N1151  H1152   1.031   .     S
N1151  C462    1.428   1_556 S
C1153  H1155   1.108   .     S
C1153  H497    1.108   1_556 S
C1153  H1229   1.110   .     S
H1156  C1299   1.110   1_455 S
N1157  O1158   1.301   .     A
N1157  O1159   1.300   .     A
N1160  O1162   1.301   .     A
O1161  N503    1.301   1_556 S
N1163  C1165   1.447   .     S
N1163  H1164   1.032   .     S
C1165  H1168   1.110   .     S
C1165  H1166   1.111   .     S
C1165  H1167   1.111   .     S
Zn1169 O1175   1.929   .     S
Zn1169 O1173   1.953   .     S
Zn1169 O1181   1.932   .     S
Zn1169 O1182   1.932   .     S
Zn1170 O1184   1.933   .     S
Zn1170 O1173   1.949   .     S
Zn1170 O1176   1.934   .     S
Zn1170 O1178   1.929   .     S
Zn1171 O1177   1.935   .     S
Zn1171 O1180   1.938   .     S
Zn1171 O1185   1.940   .     S
Zn1171 O1173   1.931   .     S
Zn1172 O1183   1.928   .     S
Zn1172 O1179   1.937   .     S
Zn1172 O1174   1.936   .     S
Zn1172 O1173   1.943   .     S
O1174  C1186   1.277   .     A
O1175  C1187   1.267   .     A
O1176  C1188   1.279   .     A
O1177  C1189   1.270   .     A
O1178  C1190   1.275   .     A
O1179  C1191   1.285   .     A
O1180  C1190   1.271   .     A
O1181  C1191   1.286   .     A
O1182  C1188   1.274   .     A
O1183  C1189   1.278   .     A
O1184  C1186   1.267   .     A
O1185  C1187   1.284   .     A
C1186  C1211   1.431   .     S
C1187  C1209   1.455   .     S
C1188  C1213   1.437   .     S
C1189  C1212   1.461   .     S
C1190  C1194   1.450   .     S
C1191  C1206   1.478   .     S
C1192  C1205   1.413   .     A
H1193  C1202   1.081   .     S
C1194  C1205   1.404   .     A
C1194  C1204   1.385   .     A
C1195  H1208   1.083   .     S
C1195  C1206   1.399   .     A
C1195  C1196   1.393   .     A
C1196  C540    1.410   1_556 S
C1196  N576    1.438   1_556 S
C1197  N1230   1.440   .     S
C1198  C1199   1.422   .     A
C1198  C540    1.433   1_556 S
C1198  C543    1.427   1_556 S
C1199  C1206   1.419   .     A
C1199  C1203   1.423   .     A
C1200  C1204   1.398   .     A
C1201  C1202   1.397   .     A
C1201  C535    1.421   1_556 S
C1201  C543    1.422   1_556 S
C1202  C1203   1.392   .     A
C1203  N1236   1.428   .     S
C1204  H1207   1.080   .     S
C1205  N1215   1.439   .     S
C1209  H1283   1.088   .     S
C1209  C1284   1.348   .     S
C1212  C775    1.341   1_565 S
C1212  N783    1.446   1_565 S
H1214  C775    1.086   1_565 S
N1215  O1217   1.300   .     A
N1215  O1216   1.301   .     A
N1218  O1220   1.302   .     A
N1218  O1219   1.301   .     A
N1218  C1284   1.439   .     S
N1221  O1223   1.302   .     A
O1222  N783    1.301   1_565 S
N1224  C1226   1.450   .     S
N1224  H1225   1.031   .     S
N1224  C535    1.428   1_556 S
C1226  H1228   1.108   .     S
C1226  H570    1.108   1_556 S
C1226  H1302   1.110   .     S
N1230  O1231   1.301   .     A
N1230  O1232   1.300   .     A
N1233  O1235   1.301   .     A
O1234  N576    1.301   1_556 S
N1236  C1238   1.447   .     S
N1236  H1237   1.032   .     S
C1238  H1241   1.110   .     S
C1238  H1239   1.111   .     S
C1238  H1240   1.111   .     S
Zn1242 O1248   1.929   .     S
Zn1242 O1246   1.953   .     S
Zn1242 O1254   1.932   .     S
Zn1242 O1255   1.932   .     S
Zn1243 O1257   1.933   .     S
Zn1243 O1246   1.949   .     S
Zn1243 O1249   1.934   .     S
Zn1243 O1251   1.929   .     S
Zn1244 O1250   1.935   .     S
Zn1244 O1253   1.938   .     S
Zn1244 O1258   1.940   .     S
Zn1244 O1246   1.931   .     S
Zn1245 O1256   1.928   .     S
Zn1245 O1252   1.937   .     S
Zn1245 O1247   1.936   .     S
Zn1245 O1246   1.943   .     S
O1247  C1259   1.277   .     A
O1248  C1260   1.267   .     A
O1249  C1261   1.279   .     A
O1250  C1262   1.270   .     A
O1251  C1263   1.275   .     A
O1252  C1264   1.285   .     A
O1253  C1263   1.271   .     A
O1254  C1264   1.286   .     A
O1255  C1261   1.274   .     A
O1256  C1262   1.278   .     A
O1257  C1259   1.267   .     A
O1258  C1260   1.284   .     A
C1259  C1284   1.431   .     S
C1260  C1282   1.455   .     S
C1261  C1286   1.437   .     S
C1262  C1285   1.461   .     S
C1263  C1267   1.450   .     S
C1264  C1279   1.478   .     S
C1265  C1278   1.413   .     A
H1266  C1275   1.081   .     S
C1267  C1278   1.404   .     A
C1267  C1277   1.385   .     A
C1268  H1281   1.083   .     S
C1268  C1279   1.399   .     A
C1268  C1269   1.393   .     A
C1269  C613    1.410   1_556 S
C1269  N649    1.438   1_556 S
C1270  N1303   1.440   .     S
C1271  C1272   1.422   .     A
C1271  C613    1.433   1_556 S
C1271  C616    1.427   1_556 S
C1272  C1279   1.419   .     A
C1272  C1276   1.423   .     A
C1273  C1277   1.398   .     A
C1274  C1275   1.397   .     A
C1274  C608    1.421   1_556 S
C1274  C616    1.422   1_556 S
C1275  C1276   1.392   .     A
C1276  N1309   1.428   .     S
C1277  H1280   1.080   .     S
C1278  N1288   1.439   .     S
C1282  H1137   1.088   1_655 S
C1282  C1138   1.348   1_655 S
C1285  C848    1.341   1_565 S
C1285  N856    1.446   1_565 S
H1287  C848    1.086   1_565 S
N1288  O1290   1.300   .     A
N1288  O1289   1.301   .     A
N1291  O1293   1.302   .     A
N1291  O1292   1.301   .     A
N1291  C1138   1.439   1_655 S
N1294  O1296   1.302   .     A
O1295  N856    1.301   1_565 S
N1297  C1299   1.450   .     S
N1297  H1298   1.031   .     S
N1297  C608    1.428   1_556 S
C1299  H1301   1.108   .     S
C1299  H643    1.108   1_556 S
C1299  H1156   1.110   1_655 S
N1303  O1304   1.301   .     A
N1303  O1305   1.300   .     A
N1306  O1308   1.301   .     A
O1307  N649    1.301   1_556 S
N1309  C1311   1.447   .     S
N1309  H1310   1.032   .     S
C1311  H1314   1.110   .     S
C1311  H1312   1.111   .     S
C1311  H1313   1.111   .     S
