data_str_m1_o1_o17_pcu_sym.6
_audit_creation_date              2020-01-03
_audit_creation_method            'Materials Studio'
_symmetry_space_group_name_H-M    'P1'
_symmetry_Int_Tables_number       1
_symmetry_cell_setting            triclinic
loop_
_symmetry_equiv_pos_as_xyz
  x,y,z
_cell_length_a                    36.6514
_cell_length_b                    36.6514
_cell_length_c                    34.5060
_cell_angle_alpha                 90.0002
_cell_angle_beta                  90.0001
_cell_angle_gamma                 89.9989
loop_
_atom_site_label
_atom_site_type_symbol
_atom_site_fract_x
_atom_site_fract_y
_atom_site_fract_z
_atom_site_U_iso_or_equiv
_atom_site_adp_type
_atom_site_occupancy
C1     C     0.03291   0.25036   0.41857   0.00000  Uiso   1.00
C2     C     0.21710   0.00123   0.08141   0.00000  Uiso   1.00
C3     C     0.24954   0.46650   0.54075   0.00000  Uiso   1.00
C4     C     0.03366   0.25068   0.45921   0.00000  Uiso   1.00
C5     C     0.46634   0.24931   0.54079   0.00000  Uiso   1.00
C6     C     0.24854   0.46647   0.45925   0.00000  Uiso   1.00
C7     C     0.24896   0.03377   0.54080   0.00000  Uiso   1.00
C8     C     0.21637   0.00069   0.95923   0.00000  Uiso   1.00
C9     C     0.28362   0.49930   0.04077   0.00000  Uiso   1.00
C10    C     0.00118   0.28354   0.95925   0.00000  Uiso   1.00
C11    C     0.00139   0.21624   0.04080   0.00000  Uiso   1.00
C12    C     0.28361   0.49926   0.95923   0.00000  Uiso   1.00
C13    C     0.00145   0.21704   0.91855   0.00000  Uiso   1.00
C14    C     0.21639   0.00077   0.04077   0.00000  Uiso   1.00
C15    C     0.00228   0.21626   0.95919   0.00000  Uiso   1.00
C16    C     0.00018   0.28350   0.04075   0.00000  Uiso   1.00
C17    C     0.09813   0.34813   0.25000   0.00000  Uiso   1.00
C18    C     0.40187   0.15187   0.75000   0.00000  Uiso   1.00
C19    C     0.15187   0.09813   0.25000   0.00000  Uiso   1.00
C20    C     0.34813   0.40187   0.75000   0.00000  Uiso   1.00
C21    C     0.40187   0.15187   0.25000   0.00000  Uiso   1.00
C22    C     0.09813   0.34813   0.75000   0.00000  Uiso   1.00
C23    C     0.34813   0.40187   0.25000   0.00000  Uiso   1.00
C24    C     0.49924   0.28283   0.08137   0.00000  Uiso   1.00
C25    C     0.15187   0.09813   0.75000   0.00000  Uiso   1.00
C26    C     0.09813   0.15187   0.75000   0.00000  Uiso   1.00
C27    C     0.40187   0.34813   0.25000   0.00000  Uiso   1.00
C28    C     0.15187   0.40187   0.75000   0.00000  Uiso   1.00
C29    C     0.34813   0.09813   0.25000   0.00000  Uiso   1.00
C30    C     0.40187   0.34813   0.75000   0.00000  Uiso   1.00
C31    C     0.09813   0.15187   0.25000   0.00000  Uiso   1.00
C32    C     0.34813   0.09813   0.75000   0.00000  Uiso   1.00
C33    C     0.15187   0.40187   0.25000   0.00000  Uiso   1.00
C34    C     0.00000   0.25053   0.47966   0.00000  Uiso   1.00
C35    C     0.21709   0.00119   0.91859   0.00000  Uiso   1.00
C36    C    -0.00000   0.24945   0.52034   0.00000  Uiso   1.00
C37    C     0.24845   0.00013   0.47966   0.00000  Uiso   1.00
C38    C     0.24904   0.00014   0.52034   0.00000  Uiso   1.00
C39    C     0.25000   0.49999   0.97966   0.00000  Uiso   1.00
C40    C     0.25000   0.00002   0.02034   0.00000  Uiso   1.00
C41    C     0.00159   0.24988   0.97966   0.00000  Uiso   1.00
C42    C     0.00099   0.24986   0.02034   0.00000  Uiso   1.00
C43    C     0.39752   0.25013   0.45792   0.00000  Uiso   1.00
C44    C     0.10248   0.24984   0.54208   0.00000  Uiso   1.00
C45    C     0.24829   0.10259   0.45790   0.00000  Uiso   1.00
C46    C     0.28291   0.49882   0.08141   0.00000  Uiso   1.00
C47    C     0.24711   0.39797   0.54226   0.00000  Uiso   1.00
C48    C     0.10248   0.24919   0.45792   0.00000  Uiso   1.00
C49    C     0.39752   0.25079   0.54208   0.00000  Uiso   1.00
C50    C     0.24534   0.39789   0.45788   0.00000  Uiso   1.00
C51    C     0.24675   0.10257   0.54208   0.00000  Uiso   1.00
C52    C     0.14776   0.49911   0.95782   0.00000  Uiso   1.00
C53    C     0.35222   0.00077   0.04220   0.00000  Uiso   1.00
C54    C     0.00378   0.35215   0.95788   0.00000  Uiso   1.00
C55    C     0.00427   0.14746   0.04208   0.00000  Uiso   1.00
C56    C     0.35221   0.00065   0.95779   0.00000  Uiso   1.00
C57    C     0.00051   0.28287   0.91862   0.00000  Uiso   1.00
C58    C     0.14780   0.49954   0.04222   0.00000  Uiso   1.00
C59    C     0.00274   0.14743   0.95790   0.00000  Uiso   1.00
C60    C     0.00196   0.35204   0.04226   0.00000  Uiso   1.00
C61    C     0.00155   0.21704   0.08145   0.00000  Uiso   1.00
C62    C     0.00000   0.25039   0.39840   0.00000  Uiso   1.00
C63    C    -0.00000   0.24960   0.60160   0.00000  Uiso   1.00
C64    C     0.24937   0.00003   0.39840   0.00000  Uiso   1.00
C65    C     0.46709   0.24963   0.58143   0.00000  Uiso   1.00
C66    C     0.24981   0.00004   0.60160   0.00000  Uiso   1.00
C67    C     0.25000   0.49999   0.89840   0.00000  Uiso   1.00
C68    C     0.25000   0.00002   0.10160   0.00000  Uiso   1.00
C69    C     0.00064   0.24997   0.89840   0.00000  Uiso   1.00
C70    C     0.00020   0.24996   0.10160   0.00000  Uiso   1.00
C71    C     0.43272   0.25062   0.47953   0.00000  Uiso   1.00
C72    C     0.06727   0.24935   0.52047   0.00000  Uiso   1.00
C73    C     0.24790   0.06738   0.47951   0.00000  Uiso   1.00
C74    C     0.24930   0.43290   0.52046   0.00000  Uiso   1.00
C75    C     0.06728   0.25000   0.47953   0.00000  Uiso   1.00
C76    C     0.24920   0.46714   0.41862   0.00000  Uiso   1.00
C77    C     0.43272   0.24998   0.52047   0.00000  Uiso   1.00
C78    C     0.24861   0.43286   0.47955   0.00000  Uiso   1.00
C79    C     0.24811   0.06739   0.52048   0.00000  Uiso   1.00
C80    C     0.18277   0.00131   0.97954   0.00000  Uiso   1.00
C81    C     0.31723   0.49868   0.02046   0.00000  Uiso   1.00
C82    C     0.00080   0.31715   0.97955   0.00000  Uiso   1.00
C83    C     0.00256   0.18263   0.02048   0.00000  Uiso   1.00
C84    C     0.31722   0.49864   0.97953   0.00000  Uiso   1.00
C85    C     0.18279   0.00142   0.02047   0.00000  Uiso   1.00
C86    C     0.00278   0.18264   0.97951   0.00000  Uiso   1.00
C87    C     0.24877   0.03297   0.58145   0.00000  Uiso   1.00
C88    C     0.00011   0.31710   0.02047   0.00000  Uiso   1.00
C89    C     0.24996   0.00000   0.35596   0.00000  Uiso   1.00
C90    C     0.24999   0.00000   0.64404   0.00000  Uiso   1.00
C91    C     0.00000   0.25003   0.35596   0.00000  Uiso   1.00
C92    C    -0.00000   0.24997   0.64404   0.00000  Uiso   1.00
C93    C     0.00004   0.25000   0.85596   0.00000  Uiso   1.00
C94    C     0.00001   0.25000   0.14404   0.00000  Uiso   1.00
C95    C     0.25000  -0.00000   0.85596   0.00000  Uiso   1.00
C96    C     0.25000   0.00000   0.14404   0.00000  Uiso   1.00
C97    C     0.17994   0.07006   0.25000   0.00000  Uiso   1.00
C98    C     0.46709   0.25065   0.41858   0.00000  Uiso   1.00
C99    C     0.32006   0.42994   0.75000   0.00000  Uiso   1.00
C100   C     0.42994   0.17994   0.25000   0.00000  Uiso   1.00
C101   C     0.07006   0.32006   0.75000   0.00000  Uiso   1.00
C102   C     0.32006   0.42994   0.25000   0.00000  Uiso   1.00
C103   C     0.17994   0.07006   0.75000   0.00000  Uiso   1.00
C104   C     0.07006   0.32006   0.25000   0.00000  Uiso   1.00
C105   C     0.42994   0.17994   0.75000   0.00000  Uiso   1.00
C106   C     0.17994   0.42994   0.75000   0.00000  Uiso   1.00
C107   C     0.32006   0.07006   0.25000   0.00000  Uiso   1.00
C108   C     0.42994   0.32006   0.75000   0.00000  Uiso   1.00
C109   C     0.03291   0.24933   0.58142   0.00000  Uiso   1.00
C110   C     0.07006   0.17994   0.25000   0.00000  Uiso   1.00
C111   C     0.32006   0.07006   0.75000   0.00000  Uiso   1.00
C112   C     0.17994   0.42994   0.25000   0.00000  Uiso   1.00
C113   C     0.07006   0.17994   0.75000   0.00000  Uiso   1.00
C114   C     0.42994   0.32006   0.25000   0.00000  Uiso   1.00
C115   C     0.12199   0.40474   0.22483   0.00000  Uiso   1.00
C116   C     0.37802   0.09525   0.77516   0.00000  Uiso   1.00
C117   C     0.09526   0.12200   0.22482   0.00000  Uiso   1.00
C118   C     0.40475   0.37801   0.77516   0.00000  Uiso   1.00
C119   C     0.37802   0.09525   0.22484   0.00000  Uiso   1.00
C120   C     0.24888   0.03297   0.41855   0.00000  Uiso   1.00
C121   C     0.12199   0.40474   0.77517   0.00000  Uiso   1.00
C122   C     0.40475   0.37801   0.22483   0.00000  Uiso   1.00
C123   C     0.09526   0.12200   0.77518   0.00000  Uiso   1.00
C124   C     0.12200   0.09526   0.77518   0.00000  Uiso   1.00
C125   C     0.37801   0.40475   0.22483   0.00000  Uiso   1.00
C126   C     0.09526   0.37801   0.77517   0.00000  Uiso   1.00
C127   C     0.40475   0.12198   0.22485   0.00000  Uiso   1.00
C128   C     0.37801   0.40475   0.77516   0.00000  Uiso   1.00
C129   C     0.12200   0.09526   0.22482   0.00000  Uiso   1.00
C130   C     0.40475   0.12198   0.77516   0.00000  Uiso   1.00
C131   C     0.25047   0.46716   0.58137   0.00000  Uiso   1.00
C132   C     0.09526   0.37801   0.22483   0.00000  Uiso   1.00
C133   C     0.37198   0.15475   0.72484   0.00000  Uiso   1.00
C134   C     0.12801   0.34526   0.27517   0.00000  Uiso   1.00
C135   C     0.34525   0.37199   0.72484   0.00000  Uiso   1.00
C136   C     0.15474   0.12800   0.27517   0.00000  Uiso   1.00
C137   C     0.12801   0.34525   0.72483   0.00000  Uiso   1.00
C138   C     0.37198   0.15475   0.27516   0.00000  Uiso   1.00
C139   C     0.15474   0.12800   0.72482   0.00000  Uiso   1.00
C140   C     0.34525   0.37199   0.27516   0.00000  Uiso   1.00
C141   C     0.37199   0.34525   0.27516   0.00000  Uiso   1.00
C142   C     0.28290   0.49878   0.91859   0.00000  Uiso   1.00
C143   C     0.12800   0.15474   0.72482   0.00000  Uiso   1.00
C144   C     0.34525   0.12802   0.27516   0.00000  Uiso   1.00
C145   C     0.15474   0.37199   0.72483   0.00000  Uiso   1.00
C146   C     0.12800   0.15474   0.27517   0.00000  Uiso   1.00
C147   C     0.37199   0.34525   0.72484   0.00000  Uiso   1.00
C148   C     0.15474   0.37199   0.27517   0.00000  Uiso   1.00
C149   C     0.34525   0.12801   0.72484   0.00000  Uiso   1.00
C150   C     0.46635   0.25098   0.45922   0.00000  Uiso   1.00
C151   C     0.03365   0.24900   0.54078   0.00000  Uiso   1.00
C152   C     0.24807   0.03375   0.45919   0.00000  Uiso   1.00
H153   H     0.11924   0.42759   0.20514   0.00000  Uiso   1.00
H154   H     0.38077   0.42760   0.20515   0.00000  Uiso   1.00
H155   H     0.07240   0.38076   0.79486   0.00000  Uiso   1.00
H156   H     0.42761   0.11922   0.20517   0.00000  Uiso   1.00
H157   H     0.38077   0.42760   0.79485   0.00000  Uiso   1.00
H158   H     0.11924   0.07241   0.20513   0.00000  Uiso   1.00
H159   H     0.42761   0.11922   0.79484   0.00000  Uiso   1.00
H160   H     0.07241   0.38076   0.20514   0.00000  Uiso   1.00
H161   H     0.36922   0.17761   0.70516   0.00000  Uiso   1.00
H162   H     0.13076   0.32241   0.29486   0.00000  Uiso   1.00
H163   H     0.32240   0.36923   0.70515   0.00000  Uiso   1.00
H164   H     0.38078   0.07239   0.79484   0.00000  Uiso   1.00
H165   H     0.17759   0.13076   0.29487   0.00000  Uiso   1.00
H166   H     0.13076   0.32240   0.70514   0.00000  Uiso   1.00
H167   H     0.36922   0.17761   0.29483   0.00000  Uiso   1.00
H168   H     0.17759   0.13075   0.70513   0.00000  Uiso   1.00
H169   H     0.32240   0.36923   0.29485   0.00000  Uiso   1.00
H170   H     0.36923   0.32240   0.29485   0.00000  Uiso   1.00
H171   H     0.13075   0.17759   0.70513   0.00000  Uiso   1.00
H172   H     0.32239   0.13078   0.29483   0.00000  Uiso   1.00
H173   H     0.17760   0.36923   0.70514   0.00000  Uiso   1.00
H174   H     0.13076   0.17759   0.29487   0.00000  Uiso   1.00
H175   H     0.07241   0.11924   0.20513   0.00000  Uiso   1.00
H176   H     0.36923   0.32240   0.70515   0.00000  Uiso   1.00
H177   H     0.17759   0.36924   0.29486   0.00000  Uiso   1.00
H178   H     0.32239   0.13078   0.70516   0.00000  Uiso   1.00
H179   H     0.05790   0.24954   0.40202   0.00000  Uiso   1.00
H180   H     0.44209   0.25045   0.59798   0.00000  Uiso   1.00
H181   H     0.25017   0.44203   0.40220   0.00000  Uiso   1.00
H182   H     0.24760   0.05794   0.59803   0.00000  Uiso   1.00
H183   H     0.44209   0.25007   0.40202   0.00000  Uiso   1.00
H184   H     0.05791   0.24992   0.59798   0.00000  Uiso   1.00
H185   H     0.24958   0.05797   0.40199   0.00000  Uiso   1.00
H186   H     0.42760   0.38077   0.79485   0.00000  Uiso   1.00
H187   H     0.25172   0.44204   0.59776   0.00000  Uiso   1.00
H188   H     0.30798   0.49730   0.90216   0.00000  Uiso   1.00
H189   H     0.19201   0.00268   0.09784   0.00000  Uiso   1.00
H190   H     0.00099   0.19204   0.90199   0.00000  Uiso   1.00
H191   H     0.49775   0.30794   0.09776   0.00000  Uiso   1.00
H192   H     0.19202   0.00272   0.90215   0.00000  Uiso   1.00
H193   H     0.30798   0.49732   0.09784   0.00000  Uiso   1.00
H194   H     0.49929   0.30796   0.90220   0.00000  Uiso   1.00
H195   H     0.00295   0.19209   0.09803   0.00000  Uiso   1.00
H196   H     0.39285   0.26909   0.43429   0.00000  Uiso   1.00
H197   H     0.38078   0.07239   0.20517   0.00000  Uiso   1.00
H198   H     0.10714   0.23087   0.56571   0.00000  Uiso   1.00
H199   H     0.22961   0.10702   0.43397   0.00000  Uiso   1.00
H200   H     0.22475   0.39340   0.56230   0.00000  Uiso   1.00
H201   H     0.10732   0.26810   0.43429   0.00000  Uiso   1.00
H202   H     0.39268   0.23188   0.56571   0.00000  Uiso   1.00
H203   H     0.22372   0.39448   0.43669   0.00000  Uiso   1.00
H204   H     0.26543   0.10762   0.56588   0.00000  Uiso   1.00
H205   H     0.14359   0.47742   0.93687   0.00000  Uiso   1.00
H206   H     0.35657   0.02264   0.06289   0.00000  Uiso   1.00
H207   H     0.02532   0.35571   0.93664   0.00000  Uiso   1.00
H208   H     0.11924   0.42760   0.79486   0.00000  Uiso   1.00
H209   H     0.48565   0.14222   0.06587   0.00000  Uiso   1.00
H210   H     0.35670   0.02266   0.93730   0.00000  Uiso   1.00
H211   H     0.14311   0.47736   0.06245   0.00000  Uiso   1.00
H212   H     0.02146   0.14318   0.93397   0.00000  Uiso   1.00
H213   H     0.02431   0.35685   0.06225   0.00000  Uiso   1.00
H214   H     0.42760   0.38077   0.20515   0.00000  Uiso   1.00
H215   H     0.07241   0.11925   0.79487   0.00000  Uiso   1.00
H216   H     0.11925   0.07241   0.79487   0.00000  Uiso   1.00
O217   O     0.25000  -0.00000   0.25000   0.00000  Uiso   1.00
O218   O     0.25000   0.46963   0.66245   0.00000  Uiso   1.00
O219   O     0.46963   0.25000   0.33755   0.00000  Uiso   1.00
O220   O     0.03036   0.25000   0.66245   0.00000  Uiso   1.00
O221   O    -0.00000   0.21963   0.83755   0.00000  Uiso   1.00
O222   O    -0.00000   0.28036   0.16245   0.00000  Uiso   1.00
O223   O     0.28036  -0.00000   0.83755   0.00000  Uiso   1.00
O224   O     0.21963  -0.00000   0.16245   0.00000  Uiso   1.00
O225   O    -0.00000   0.28036   0.83755   0.00000  Uiso   1.00
O226   O    -0.00000   0.21963   0.16245   0.00000  Uiso   1.00
O227   O     0.21963  -0.00000   0.83755   0.00000  Uiso   1.00
O228   O     0.25000  -0.00000   0.75000   0.00000  Uiso   1.00
O229   O     0.28036  -0.00000   0.16245   0.00000  Uiso   1.00
O230   O     0.20724   0.07307   0.27302   0.00000  Uiso   1.00
O231   O     0.29275   0.42692   0.72698   0.00000  Uiso   1.00
O232   O     0.42692   0.20724   0.27302   0.00000  Uiso   1.00
O233   O     0.07307   0.29275   0.72698   0.00000  Uiso   1.00
O234   O     0.29275   0.42692   0.27302   0.00000  Uiso   1.00
O235   O     0.20724   0.07307   0.72698   0.00000  Uiso   1.00
O236   O     0.07307   0.29275   0.27302   0.00000  Uiso   1.00
O237   O     0.42692   0.20724   0.72698   0.00000  Uiso   1.00
O238   O     0.20724   0.42692   0.72698   0.00000  Uiso   1.00
O239   O     0.00000   0.25000   0.25000   0.00000  Uiso   1.00
O240   O     0.29275   0.07307   0.27302   0.00000  Uiso   1.00
O241   O     0.42692   0.29275   0.72698   0.00000  Uiso   1.00
O242   O     0.07307   0.20724   0.27302   0.00000  Uiso   1.00
O243   O     0.29275   0.07307   0.72698   0.00000  Uiso   1.00
O244   O     0.20724   0.42692   0.27302   0.00000  Uiso   1.00
O245   O     0.07307   0.20724   0.72698   0.00000  Uiso   1.00
O246   O     0.42692   0.29275   0.27302   0.00000  Uiso   1.00
O247   O     0.45724   0.32307   0.77302   0.00000  Uiso   1.00
O248   O     0.04275   0.17692   0.22698   0.00000  Uiso   1.00
O249   O     0.17692   0.45724   0.77302   0.00000  Uiso   1.00
O250   O    -0.00000   0.25000   0.75000   0.00000  Uiso   1.00
O251   O     0.32307   0.04275   0.22698   0.00000  Uiso   1.00
O252   O     0.04275   0.17692   0.77302   0.00000  Uiso   1.00
O253   O     0.45724   0.32307   0.22698   0.00000  Uiso   1.00
O254   O     0.32307   0.04275   0.77302   0.00000  Uiso   1.00
O255   O     0.17692   0.45724   0.22698   0.00000  Uiso   1.00
O256   O     0.45724   0.17692   0.22698   0.00000  Uiso   1.00
O257   O     0.04275   0.32307   0.77302   0.00000  Uiso   1.00
O258   O     0.17692   0.04275   0.22698   0.00000  Uiso   1.00
O259   O     0.32307   0.45724   0.77302   0.00000  Uiso   1.00
O260   O     0.04275   0.32307   0.22698   0.00000  Uiso   1.00
O261   O     0.25000   0.46963   0.33755   0.00000  Uiso   1.00
O262   O     0.45724   0.17692   0.77302   0.00000  Uiso   1.00
O263   O     0.32307   0.45724   0.22698   0.00000  Uiso   1.00
O264   O     0.17692   0.04275   0.77302   0.00000  Uiso   1.00
O265   O     0.37374   0.22806   0.46598   0.00000  Uiso   1.00
O266   O     0.12627   0.27190   0.53402   0.00000  Uiso   1.00
O267   O     0.26997   0.12663   0.46629   0.00000  Uiso   1.00
O268   O     0.27108   0.37502   0.53941   0.00000  Uiso   1.00
O269   O     0.12606   0.22690   0.46598   0.00000  Uiso   1.00
O270   O     0.37394   0.27308   0.53402   0.00000  Uiso   1.00
O271   O     0.26749   0.37339   0.46228   0.00000  Uiso   1.00
O272   O     0.25000   0.03036   0.66245   0.00000  Uiso   1.00
O273   O     0.22429   0.12591   0.53380   0.00000  Uiso   1.00
O274   O     0.12414   0.02226   0.96188   0.00000  Uiso   1.00
O275   O     0.37560   0.47733   0.03846   0.00000  Uiso   1.00
O276   O     0.48148   0.37650   0.96236   0.00000  Uiso   1.00
O277   O     0.02697   0.12434   0.03380   0.00000  Uiso   1.00
O278   O     0.37538   0.47697   0.96126   0.00000  Uiso   1.00
O279   O     0.12490   0.02352   0.03908   0.00000  Uiso   1.00
O280   O     0.48130   0.12318   0.96629   0.00000  Uiso   1.00
O281   O     0.47773   0.37473   0.03948   0.00000  Uiso   1.00
O282   O     0.03036   0.25000   0.33755   0.00000  Uiso   1.00
O283   O     0.46963   0.25000   0.66245   0.00000  Uiso   1.00
O284   O     0.25000   0.03036   0.33755   0.00000  Uiso   1.00
Zn285  Zn    0.20659  -0.00000   0.21735   0.00000  Uiso   1.00
Zn286  Zn    0.04340   0.25000   0.28265   0.00000  Uiso   1.00
Zn287  Zn    0.25000   0.45659   0.71735   0.00000  Uiso   1.00
Zn288  Zn    0.25000   0.04340   0.28265   0.00000  Uiso   1.00
Zn289  Zn    0.04340   0.25000   0.71735   0.00000  Uiso   1.00
Zn290  Zn    0.45659   0.25000   0.28265   0.00000  Uiso   1.00
Zn291  Zn    0.25000   0.04340   0.71735   0.00000  Uiso   1.00
Zn292  Zn    0.25000   0.45659   0.28265   0.00000  Uiso   1.00
Zn293  Zn    0.29340  -0.00000   0.78265   0.00000  Uiso   1.00
Zn294  Zn   -0.00000   0.20659   0.21735   0.00000  Uiso   1.00
Zn295  Zn   -0.00000   0.29340   0.78265   0.00000  Uiso   1.00
Zn296  Zn    0.29340  -0.00000   0.21735   0.00000  Uiso   1.00
Zn297  Zn    0.20659  -0.00000   0.78265   0.00000  Uiso   1.00
Zn298  Zn   -0.00000   0.29340   0.21735   0.00000  Uiso   1.00
Zn299  Zn   -0.00000   0.20659   0.78265   0.00000  Uiso   1.00
Zn300  Zn    0.45659   0.25000   0.71735   0.00000  Uiso   1.00
C301   C     0.53291   0.25036   0.41857   0.00000  Uiso   1.00
C302   C     0.71710   0.00123   0.08141   0.00000  Uiso   1.00
C303   C     0.74954   0.46650   0.54075   0.00000  Uiso   1.00
C304   C     0.53366   0.25068   0.45921   0.00000  Uiso   1.00
C305   C     0.96634   0.24931   0.54079   0.00000  Uiso   1.00
C306   C     0.74854   0.46647   0.45925   0.00000  Uiso   1.00
C307   C     0.74896   0.03377   0.54080   0.00000  Uiso   1.00
C308   C     0.71637   0.00069   0.95923   0.00000  Uiso   1.00
C309   C     0.78362   0.49930   0.04077   0.00000  Uiso   1.00
C310   C     0.50118   0.28354   0.95925   0.00000  Uiso   1.00
C311   C     0.50139   0.21624   0.04080   0.00000  Uiso   1.00
C312   C     0.78361   0.49926   0.95923   0.00000  Uiso   1.00
C313   C     0.50145   0.21704   0.91855   0.00000  Uiso   1.00
C314   C     0.71639   0.00077   0.04077   0.00000  Uiso   1.00
C315   C     0.50228   0.21626   0.95919   0.00000  Uiso   1.00
C316   C     0.50018   0.28350   0.04075   0.00000  Uiso   1.00
C317   C     0.59813   0.34813   0.25000   0.00000  Uiso   1.00
C318   C     0.90187   0.15187   0.75000   0.00000  Uiso   1.00
C319   C     0.65187   0.09813   0.25000   0.00000  Uiso   1.00
C320   C     0.84813   0.40187   0.75000   0.00000  Uiso   1.00
C321   C     0.90187   0.15187   0.25000   0.00000  Uiso   1.00
C322   C     0.59813   0.34813   0.75000   0.00000  Uiso   1.00
C323   C     0.84813   0.40187   0.25000   0.00000  Uiso   1.00
C324   C     0.99924   0.28283   0.08137   0.00000  Uiso   1.00
C325   C     0.65187   0.09813   0.75000   0.00000  Uiso   1.00
C326   C     0.59813   0.15187   0.75000   0.00000  Uiso   1.00
C327   C     0.90187   0.34813   0.25000   0.00000  Uiso   1.00
C328   C     0.65187   0.40187   0.75000   0.00000  Uiso   1.00
C329   C     0.84813   0.09813   0.25000   0.00000  Uiso   1.00
C330   C     0.90187   0.34813   0.75000   0.00000  Uiso   1.00
C331   C     0.59813   0.15187   0.25000   0.00000  Uiso   1.00
C332   C     0.84813   0.09813   0.75000   0.00000  Uiso   1.00
C333   C     0.65187   0.40187   0.25000   0.00000  Uiso   1.00
C334   C     0.50000   0.25053   0.47966   0.00000  Uiso   1.00
C335   C     0.71709   0.00119   0.91859   0.00000  Uiso   1.00
C336   C     0.50000   0.24945   0.52034   0.00000  Uiso   1.00
C337   C     0.74845   0.00013   0.47966   0.00000  Uiso   1.00
C338   C     0.74904   0.00014   0.52034   0.00000  Uiso   1.00
C339   C     0.75000   0.49999   0.97966   0.00000  Uiso   1.00
C340   C     0.75000   0.00002   0.02034   0.00000  Uiso   1.00
C341   C     0.50159   0.24988   0.97966   0.00000  Uiso   1.00
C342   C     0.50099   0.24986   0.02034   0.00000  Uiso   1.00
C343   C     0.89752   0.25013   0.45792   0.00000  Uiso   1.00
C344   C     0.60248   0.24984   0.54208   0.00000  Uiso   1.00
C345   C     0.74829   0.10259   0.45790   0.00000  Uiso   1.00
C346   C     0.78291   0.49882   0.08141   0.00000  Uiso   1.00
C347   C     0.74711   0.39797   0.54226   0.00000  Uiso   1.00
C348   C     0.60248   0.24919   0.45792   0.00000  Uiso   1.00
C349   C     0.89752   0.25079   0.54208   0.00000  Uiso   1.00
C350   C     0.74534   0.39789   0.45788   0.00000  Uiso   1.00
C351   C     0.74675   0.10257   0.54208   0.00000  Uiso   1.00
C352   C     0.64776   0.49911   0.95782   0.00000  Uiso   1.00
C353   C     0.85222   0.00077   0.04220   0.00000  Uiso   1.00
C354   C     0.50378   0.35215   0.95788   0.00000  Uiso   1.00
C355   C     0.50427   0.14746   0.04208   0.00000  Uiso   1.00
C356   C     0.85221   0.00065   0.95779   0.00000  Uiso   1.00
C357   C     0.50051   0.28287   0.91862   0.00000  Uiso   1.00
C358   C     0.64780   0.49954   0.04222   0.00000  Uiso   1.00
C359   C     0.50274   0.14743   0.95790   0.00000  Uiso   1.00
C360   C     0.50196   0.35204   0.04226   0.00000  Uiso   1.00
C361   C     0.50155   0.21704   0.08145   0.00000  Uiso   1.00
C362   C     0.50000   0.25039   0.39840   0.00000  Uiso   1.00
C363   C     0.50000   0.24960   0.60160   0.00000  Uiso   1.00
C364   C     0.74937   0.00003   0.39840   0.00000  Uiso   1.00
C365   C     0.96709   0.24963   0.58143   0.00000  Uiso   1.00
C366   C     0.74981   0.00004   0.60160   0.00000  Uiso   1.00
C367   C     0.75000   0.49999   0.89840   0.00000  Uiso   1.00
C368   C     0.75000   0.00002   0.10160   0.00000  Uiso   1.00
C369   C     0.50064   0.24997   0.89840   0.00000  Uiso   1.00
C370   C     0.50020   0.24996   0.10160   0.00000  Uiso   1.00
C371   C     0.93272   0.25062   0.47953   0.00000  Uiso   1.00
C372   C     0.56727   0.24935   0.52047   0.00000  Uiso   1.00
C373   C     0.74790   0.06738   0.47951   0.00000  Uiso   1.00
C374   C     0.74930   0.43290   0.52046   0.00000  Uiso   1.00
C375   C     0.56728   0.25000   0.47953   0.00000  Uiso   1.00
C376   C     0.74920   0.46714   0.41862   0.00000  Uiso   1.00
C377   C     0.93272   0.24998   0.52047   0.00000  Uiso   1.00
C378   C     0.74861   0.43286   0.47955   0.00000  Uiso   1.00
C379   C     0.74811   0.06739   0.52048   0.00000  Uiso   1.00
C380   C     0.68277   0.00131   0.97954   0.00000  Uiso   1.00
C381   C     0.81723   0.49868   0.02046   0.00000  Uiso   1.00
C382   C     0.50080   0.31715   0.97955   0.00000  Uiso   1.00
C383   C     0.50256   0.18263   0.02048   0.00000  Uiso   1.00
C384   C     0.81722   0.49864   0.97953   0.00000  Uiso   1.00
C385   C     0.68279   0.00142   0.02047   0.00000  Uiso   1.00
C386   C     0.50278   0.18264   0.97951   0.00000  Uiso   1.00
C387   C     0.74877   0.03297   0.58145   0.00000  Uiso   1.00
C388   C     0.50011   0.31710   0.02047   0.00000  Uiso   1.00
C389   C     0.74996   0.00000   0.35596   0.00000  Uiso   1.00
C390   C     0.74999   0.00000   0.64404   0.00000  Uiso   1.00
C391   C     0.50000   0.25003   0.35596   0.00000  Uiso   1.00
C392   C     0.50000   0.24997   0.64404   0.00000  Uiso   1.00
C393   C     0.50004   0.25000   0.85596   0.00000  Uiso   1.00
C394   C     0.50001   0.25000   0.14404   0.00000  Uiso   1.00
C395   C     0.75000  -0.00000   0.85596   0.00000  Uiso   1.00
C396   C     0.75000   0.00000   0.14404   0.00000  Uiso   1.00
C397   C     0.67994   0.07006   0.25000   0.00000  Uiso   1.00
C398   C     0.96709   0.25065   0.41858   0.00000  Uiso   1.00
C399   C     0.82006   0.42994   0.75000   0.00000  Uiso   1.00
C400   C     0.92994   0.17994   0.25000   0.00000  Uiso   1.00
C401   C     0.57006   0.32006   0.75000   0.00000  Uiso   1.00
C402   C     0.82006   0.42994   0.25000   0.00000  Uiso   1.00
C403   C     0.67994   0.07006   0.75000   0.00000  Uiso   1.00
C404   C     0.57006   0.32006   0.25000   0.00000  Uiso   1.00
C405   C     0.92994   0.17994   0.75000   0.00000  Uiso   1.00
C406   C     0.67994   0.42994   0.75000   0.00000  Uiso   1.00
C407   C     0.82006   0.07006   0.25000   0.00000  Uiso   1.00
C408   C     0.92994   0.32006   0.75000   0.00000  Uiso   1.00
C409   C     0.53291   0.24933   0.58142   0.00000  Uiso   1.00
C410   C     0.57006   0.17994   0.25000   0.00000  Uiso   1.00
C411   C     0.82006   0.07006   0.75000   0.00000  Uiso   1.00
C412   C     0.67994   0.42994   0.25000   0.00000  Uiso   1.00
C413   C     0.57006   0.17994   0.75000   0.00000  Uiso   1.00
C414   C     0.92994   0.32006   0.25000   0.00000  Uiso   1.00
C415   C     0.62199   0.40474   0.22483   0.00000  Uiso   1.00
C416   C     0.87802   0.09525   0.77516   0.00000  Uiso   1.00
C417   C     0.59526   0.12200   0.22482   0.00000  Uiso   1.00
C418   C     0.90475   0.37801   0.77516   0.00000  Uiso   1.00
C419   C     0.87802   0.09525   0.22484   0.00000  Uiso   1.00
C420   C     0.74888   0.03297   0.41855   0.00000  Uiso   1.00
C421   C     0.62199   0.40474   0.77517   0.00000  Uiso   1.00
C422   C     0.90475   0.37801   0.22483   0.00000  Uiso   1.00
C423   C     0.59526   0.12200   0.77518   0.00000  Uiso   1.00
C424   C     0.62200   0.09526   0.77518   0.00000  Uiso   1.00
C425   C     0.87801   0.40475   0.22483   0.00000  Uiso   1.00
C426   C     0.59526   0.37801   0.77517   0.00000  Uiso   1.00
C427   C     0.90475   0.12198   0.22485   0.00000  Uiso   1.00
C428   C     0.87801   0.40475   0.77516   0.00000  Uiso   1.00
C429   C     0.62200   0.09526   0.22482   0.00000  Uiso   1.00
C430   C     0.90475   0.12198   0.77516   0.00000  Uiso   1.00
C431   C     0.75047   0.46716   0.58137   0.00000  Uiso   1.00
C432   C     0.59526   0.37801   0.22483   0.00000  Uiso   1.00
C433   C     0.87198   0.15475   0.72484   0.00000  Uiso   1.00
C434   C     0.62801   0.34526   0.27517   0.00000  Uiso   1.00
C435   C     0.84525   0.37199   0.72484   0.00000  Uiso   1.00
C436   C     0.65474   0.12800   0.27517   0.00000  Uiso   1.00
C437   C     0.62801   0.34525   0.72483   0.00000  Uiso   1.00
C438   C     0.87198   0.15475   0.27516   0.00000  Uiso   1.00
C439   C     0.65474   0.12800   0.72482   0.00000  Uiso   1.00
C440   C     0.84525   0.37199   0.27516   0.00000  Uiso   1.00
C441   C     0.87199   0.34525   0.27516   0.00000  Uiso   1.00
C442   C     0.78290   0.49878   0.91859   0.00000  Uiso   1.00
C443   C     0.62800   0.15474   0.72482   0.00000  Uiso   1.00
C444   C     0.84525   0.12802   0.27516   0.00000  Uiso   1.00
C445   C     0.65474   0.37199   0.72483   0.00000  Uiso   1.00
C446   C     0.62800   0.15474   0.27517   0.00000  Uiso   1.00
C447   C     0.87199   0.34525   0.72484   0.00000  Uiso   1.00
C448   C     0.65474   0.37199   0.27517   0.00000  Uiso   1.00
C449   C     0.84525   0.12801   0.72484   0.00000  Uiso   1.00
C450   C     0.96635   0.25098   0.45922   0.00000  Uiso   1.00
C451   C     0.53365   0.24900   0.54078   0.00000  Uiso   1.00
C452   C     0.74807   0.03375   0.45919   0.00000  Uiso   1.00
H453   H     0.61924   0.42759   0.20514   0.00000  Uiso   1.00
H454   H     0.88077   0.42760   0.20515   0.00000  Uiso   1.00
H455   H     0.57240   0.38076   0.79486   0.00000  Uiso   1.00
H456   H     0.92761   0.11922   0.20517   0.00000  Uiso   1.00
H457   H     0.88077   0.42760   0.79485   0.00000  Uiso   1.00
H458   H     0.61924   0.07241   0.20513   0.00000  Uiso   1.00
H459   H     0.92761   0.11922   0.79484   0.00000  Uiso   1.00
H460   H     0.57241   0.38076   0.20514   0.00000  Uiso   1.00
H461   H     0.86922   0.17761   0.70516   0.00000  Uiso   1.00
H462   H     0.63076   0.32241   0.29486   0.00000  Uiso   1.00
H463   H     0.82240   0.36923   0.70515   0.00000  Uiso   1.00
H464   H     0.88078   0.07239   0.79484   0.00000  Uiso   1.00
H465   H     0.67759   0.13076   0.29487   0.00000  Uiso   1.00
H466   H     0.63076   0.32240   0.70514   0.00000  Uiso   1.00
H467   H     0.86922   0.17761   0.29483   0.00000  Uiso   1.00
H468   H     0.67759   0.13075   0.70513   0.00000  Uiso   1.00
H469   H     0.82240   0.36923   0.29485   0.00000  Uiso   1.00
H470   H     0.86923   0.32240   0.29485   0.00000  Uiso   1.00
H471   H     0.63075   0.17759   0.70513   0.00000  Uiso   1.00
H472   H     0.82239   0.13078   0.29483   0.00000  Uiso   1.00
H473   H     0.67760   0.36923   0.70514   0.00000  Uiso   1.00
H474   H     0.63076   0.17759   0.29487   0.00000  Uiso   1.00
H475   H     0.57241   0.11924   0.20513   0.00000  Uiso   1.00
H476   H     0.86923   0.32240   0.70515   0.00000  Uiso   1.00
H477   H     0.67759   0.36924   0.29486   0.00000  Uiso   1.00
H478   H     0.82239   0.13078   0.70516   0.00000  Uiso   1.00
H479   H     0.55790   0.24954   0.40202   0.00000  Uiso   1.00
H480   H     0.94209   0.25045   0.59798   0.00000  Uiso   1.00
H481   H     0.75017   0.44203   0.40220   0.00000  Uiso   1.00
H482   H     0.74760   0.05794   0.59803   0.00000  Uiso   1.00
H483   H     0.94209   0.25007   0.40202   0.00000  Uiso   1.00
H484   H     0.55791   0.24992   0.59798   0.00000  Uiso   1.00
H485   H     0.74958   0.05797   0.40199   0.00000  Uiso   1.00
H486   H     0.92760   0.38077   0.79485   0.00000  Uiso   1.00
H487   H     0.75172   0.44204   0.59776   0.00000  Uiso   1.00
H488   H     0.80798   0.49730   0.90216   0.00000  Uiso   1.00
H489   H     0.69201   0.00268   0.09784   0.00000  Uiso   1.00
H490   H     0.50099   0.19204   0.90199   0.00000  Uiso   1.00
H491   H     0.99775   0.30794   0.09776   0.00000  Uiso   1.00
H492   H     0.69202   0.00272   0.90215   0.00000  Uiso   1.00
H493   H     0.80798   0.49732   0.09784   0.00000  Uiso   1.00
H494   H     0.99929   0.30796   0.90220   0.00000  Uiso   1.00
H495   H     0.50295   0.19209   0.09803   0.00000  Uiso   1.00
H496   H     0.89285   0.26909   0.43429   0.00000  Uiso   1.00
H497   H     0.88078   0.07239   0.20517   0.00000  Uiso   1.00
H498   H     0.60714   0.23087   0.56571   0.00000  Uiso   1.00
H499   H     0.72961   0.10702   0.43397   0.00000  Uiso   1.00
H500   H     0.72475   0.39340   0.56230   0.00000  Uiso   1.00
H501   H     0.60732   0.26810   0.43429   0.00000  Uiso   1.00
H502   H     0.89268   0.23188   0.56571   0.00000  Uiso   1.00
H503   H     0.72372   0.39448   0.43669   0.00000  Uiso   1.00
H504   H     0.76543   0.10762   0.56588   0.00000  Uiso   1.00
H505   H     0.64359   0.47742   0.93687   0.00000  Uiso   1.00
H506   H     0.85657   0.02264   0.06289   0.00000  Uiso   1.00
H507   H     0.52532   0.35571   0.93664   0.00000  Uiso   1.00
H508   H     0.61924   0.42760   0.79486   0.00000  Uiso   1.00
H509   H     0.98565   0.14222   0.06587   0.00000  Uiso   1.00
H510   H     0.85670   0.02266   0.93730   0.00000  Uiso   1.00
H511   H     0.64311   0.47736   0.06245   0.00000  Uiso   1.00
H512   H     0.52146   0.14318   0.93397   0.00000  Uiso   1.00
H513   H     0.52431   0.35685   0.06225   0.00000  Uiso   1.00
H514   H     0.92760   0.38077   0.20515   0.00000  Uiso   1.00
H515   H     0.57241   0.11925   0.79487   0.00000  Uiso   1.00
H516   H     0.61925   0.07241   0.79487   0.00000  Uiso   1.00
O517   O     0.75000  -0.00000   0.25000   0.00000  Uiso   1.00
O518   O     0.75000   0.46963   0.66245   0.00000  Uiso   1.00
O519   O     0.96963   0.25000   0.33755   0.00000  Uiso   1.00
O520   O     0.53036   0.25000   0.66245   0.00000  Uiso   1.00
O521   O     0.50000   0.21963   0.83755   0.00000  Uiso   1.00
O522   O     0.50000   0.28036   0.16245   0.00000  Uiso   1.00
O523   O     0.78036  -0.00000   0.83755   0.00000  Uiso   1.00
O524   O     0.71963  -0.00000   0.16245   0.00000  Uiso   1.00
O525   O     0.50000   0.28036   0.83755   0.00000  Uiso   1.00
O526   O     0.50000   0.21963   0.16245   0.00000  Uiso   1.00
O527   O     0.71963  -0.00000   0.83755   0.00000  Uiso   1.00
O528   O     0.75000  -0.00000   0.75000   0.00000  Uiso   1.00
O529   O     0.78036  -0.00000   0.16245   0.00000  Uiso   1.00
O530   O     0.70724   0.07307   0.27302   0.00000  Uiso   1.00
O531   O     0.79275   0.42692   0.72698   0.00000  Uiso   1.00
O532   O     0.92692   0.20724   0.27302   0.00000  Uiso   1.00
O533   O     0.57307   0.29275   0.72698   0.00000  Uiso   1.00
O534   O     0.79275   0.42692   0.27302   0.00000  Uiso   1.00
O535   O     0.70724   0.07307   0.72698   0.00000  Uiso   1.00
O536   O     0.57307   0.29275   0.27302   0.00000  Uiso   1.00
O537   O     0.92692   0.20724   0.72698   0.00000  Uiso   1.00
O538   O     0.70724   0.42692   0.72698   0.00000  Uiso   1.00
O539   O     0.50000   0.25000   0.25000   0.00000  Uiso   1.00
O540   O     0.79275   0.07307   0.27302   0.00000  Uiso   1.00
O541   O     0.92692   0.29275   0.72698   0.00000  Uiso   1.00
O542   O     0.57307   0.20724   0.27302   0.00000  Uiso   1.00
O543   O     0.79275   0.07307   0.72698   0.00000  Uiso   1.00
O544   O     0.70724   0.42692   0.27302   0.00000  Uiso   1.00
O545   O     0.57307   0.20724   0.72698   0.00000  Uiso   1.00
O546   O     0.92692   0.29275   0.27302   0.00000  Uiso   1.00
O547   O     0.95724   0.32307   0.77302   0.00000  Uiso   1.00
O548   O     0.54275   0.17692   0.22698   0.00000  Uiso   1.00
O549   O     0.67692   0.45724   0.77302   0.00000  Uiso   1.00
O550   O     0.50000   0.25000   0.75000   0.00000  Uiso   1.00
O551   O     0.82307   0.04275   0.22698   0.00000  Uiso   1.00
O552   O     0.54275   0.17692   0.77302   0.00000  Uiso   1.00
O553   O     0.95724   0.32307   0.22698   0.00000  Uiso   1.00
O554   O     0.82307   0.04275   0.77302   0.00000  Uiso   1.00
O555   O     0.67692   0.45724   0.22698   0.00000  Uiso   1.00
O556   O     0.95724   0.17692   0.22698   0.00000  Uiso   1.00
O557   O     0.54275   0.32307   0.77302   0.00000  Uiso   1.00
O558   O     0.67692   0.04275   0.22698   0.00000  Uiso   1.00
O559   O     0.82307   0.45724   0.77302   0.00000  Uiso   1.00
O560   O     0.54275   0.32307   0.22698   0.00000  Uiso   1.00
O561   O     0.75000   0.46963   0.33755   0.00000  Uiso   1.00
O562   O     0.95724   0.17692   0.77302   0.00000  Uiso   1.00
O563   O     0.82307   0.45724   0.22698   0.00000  Uiso   1.00
O564   O     0.67692   0.04275   0.77302   0.00000  Uiso   1.00
O565   O     0.87374   0.22806   0.46598   0.00000  Uiso   1.00
O566   O     0.62627   0.27190   0.53402   0.00000  Uiso   1.00
O567   O     0.76997   0.12663   0.46629   0.00000  Uiso   1.00
O568   O     0.77108   0.37502   0.53941   0.00000  Uiso   1.00
O569   O     0.62606   0.22690   0.46598   0.00000  Uiso   1.00
O570   O     0.87394   0.27308   0.53402   0.00000  Uiso   1.00
O571   O     0.76749   0.37339   0.46228   0.00000  Uiso   1.00
O572   O     0.75000   0.03036   0.66245   0.00000  Uiso   1.00
O573   O     0.72429   0.12591   0.53380   0.00000  Uiso   1.00
O574   O     0.62414   0.02226   0.96188   0.00000  Uiso   1.00
O575   O     0.87560   0.47733   0.03846   0.00000  Uiso   1.00
O576   O     0.98148   0.37650   0.96236   0.00000  Uiso   1.00
O577   O     0.52697   0.12434   0.03380   0.00000  Uiso   1.00
O578   O     0.87538   0.47697   0.96126   0.00000  Uiso   1.00
O579   O     0.62490   0.02352   0.03908   0.00000  Uiso   1.00
O580   O     0.98130   0.12318   0.96629   0.00000  Uiso   1.00
O581   O     0.97773   0.37473   0.03948   0.00000  Uiso   1.00
O582   O     0.53036   0.25000   0.33755   0.00000  Uiso   1.00
O583   O     0.96963   0.25000   0.66245   0.00000  Uiso   1.00
O584   O     0.75000   0.03036   0.33755   0.00000  Uiso   1.00
Zn585  Zn    0.70659  -0.00000   0.21735   0.00000  Uiso   1.00
Zn586  Zn    0.54340   0.25000   0.28265   0.00000  Uiso   1.00
Zn587  Zn    0.75000   0.45659   0.71735   0.00000  Uiso   1.00
Zn588  Zn    0.75000   0.04340   0.28265   0.00000  Uiso   1.00
Zn589  Zn    0.54340   0.25000   0.71735   0.00000  Uiso   1.00
Zn590  Zn    0.95659   0.25000   0.28265   0.00000  Uiso   1.00
Zn591  Zn    0.75000   0.04340   0.71735   0.00000  Uiso   1.00
Zn592  Zn    0.75000   0.45659   0.28265   0.00000  Uiso   1.00
Zn593  Zn    0.79340  -0.00000   0.78265   0.00000  Uiso   1.00
Zn594  Zn    0.50000   0.20659   0.21735   0.00000  Uiso   1.00
Zn595  Zn    0.50000   0.29340   0.78265   0.00000  Uiso   1.00
Zn596  Zn    0.79340  -0.00000   0.21735   0.00000  Uiso   1.00
Zn597  Zn    0.70659  -0.00000   0.78265   0.00000  Uiso   1.00
Zn598  Zn    0.50000   0.29340   0.21735   0.00000  Uiso   1.00
Zn599  Zn    0.50000   0.20659   0.78265   0.00000  Uiso   1.00
Zn600  Zn    0.95659   0.25000   0.71735   0.00000  Uiso   1.00
C601   C     0.03291   0.75036   0.41857   0.00000  Uiso   1.00
C602   C     0.21710   0.50123   0.08141   0.00000  Uiso   1.00
C603   C     0.24954   0.96650   0.54075   0.00000  Uiso   1.00
C604   C     0.03366   0.75068   0.45921   0.00000  Uiso   1.00
C605   C     0.46634   0.74931   0.54079   0.00000  Uiso   1.00
C606   C     0.24854   0.96647   0.45925   0.00000  Uiso   1.00
C607   C     0.24896   0.53377   0.54080   0.00000  Uiso   1.00
C608   C     0.21637   0.50069   0.95923   0.00000  Uiso   1.00
C609   C     0.28362   0.99930   0.04077   0.00000  Uiso   1.00
C610   C     0.00118   0.78354   0.95925   0.00000  Uiso   1.00
C611   C     0.00139   0.71624   0.04080   0.00000  Uiso   1.00
C612   C     0.28361   0.99926   0.95923   0.00000  Uiso   1.00
C613   C     0.00145   0.71704   0.91855   0.00000  Uiso   1.00
C614   C     0.21639   0.50077   0.04077   0.00000  Uiso   1.00
C615   C     0.00228   0.71626   0.95919   0.00000  Uiso   1.00
C616   C     0.00018   0.78350   0.04075   0.00000  Uiso   1.00
C617   C     0.09813   0.84813   0.25000   0.00000  Uiso   1.00
C618   C     0.40187   0.65187   0.75000   0.00000  Uiso   1.00
C619   C     0.15187   0.59813   0.25000   0.00000  Uiso   1.00
C620   C     0.34813   0.90187   0.75000   0.00000  Uiso   1.00
C621   C     0.40187   0.65187   0.25000   0.00000  Uiso   1.00
C622   C     0.09813   0.84813   0.75000   0.00000  Uiso   1.00
C623   C     0.34813   0.90187   0.25000   0.00000  Uiso   1.00
C624   C     0.49924   0.78283   0.08137   0.00000  Uiso   1.00
C625   C     0.15187   0.59813   0.75000   0.00000  Uiso   1.00
C626   C     0.09813   0.65187   0.75000   0.00000  Uiso   1.00
C627   C     0.40187   0.84813   0.25000   0.00000  Uiso   1.00
C628   C     0.15187   0.90187   0.75000   0.00000  Uiso   1.00
C629   C     0.34813   0.59813   0.25000   0.00000  Uiso   1.00
C630   C     0.40187   0.84813   0.75000   0.00000  Uiso   1.00
C631   C     0.09813   0.65187   0.25000   0.00000  Uiso   1.00
C632   C     0.34813   0.59813   0.75000   0.00000  Uiso   1.00
C633   C     0.15187   0.90187   0.25000   0.00000  Uiso   1.00
C634   C     0.00000   0.75053   0.47966   0.00000  Uiso   1.00
C635   C     0.21709   0.50119   0.91859   0.00000  Uiso   1.00
C636   C    -0.00000   0.74945   0.52034   0.00000  Uiso   1.00
C637   C     0.24845   0.50013   0.47966   0.00000  Uiso   1.00
C638   C     0.24904   0.50014   0.52034   0.00000  Uiso   1.00
C639   C     0.25000   0.99999   0.97966   0.00000  Uiso   1.00
C640   C     0.25000   0.50002   0.02034   0.00000  Uiso   1.00
C641   C     0.00159   0.74988   0.97966   0.00000  Uiso   1.00
C642   C     0.00099   0.74986   0.02034   0.00000  Uiso   1.00
C643   C     0.39752   0.75013   0.45792   0.00000  Uiso   1.00
C644   C     0.10248   0.74984   0.54208   0.00000  Uiso   1.00
C645   C     0.24829   0.60259   0.45790   0.00000  Uiso   1.00
C646   C     0.28291   0.99882   0.08141   0.00000  Uiso   1.00
C647   C     0.24711   0.89797   0.54226   0.00000  Uiso   1.00
C648   C     0.10248   0.74919   0.45792   0.00000  Uiso   1.00
C649   C     0.39752   0.75079   0.54208   0.00000  Uiso   1.00
C650   C     0.24534   0.89789   0.45788   0.00000  Uiso   1.00
C651   C     0.24675   0.60257   0.54208   0.00000  Uiso   1.00
C652   C     0.14776   0.99911   0.95782   0.00000  Uiso   1.00
C653   C     0.35222   0.50077   0.04220   0.00000  Uiso   1.00
C654   C     0.00378   0.85215   0.95788   0.00000  Uiso   1.00
C655   C     0.00427   0.64746   0.04208   0.00000  Uiso   1.00
C656   C     0.35221   0.50065   0.95779   0.00000  Uiso   1.00
C657   C     0.00051   0.78287   0.91862   0.00000  Uiso   1.00
C658   C     0.14780   0.99954   0.04222   0.00000  Uiso   1.00
C659   C     0.00274   0.64743   0.95790   0.00000  Uiso   1.00
C660   C     0.00196   0.85204   0.04226   0.00000  Uiso   1.00
C661   C     0.00155   0.71704   0.08145   0.00000  Uiso   1.00
C662   C     0.00000   0.75039   0.39840   0.00000  Uiso   1.00
C663   C    -0.00000   0.74960   0.60160   0.00000  Uiso   1.00
C664   C     0.24937   0.50003   0.39840   0.00000  Uiso   1.00
C665   C     0.46709   0.74963   0.58143   0.00000  Uiso   1.00
C666   C     0.24981   0.50004   0.60160   0.00000  Uiso   1.00
C667   C     0.25000   0.99999   0.89840   0.00000  Uiso   1.00
C668   C     0.25000   0.50002   0.10160   0.00000  Uiso   1.00
C669   C     0.00064   0.74997   0.89840   0.00000  Uiso   1.00
C670   C     0.00020   0.74996   0.10160   0.00000  Uiso   1.00
C671   C     0.43272   0.75062   0.47953   0.00000  Uiso   1.00
C672   C     0.06727   0.74935   0.52047   0.00000  Uiso   1.00
C673   C     0.24790   0.56738   0.47951   0.00000  Uiso   1.00
C674   C     0.24930   0.93290   0.52046   0.00000  Uiso   1.00
C675   C     0.06728   0.75000   0.47953   0.00000  Uiso   1.00
C676   C     0.24920   0.96714   0.41862   0.00000  Uiso   1.00
C677   C     0.43272   0.74998   0.52047   0.00000  Uiso   1.00
C678   C     0.24861   0.93286   0.47955   0.00000  Uiso   1.00
C679   C     0.24811   0.56739   0.52048   0.00000  Uiso   1.00
C680   C     0.18277   0.50131   0.97954   0.00000  Uiso   1.00
C681   C     0.31723   0.99868   0.02046   0.00000  Uiso   1.00
C682   C     0.00080   0.81715   0.97955   0.00000  Uiso   1.00
C683   C     0.00256   0.68263   0.02048   0.00000  Uiso   1.00
C684   C     0.31722   0.99864   0.97953   0.00000  Uiso   1.00
C685   C     0.18279   0.50142   0.02047   0.00000  Uiso   1.00
C686   C     0.00278   0.68264   0.97951   0.00000  Uiso   1.00
C687   C     0.24877   0.53297   0.58145   0.00000  Uiso   1.00
C688   C     0.00011   0.81710   0.02047   0.00000  Uiso   1.00
C689   C     0.24996   0.50000   0.35596   0.00000  Uiso   1.00
C690   C     0.24999   0.50000   0.64404   0.00000  Uiso   1.00
C691   C     0.00000   0.75003   0.35596   0.00000  Uiso   1.00
C692   C    -0.00000   0.74997   0.64404   0.00000  Uiso   1.00
C693   C     0.00004   0.75000   0.85596   0.00000  Uiso   1.00
C694   C     0.00001   0.75000   0.14404   0.00000  Uiso   1.00
C695   C     0.25000   0.50000   0.85596   0.00000  Uiso   1.00
C696   C     0.25000   0.50000   0.14404   0.00000  Uiso   1.00
C697   C     0.17994   0.57006   0.25000   0.00000  Uiso   1.00
C698   C     0.46709   0.75065   0.41858   0.00000  Uiso   1.00
C699   C     0.32006   0.92994   0.75000   0.00000  Uiso   1.00
C700   C     0.42994   0.67994   0.25000   0.00000  Uiso   1.00
C701   C     0.07006   0.82006   0.75000   0.00000  Uiso   1.00
C702   C     0.32006   0.92994   0.25000   0.00000  Uiso   1.00
C703   C     0.17994   0.57006   0.75000   0.00000  Uiso   1.00
C704   C     0.07006   0.82006   0.25000   0.00000  Uiso   1.00
C705   C     0.42994   0.67994   0.75000   0.00000  Uiso   1.00
C706   C     0.17994   0.92994   0.75000   0.00000  Uiso   1.00
C707   C     0.32006   0.57006   0.25000   0.00000  Uiso   1.00
C708   C     0.42994   0.82006   0.75000   0.00000  Uiso   1.00
C709   C     0.03291   0.74933   0.58142   0.00000  Uiso   1.00
C710   C     0.07006   0.67994   0.25000   0.00000  Uiso   1.00
C711   C     0.32006   0.57006   0.75000   0.00000  Uiso   1.00
C712   C     0.17994   0.92994   0.25000   0.00000  Uiso   1.00
C713   C     0.07006   0.67994   0.75000   0.00000  Uiso   1.00
C714   C     0.42994   0.82006   0.25000   0.00000  Uiso   1.00
C715   C     0.12199   0.90474   0.22483   0.00000  Uiso   1.00
C716   C     0.37802   0.59525   0.77516   0.00000  Uiso   1.00
C717   C     0.09526   0.62200   0.22482   0.00000  Uiso   1.00
C718   C     0.40475   0.87801   0.77516   0.00000  Uiso   1.00
C719   C     0.37802   0.59525   0.22484   0.00000  Uiso   1.00
C720   C     0.24888   0.53297   0.41855   0.00000  Uiso   1.00
C721   C     0.12199   0.90474   0.77517   0.00000  Uiso   1.00
C722   C     0.40475   0.87801   0.22483   0.00000  Uiso   1.00
C723   C     0.09526   0.62200   0.77518   0.00000  Uiso   1.00
C724   C     0.12200   0.59526   0.77518   0.00000  Uiso   1.00
C725   C     0.37801   0.90475   0.22483   0.00000  Uiso   1.00
C726   C     0.09526   0.87801   0.77517   0.00000  Uiso   1.00
C727   C     0.40475   0.62198   0.22485   0.00000  Uiso   1.00
C728   C     0.37801   0.90475   0.77516   0.00000  Uiso   1.00
C729   C     0.12200   0.59526   0.22482   0.00000  Uiso   1.00
C730   C     0.40475   0.62198   0.77516   0.00000  Uiso   1.00
C731   C     0.25047   0.96716   0.58137   0.00000  Uiso   1.00
C732   C     0.09526   0.87801   0.22483   0.00000  Uiso   1.00
C733   C     0.37198   0.65475   0.72484   0.00000  Uiso   1.00
C734   C     0.12801   0.84526   0.27517   0.00000  Uiso   1.00
C735   C     0.34525   0.87199   0.72484   0.00000  Uiso   1.00
C736   C     0.15474   0.62800   0.27517   0.00000  Uiso   1.00
C737   C     0.12801   0.84525   0.72483   0.00000  Uiso   1.00
C738   C     0.37198   0.65475   0.27516   0.00000  Uiso   1.00
C739   C     0.15474   0.62800   0.72482   0.00000  Uiso   1.00
C740   C     0.34525   0.87199   0.27516   0.00000  Uiso   1.00
C741   C     0.37199   0.84525   0.27516   0.00000  Uiso   1.00
C742   C     0.28290   0.99878   0.91859   0.00000  Uiso   1.00
C743   C     0.12800   0.65474   0.72482   0.00000  Uiso   1.00
C744   C     0.34525   0.62802   0.27516   0.00000  Uiso   1.00
C745   C     0.15474   0.87199   0.72483   0.00000  Uiso   1.00
C746   C     0.12800   0.65474   0.27517   0.00000  Uiso   1.00
C747   C     0.37199   0.84525   0.72484   0.00000  Uiso   1.00
C748   C     0.15474   0.87199   0.27517   0.00000  Uiso   1.00
C749   C     0.34525   0.62801   0.72484   0.00000  Uiso   1.00
C750   C     0.46635   0.75098   0.45922   0.00000  Uiso   1.00
C751   C     0.03365   0.74900   0.54078   0.00000  Uiso   1.00
C752   C     0.24807   0.53375   0.45919   0.00000  Uiso   1.00
H753   H     0.11924   0.92759   0.20514   0.00000  Uiso   1.00
H754   H     0.38077   0.92760   0.20515   0.00000  Uiso   1.00
H755   H     0.07240   0.88076   0.79486   0.00000  Uiso   1.00
H756   H     0.42761   0.61922   0.20517   0.00000  Uiso   1.00
H757   H     0.38077   0.92760   0.79485   0.00000  Uiso   1.00
H758   H     0.11924   0.57241   0.20513   0.00000  Uiso   1.00
H759   H     0.42761   0.61922   0.79484   0.00000  Uiso   1.00
H760   H     0.07241   0.88076   0.20514   0.00000  Uiso   1.00
H761   H     0.36922   0.67761   0.70516   0.00000  Uiso   1.00
H762   H     0.13076   0.82241   0.29486   0.00000  Uiso   1.00
H763   H     0.32240   0.86923   0.70515   0.00000  Uiso   1.00
H764   H     0.38078   0.57239   0.79484   0.00000  Uiso   1.00
H765   H     0.17759   0.63076   0.29487   0.00000  Uiso   1.00
H766   H     0.13076   0.82240   0.70514   0.00000  Uiso   1.00
H767   H     0.36922   0.67761   0.29483   0.00000  Uiso   1.00
H768   H     0.17759   0.63075   0.70513   0.00000  Uiso   1.00
H769   H     0.32240   0.86923   0.29485   0.00000  Uiso   1.00
H770   H     0.36923   0.82240   0.29485   0.00000  Uiso   1.00
H771   H     0.13075   0.67759   0.70513   0.00000  Uiso   1.00
H772   H     0.32239   0.63078   0.29483   0.00000  Uiso   1.00
H773   H     0.17760   0.86923   0.70514   0.00000  Uiso   1.00
H774   H     0.13076   0.67759   0.29487   0.00000  Uiso   1.00
H775   H     0.07241   0.61924   0.20513   0.00000  Uiso   1.00
H776   H     0.36923   0.82240   0.70515   0.00000  Uiso   1.00
H777   H     0.17759   0.86924   0.29486   0.00000  Uiso   1.00
H778   H     0.32239   0.63078   0.70516   0.00000  Uiso   1.00
H779   H     0.05790   0.74954   0.40202   0.00000  Uiso   1.00
H780   H     0.44209   0.75045   0.59798   0.00000  Uiso   1.00
H781   H     0.25017   0.94203   0.40220   0.00000  Uiso   1.00
H782   H     0.24760   0.55794   0.59803   0.00000  Uiso   1.00
H783   H     0.44209   0.75007   0.40202   0.00000  Uiso   1.00
H784   H     0.05791   0.74992   0.59798   0.00000  Uiso   1.00
H785   H     0.24958   0.55797   0.40199   0.00000  Uiso   1.00
H786   H     0.42760   0.88077   0.79485   0.00000  Uiso   1.00
H787   H     0.25172   0.94204   0.59776   0.00000  Uiso   1.00
H788   H     0.30798   0.99730   0.90216   0.00000  Uiso   1.00
H789   H     0.19201   0.50268   0.09784   0.00000  Uiso   1.00
H790   H     0.00099   0.69204   0.90199   0.00000  Uiso   1.00
H791   H     0.49775   0.80794   0.09776   0.00000  Uiso   1.00
H792   H     0.19202   0.50272   0.90215   0.00000  Uiso   1.00
H793   H     0.30798   0.99732   0.09784   0.00000  Uiso   1.00
H794   H     0.49929   0.80796   0.90220   0.00000  Uiso   1.00
H795   H     0.00295   0.69209   0.09803   0.00000  Uiso   1.00
H796   H     0.39285   0.76909   0.43429   0.00000  Uiso   1.00
H797   H     0.38078   0.57239   0.20517   0.00000  Uiso   1.00
H798   H     0.10714   0.73087   0.56571   0.00000  Uiso   1.00
H799   H     0.22961   0.60702   0.43397   0.00000  Uiso   1.00
H800   H     0.22475   0.89340   0.56230   0.00000  Uiso   1.00
H801   H     0.10732   0.76810   0.43429   0.00000  Uiso   1.00
H802   H     0.39268   0.73188   0.56571   0.00000  Uiso   1.00
H803   H     0.22372   0.89448   0.43669   0.00000  Uiso   1.00
H804   H     0.26543   0.60762   0.56588   0.00000  Uiso   1.00
H805   H     0.14359   0.97742   0.93687   0.00000  Uiso   1.00
H806   H     0.35657   0.52264   0.06289   0.00000  Uiso   1.00
H807   H     0.02532   0.85571   0.93664   0.00000  Uiso   1.00
H808   H     0.11924   0.92760   0.79486   0.00000  Uiso   1.00
H809   H     0.48565   0.64222   0.06587   0.00000  Uiso   1.00
H810   H     0.35670   0.52266   0.93730   0.00000  Uiso   1.00
H811   H     0.14311   0.97736   0.06245   0.00000  Uiso   1.00
H812   H     0.02146   0.64318   0.93397   0.00000  Uiso   1.00
H813   H     0.02431   0.85685   0.06225   0.00000  Uiso   1.00
H814   H     0.42760   0.88077   0.20515   0.00000  Uiso   1.00
H815   H     0.07241   0.61925   0.79487   0.00000  Uiso   1.00
H816   H     0.11925   0.57241   0.79487   0.00000  Uiso   1.00
O817   O     0.25000   0.50000   0.25000   0.00000  Uiso   1.00
O818   O     0.25000   0.96963   0.66245   0.00000  Uiso   1.00
O819   O     0.46963   0.75000   0.33755   0.00000  Uiso   1.00
O820   O     0.03036   0.75000   0.66245   0.00000  Uiso   1.00
O821   O    -0.00000   0.71963   0.83755   0.00000  Uiso   1.00
O822   O    -0.00000   0.78036   0.16245   0.00000  Uiso   1.00
O823   O     0.28036   0.50000   0.83755   0.00000  Uiso   1.00
O824   O     0.21963   0.50000   0.16245   0.00000  Uiso   1.00
O825   O    -0.00000   0.78036   0.83755   0.00000  Uiso   1.00
O826   O    -0.00000   0.71963   0.16245   0.00000  Uiso   1.00
O827   O     0.21963   0.50000   0.83755   0.00000  Uiso   1.00
O828   O     0.25000   0.50000   0.75000   0.00000  Uiso   1.00
O829   O     0.28036   0.50000   0.16245   0.00000  Uiso   1.00
O830   O     0.20724   0.57307   0.27302   0.00000  Uiso   1.00
O831   O     0.29275   0.92692   0.72698   0.00000  Uiso   1.00
O832   O     0.42692   0.70724   0.27302   0.00000  Uiso   1.00
O833   O     0.07307   0.79275   0.72698   0.00000  Uiso   1.00
O834   O     0.29275   0.92692   0.27302   0.00000  Uiso   1.00
O835   O     0.20724   0.57307   0.72698   0.00000  Uiso   1.00
O836   O     0.07307   0.79275   0.27302   0.00000  Uiso   1.00
O837   O     0.42692   0.70724   0.72698   0.00000  Uiso   1.00
O838   O     0.20724   0.92692   0.72698   0.00000  Uiso   1.00
O839   O     0.00000   0.75000   0.25000   0.00000  Uiso   1.00
O840   O     0.29275   0.57307   0.27302   0.00000  Uiso   1.00
O841   O     0.42692   0.79275   0.72698   0.00000  Uiso   1.00
O842   O     0.07307   0.70724   0.27302   0.00000  Uiso   1.00
O843   O     0.29275   0.57307   0.72698   0.00000  Uiso   1.00
O844   O     0.20724   0.92692   0.27302   0.00000  Uiso   1.00
O845   O     0.07307   0.70724   0.72698   0.00000  Uiso   1.00
O846   O     0.42692   0.79275   0.27302   0.00000  Uiso   1.00
O847   O     0.45724   0.82307   0.77302   0.00000  Uiso   1.00
O848   O     0.04275   0.67692   0.22698   0.00000  Uiso   1.00
O849   O     0.17692   0.95724   0.77302   0.00000  Uiso   1.00
O850   O    -0.00000   0.75000   0.75000   0.00000  Uiso   1.00
O851   O     0.32307   0.54275   0.22698   0.00000  Uiso   1.00
O852   O     0.04275   0.67692   0.77302   0.00000  Uiso   1.00
O853   O     0.45724   0.82307   0.22698   0.00000  Uiso   1.00
O854   O     0.32307   0.54275   0.77302   0.00000  Uiso   1.00
O855   O     0.17692   0.95724   0.22698   0.00000  Uiso   1.00
O856   O     0.45724   0.67692   0.22698   0.00000  Uiso   1.00
O857   O     0.04275   0.82307   0.77302   0.00000  Uiso   1.00
O858   O     0.17692   0.54275   0.22698   0.00000  Uiso   1.00
O859   O     0.32307   0.95724   0.77302   0.00000  Uiso   1.00
O860   O     0.04275   0.82307   0.22698   0.00000  Uiso   1.00
O861   O     0.25000   0.96963   0.33755   0.00000  Uiso   1.00
O862   O     0.45724   0.67692   0.77302   0.00000  Uiso   1.00
O863   O     0.32307   0.95724   0.22698   0.00000  Uiso   1.00
O864   O     0.17692   0.54275   0.77302   0.00000  Uiso   1.00
O865   O     0.37374   0.72806   0.46598   0.00000  Uiso   1.00
O866   O     0.12627   0.77190   0.53402   0.00000  Uiso   1.00
O867   O     0.26997   0.62663   0.46629   0.00000  Uiso   1.00
O868   O     0.27108   0.87502   0.53941   0.00000  Uiso   1.00
O869   O     0.12606   0.72690   0.46598   0.00000  Uiso   1.00
O870   O     0.37394   0.77308   0.53402   0.00000  Uiso   1.00
O871   O     0.26749   0.87339   0.46228   0.00000  Uiso   1.00
O872   O     0.25000   0.53036   0.66245   0.00000  Uiso   1.00
O873   O     0.22429   0.62591   0.53380   0.00000  Uiso   1.00
O874   O     0.12414   0.52226   0.96188   0.00000  Uiso   1.00
O875   O     0.37560   0.97733   0.03846   0.00000  Uiso   1.00
O876   O     0.48148   0.87650   0.96236   0.00000  Uiso   1.00
O877   O     0.02697   0.62434   0.03380   0.00000  Uiso   1.00
O878   O     0.37538   0.97697   0.96126   0.00000  Uiso   1.00
O879   O     0.12490   0.52352   0.03908   0.00000  Uiso   1.00
O880   O     0.48130   0.62318   0.96629   0.00000  Uiso   1.00
O881   O     0.47773   0.87473   0.03948   0.00000  Uiso   1.00
O882   O     0.03036   0.75000   0.33755   0.00000  Uiso   1.00
O883   O     0.46963   0.75000   0.66245   0.00000  Uiso   1.00
O884   O     0.25000   0.53036   0.33755   0.00000  Uiso   1.00
Zn885  Zn    0.20659   0.50000   0.21735   0.00000  Uiso   1.00
Zn886  Zn    0.04340   0.75000   0.28265   0.00000  Uiso   1.00
Zn887  Zn    0.25000   0.95659   0.71735   0.00000  Uiso   1.00
Zn888  Zn    0.25000   0.54340   0.28265   0.00000  Uiso   1.00
Zn889  Zn    0.04340   0.75000   0.71735   0.00000  Uiso   1.00
Zn890  Zn    0.45659   0.75000   0.28265   0.00000  Uiso   1.00
Zn891  Zn    0.25000   0.54340   0.71735   0.00000  Uiso   1.00
Zn892  Zn    0.25000   0.95659   0.28265   0.00000  Uiso   1.00
Zn893  Zn    0.29340   0.50000   0.78265   0.00000  Uiso   1.00
Zn894  Zn   -0.00000   0.70659   0.21735   0.00000  Uiso   1.00
Zn895  Zn   -0.00000   0.79340   0.78265   0.00000  Uiso   1.00
Zn896  Zn    0.29340   0.50000   0.21735   0.00000  Uiso   1.00
Zn897  Zn    0.20659   0.50000   0.78265   0.00000  Uiso   1.00
Zn898  Zn   -0.00000   0.79340   0.21735   0.00000  Uiso   1.00
Zn899  Zn   -0.00000   0.70659   0.78265   0.00000  Uiso   1.00
Zn900  Zn    0.45659   0.75000   0.71735   0.00000  Uiso   1.00
C901   C     0.53291   0.75036   0.41857   0.00000  Uiso   1.00
C902   C     0.71710   0.50123   0.08141   0.00000  Uiso   1.00
C903   C     0.74954   0.96650   0.54075   0.00000  Uiso   1.00
C904   C     0.53366   0.75068   0.45921   0.00000  Uiso   1.00
C905   C     0.96634   0.74931   0.54079   0.00000  Uiso   1.00
C906   C     0.74854   0.96647   0.45925   0.00000  Uiso   1.00
C907   C     0.74896   0.53377   0.54080   0.00000  Uiso   1.00
C908   C     0.71637   0.50069   0.95923   0.00000  Uiso   1.00
C909   C     0.78362   0.99930   0.04077   0.00000  Uiso   1.00
C910   C     0.50118   0.78354   0.95925   0.00000  Uiso   1.00
C911   C     0.50139   0.71624   0.04080   0.00000  Uiso   1.00
C912   C     0.78361   0.99926   0.95923   0.00000  Uiso   1.00
C913   C     0.50145   0.71704   0.91855   0.00000  Uiso   1.00
C914   C     0.71639   0.50077   0.04077   0.00000  Uiso   1.00
C915   C     0.50228   0.71626   0.95919   0.00000  Uiso   1.00
C916   C     0.50018   0.78350   0.04075   0.00000  Uiso   1.00
C917   C     0.59813   0.84813   0.25000   0.00000  Uiso   1.00
C918   C     0.90187   0.65187   0.75000   0.00000  Uiso   1.00
C919   C     0.65187   0.59813   0.25000   0.00000  Uiso   1.00
C920   C     0.84813   0.90187   0.75000   0.00000  Uiso   1.00
C921   C     0.90187   0.65187   0.25000   0.00000  Uiso   1.00
C922   C     0.59813   0.84813   0.75000   0.00000  Uiso   1.00
C923   C     0.84813   0.90187   0.25000   0.00000  Uiso   1.00
C924   C     0.99924   0.78283   0.08137   0.00000  Uiso   1.00
C925   C     0.65187   0.59813   0.75000   0.00000  Uiso   1.00
C926   C     0.59813   0.65187   0.75000   0.00000  Uiso   1.00
C927   C     0.90187   0.84813   0.25000   0.00000  Uiso   1.00
C928   C     0.65187   0.90187   0.75000   0.00000  Uiso   1.00
C929   C     0.84813   0.59813   0.25000   0.00000  Uiso   1.00
C930   C     0.90187   0.84813   0.75000   0.00000  Uiso   1.00
C931   C     0.59813   0.65187   0.25000   0.00000  Uiso   1.00
C932   C     0.84813   0.59813   0.75000   0.00000  Uiso   1.00
C933   C     0.65187   0.90187   0.25000   0.00000  Uiso   1.00
C934   C     0.50000   0.75053   0.47966   0.00000  Uiso   1.00
C935   C     0.71709   0.50119   0.91859   0.00000  Uiso   1.00
C936   C     0.50000   0.74945   0.52034   0.00000  Uiso   1.00
C937   C     0.74845   0.50013   0.47966   0.00000  Uiso   1.00
C938   C     0.74904   0.50014   0.52034   0.00000  Uiso   1.00
C939   C     0.75000   0.99999   0.97966   0.00000  Uiso   1.00
C940   C     0.75000   0.50002   0.02034   0.00000  Uiso   1.00
C941   C     0.50159   0.74988   0.97966   0.00000  Uiso   1.00
C942   C     0.50099   0.74986   0.02034   0.00000  Uiso   1.00
C943   C     0.89752   0.75013   0.45792   0.00000  Uiso   1.00
C944   C     0.60248   0.74984   0.54208   0.00000  Uiso   1.00
C945   C     0.74829   0.60259   0.45790   0.00000  Uiso   1.00
C946   C     0.78291   0.99882   0.08141   0.00000  Uiso   1.00
C947   C     0.74711   0.89797   0.54226   0.00000  Uiso   1.00
C948   C     0.60248   0.74919   0.45792   0.00000  Uiso   1.00
C949   C     0.89752   0.75079   0.54208   0.00000  Uiso   1.00
C950   C     0.74534   0.89789   0.45788   0.00000  Uiso   1.00
C951   C     0.74675   0.60257   0.54208   0.00000  Uiso   1.00
C952   C     0.64776   0.99911   0.95782   0.00000  Uiso   1.00
C953   C     0.85222   0.50077   0.04220   0.00000  Uiso   1.00
C954   C     0.50378   0.85215   0.95788   0.00000  Uiso   1.00
C955   C     0.50427   0.64746   0.04208   0.00000  Uiso   1.00
C956   C     0.85221   0.50065   0.95779   0.00000  Uiso   1.00
C957   C     0.50051   0.78287   0.91862   0.00000  Uiso   1.00
C958   C     0.64780   0.99954   0.04222   0.00000  Uiso   1.00
C959   C     0.50274   0.64743   0.95790   0.00000  Uiso   1.00
C960   C     0.50196   0.85204   0.04226   0.00000  Uiso   1.00
C961   C     0.50155   0.71704   0.08145   0.00000  Uiso   1.00
C962   C     0.50000   0.75039   0.39840   0.00000  Uiso   1.00
C963   C     0.50000   0.74960   0.60160   0.00000  Uiso   1.00
C964   C     0.74937   0.50003   0.39840   0.00000  Uiso   1.00
C965   C     0.96709   0.74963   0.58143   0.00000  Uiso   1.00
C966   C     0.74981   0.50004   0.60160   0.00000  Uiso   1.00
C967   C     0.75000   0.99999   0.89840   0.00000  Uiso   1.00
C968   C     0.75000   0.50002   0.10160   0.00000  Uiso   1.00
C969   C     0.50064   0.74997   0.89840   0.00000  Uiso   1.00
C970   C     0.50020   0.74996   0.10160   0.00000  Uiso   1.00
C971   C     0.93272   0.75062   0.47953   0.00000  Uiso   1.00
C972   C     0.56727   0.74935   0.52047   0.00000  Uiso   1.00
C973   C     0.74790   0.56738   0.47951   0.00000  Uiso   1.00
C974   C     0.74930   0.93290   0.52046   0.00000  Uiso   1.00
C975   C     0.56728   0.75000   0.47953   0.00000  Uiso   1.00
C976   C     0.74920   0.96714   0.41862   0.00000  Uiso   1.00
C977   C     0.93272   0.74998   0.52047   0.00000  Uiso   1.00
C978   C     0.74861   0.93286   0.47955   0.00000  Uiso   1.00
C979   C     0.74811   0.56739   0.52048   0.00000  Uiso   1.00
C980   C     0.68277   0.50131   0.97954   0.00000  Uiso   1.00
C981   C     0.81723   0.99868   0.02046   0.00000  Uiso   1.00
C982   C     0.50080   0.81715   0.97955   0.00000  Uiso   1.00
C983   C     0.50256   0.68263   0.02048   0.00000  Uiso   1.00
C984   C     0.81722   0.99864   0.97953   0.00000  Uiso   1.00
C985   C     0.68279   0.50142   0.02047   0.00000  Uiso   1.00
C986   C     0.50278   0.68264   0.97951   0.00000  Uiso   1.00
C987   C     0.74877   0.53297   0.58145   0.00000  Uiso   1.00
C988   C     0.50011   0.81710   0.02047   0.00000  Uiso   1.00
C989   C     0.74996   0.50000   0.35596   0.00000  Uiso   1.00
C990   C     0.74999   0.50000   0.64404   0.00000  Uiso   1.00
C991   C     0.50000   0.75003   0.35596   0.00000  Uiso   1.00
C992   C     0.50000   0.74997   0.64404   0.00000  Uiso   1.00
C993   C     0.50004   0.75000   0.85596   0.00000  Uiso   1.00
C994   C     0.50001   0.75000   0.14404   0.00000  Uiso   1.00
C995   C     0.75000   0.50000   0.85596   0.00000  Uiso   1.00
C996   C     0.75000   0.50000   0.14404   0.00000  Uiso   1.00
C997   C     0.67994   0.57006   0.25000   0.00000  Uiso   1.00
C998   C     0.96709   0.75065   0.41858   0.00000  Uiso   1.00
C999   C     0.82006   0.92994   0.75000   0.00000  Uiso   1.00
C1000  C     0.92994   0.67994   0.25000   0.00000  Uiso   1.00
C1001  C     0.57006   0.82006   0.75000   0.00000  Uiso   1.00
C1002  C     0.82006   0.92994   0.25000   0.00000  Uiso   1.00
C1003  C     0.67994   0.57006   0.75000   0.00000  Uiso   1.00
C1004  C     0.57006   0.82006   0.25000   0.00000  Uiso   1.00
C1005  C     0.92994   0.67994   0.75000   0.00000  Uiso   1.00
C1006  C     0.67994   0.92994   0.75000   0.00000  Uiso   1.00
C1007  C     0.82006   0.57006   0.25000   0.00000  Uiso   1.00
C1008  C     0.92994   0.82006   0.75000   0.00000  Uiso   1.00
C1009  C     0.53291   0.74933   0.58142   0.00000  Uiso   1.00
C1010  C     0.57006   0.67994   0.25000   0.00000  Uiso   1.00
C1011  C     0.82006   0.57006   0.75000   0.00000  Uiso   1.00
C1012  C     0.67994   0.92994   0.25000   0.00000  Uiso   1.00
C1013  C     0.57006   0.67994   0.75000   0.00000  Uiso   1.00
C1014  C     0.92994   0.82006   0.25000   0.00000  Uiso   1.00
C1015  C     0.62199   0.90474   0.22483   0.00000  Uiso   1.00
C1016  C     0.87802   0.59525   0.77516   0.00000  Uiso   1.00
C1017  C     0.59526   0.62200   0.22482   0.00000  Uiso   1.00
C1018  C     0.90475   0.87801   0.77516   0.00000  Uiso   1.00
C1019  C     0.87802   0.59525   0.22484   0.00000  Uiso   1.00
C1020  C     0.74888   0.53297   0.41855   0.00000  Uiso   1.00
C1021  C     0.62199   0.90474   0.77517   0.00000  Uiso   1.00
C1022  C     0.90475   0.87801   0.22483   0.00000  Uiso   1.00
C1023  C     0.59526   0.62200   0.77518   0.00000  Uiso   1.00
C1024  C     0.62200   0.59526   0.77518   0.00000  Uiso   1.00
C1025  C     0.87801   0.90475   0.22483   0.00000  Uiso   1.00
C1026  C     0.59526   0.87801   0.77517   0.00000  Uiso   1.00
C1027  C     0.90475   0.62198   0.22485   0.00000  Uiso   1.00
C1028  C     0.87801   0.90475   0.77516   0.00000  Uiso   1.00
C1029  C     0.62200   0.59526   0.22482   0.00000  Uiso   1.00
C1030  C     0.90475   0.62198   0.77516   0.00000  Uiso   1.00
C1031  C     0.75047   0.96716   0.58137   0.00000  Uiso   1.00
C1032  C     0.59526   0.87801   0.22483   0.00000  Uiso   1.00
C1033  C     0.87198   0.65475   0.72484   0.00000  Uiso   1.00
C1034  C     0.62801   0.84526   0.27517   0.00000  Uiso   1.00
C1035  C     0.84525   0.87199   0.72484   0.00000  Uiso   1.00
C1036  C     0.65474   0.62800   0.27517   0.00000  Uiso   1.00
C1037  C     0.62801   0.84525   0.72483   0.00000  Uiso   1.00
C1038  C     0.87198   0.65475   0.27516   0.00000  Uiso   1.00
C1039  C     0.65474   0.62800   0.72482   0.00000  Uiso   1.00
C1040  C     0.84525   0.87199   0.27516   0.00000  Uiso   1.00
C1041  C     0.87199   0.84525   0.27516   0.00000  Uiso   1.00
C1042  C     0.78290   0.99878   0.91859   0.00000  Uiso   1.00
C1043  C     0.62800   0.65474   0.72482   0.00000  Uiso   1.00
C1044  C     0.84525   0.62802   0.27516   0.00000  Uiso   1.00
C1045  C     0.65474   0.87199   0.72483   0.00000  Uiso   1.00
C1046  C     0.62800   0.65474   0.27517   0.00000  Uiso   1.00
C1047  C     0.87199   0.84525   0.72484   0.00000  Uiso   1.00
C1048  C     0.65474   0.87199   0.27517   0.00000  Uiso   1.00
C1049  C     0.84525   0.62801   0.72484   0.00000  Uiso   1.00
C1050  C     0.96635   0.75098   0.45922   0.00000  Uiso   1.00
C1051  C     0.53365   0.74900   0.54078   0.00000  Uiso   1.00
C1052  C     0.74807   0.53375   0.45919   0.00000  Uiso   1.00
H1053  H     0.61924   0.92759   0.20514   0.00000  Uiso   1.00
H1054  H     0.88077   0.92760   0.20515   0.00000  Uiso   1.00
H1055  H     0.57240   0.88076   0.79486   0.00000  Uiso   1.00
H1056  H     0.92761   0.61922   0.20517   0.00000  Uiso   1.00
H1057  H     0.88077   0.92760   0.79485   0.00000  Uiso   1.00
H1058  H     0.61924   0.57241   0.20513   0.00000  Uiso   1.00
H1059  H     0.92761   0.61922   0.79484   0.00000  Uiso   1.00
H1060  H     0.57241   0.88076   0.20514   0.00000  Uiso   1.00
H1061  H     0.86922   0.67761   0.70516   0.00000  Uiso   1.00
H1062  H     0.63076   0.82241   0.29486   0.00000  Uiso   1.00
H1063  H     0.82240   0.86923   0.70515   0.00000  Uiso   1.00
H1064  H     0.88078   0.57239   0.79484   0.00000  Uiso   1.00
H1065  H     0.67759   0.63076   0.29487   0.00000  Uiso   1.00
H1066  H     0.63076   0.82240   0.70514   0.00000  Uiso   1.00
H1067  H     0.86922   0.67761   0.29483   0.00000  Uiso   1.00
H1068  H     0.67759   0.63075   0.70513   0.00000  Uiso   1.00
H1069  H     0.82240   0.86923   0.29485   0.00000  Uiso   1.00
H1070  H     0.86923   0.82240   0.29485   0.00000  Uiso   1.00
H1071  H     0.63075   0.67759   0.70513   0.00000  Uiso   1.00
H1072  H     0.82239   0.63078   0.29483   0.00000  Uiso   1.00
H1073  H     0.67760   0.86923   0.70514   0.00000  Uiso   1.00
H1074  H     0.63076   0.67759   0.29487   0.00000  Uiso   1.00
H1075  H     0.57241   0.61924   0.20513   0.00000  Uiso   1.00
H1076  H     0.86923   0.82240   0.70515   0.00000  Uiso   1.00
H1077  H     0.67759   0.86924   0.29486   0.00000  Uiso   1.00
H1078  H     0.82239   0.63078   0.70516   0.00000  Uiso   1.00
H1079  H     0.55790   0.74954   0.40202   0.00000  Uiso   1.00
H1080  H     0.94209   0.75045   0.59798   0.00000  Uiso   1.00
H1081  H     0.75017   0.94203   0.40220   0.00000  Uiso   1.00
H1082  H     0.74760   0.55794   0.59803   0.00000  Uiso   1.00
H1083  H     0.94209   0.75007   0.40202   0.00000  Uiso   1.00
H1084  H     0.55791   0.74992   0.59798   0.00000  Uiso   1.00
H1085  H     0.74958   0.55797   0.40199   0.00000  Uiso   1.00
H1086  H     0.92760   0.88077   0.79485   0.00000  Uiso   1.00
H1087  H     0.75172   0.94204   0.59776   0.00000  Uiso   1.00
H1088  H     0.80798   0.99730   0.90216   0.00000  Uiso   1.00
H1089  H     0.69201   0.50268   0.09784   0.00000  Uiso   1.00
H1090  H     0.50099   0.69204   0.90199   0.00000  Uiso   1.00
H1091  H     0.99775   0.80794   0.09776   0.00000  Uiso   1.00
H1092  H     0.69202   0.50272   0.90215   0.00000  Uiso   1.00
H1093  H     0.80798   0.99732   0.09784   0.00000  Uiso   1.00
H1094  H     0.99929   0.80796   0.90220   0.00000  Uiso   1.00
H1095  H     0.50295   0.69209   0.09803   0.00000  Uiso   1.00
H1096  H     0.89285   0.76909   0.43429   0.00000  Uiso   1.00
H1097  H     0.88078   0.57239   0.20517   0.00000  Uiso   1.00
H1098  H     0.60714   0.73087   0.56571   0.00000  Uiso   1.00
H1099  H     0.72961   0.60702   0.43397   0.00000  Uiso   1.00
H1100  H     0.72475   0.89340   0.56230   0.00000  Uiso   1.00
H1101  H     0.60732   0.76810   0.43429   0.00000  Uiso   1.00
H1102  H     0.89268   0.73188   0.56571   0.00000  Uiso   1.00
H1103  H     0.72372   0.89448   0.43669   0.00000  Uiso   1.00
H1104  H     0.76543   0.60762   0.56588   0.00000  Uiso   1.00
H1105  H     0.64359   0.97742   0.93687   0.00000  Uiso   1.00
H1106  H     0.85657   0.52264   0.06289   0.00000  Uiso   1.00
H1107  H     0.52532   0.85571   0.93664   0.00000  Uiso   1.00
H1108  H     0.61924   0.92760   0.79486   0.00000  Uiso   1.00
H1109  H     0.98565   0.64222   0.06587   0.00000  Uiso   1.00
H1110  H     0.85670   0.52266   0.93730   0.00000  Uiso   1.00
H1111  H     0.64311   0.97736   0.06245   0.00000  Uiso   1.00
H1112  H     0.52146   0.64318   0.93397   0.00000  Uiso   1.00
H1113  H     0.52431   0.85685   0.06225   0.00000  Uiso   1.00
H1114  H     0.92760   0.88077   0.20515   0.00000  Uiso   1.00
H1115  H     0.57241   0.61925   0.79487   0.00000  Uiso   1.00
H1116  H     0.61925   0.57241   0.79487   0.00000  Uiso   1.00
O1117  O     0.75000   0.50000   0.25000   0.00000  Uiso   1.00
O1118  O     0.75000   0.96963   0.66245   0.00000  Uiso   1.00
O1119  O     0.96963   0.75000   0.33755   0.00000  Uiso   1.00
O1120  O     0.53036   0.75000   0.66245   0.00000  Uiso   1.00
O1121  O     0.50000   0.71963   0.83755   0.00000  Uiso   1.00
O1122  O     0.50000   0.78036   0.16245   0.00000  Uiso   1.00
O1123  O     0.78036   0.50000   0.83755   0.00000  Uiso   1.00
O1124  O     0.71963   0.50000   0.16245   0.00000  Uiso   1.00
O1125  O     0.50000   0.78036   0.83755   0.00000  Uiso   1.00
O1126  O     0.50000   0.71963   0.16245   0.00000  Uiso   1.00
O1127  O     0.71963   0.50000   0.83755   0.00000  Uiso   1.00
O1128  O     0.75000   0.50000   0.75000   0.00000  Uiso   1.00
O1129  O     0.78036   0.50000   0.16245   0.00000  Uiso   1.00
O1130  O     0.70724   0.57307   0.27302   0.00000  Uiso   1.00
O1131  O     0.79275   0.92692   0.72698   0.00000  Uiso   1.00
O1132  O     0.92692   0.70724   0.27302   0.00000  Uiso   1.00
O1133  O     0.57307   0.79275   0.72698   0.00000  Uiso   1.00
O1134  O     0.79275   0.92692   0.27302   0.00000  Uiso   1.00
O1135  O     0.70724   0.57307   0.72698   0.00000  Uiso   1.00
O1136  O     0.57307   0.79275   0.27302   0.00000  Uiso   1.00
O1137  O     0.92692   0.70724   0.72698   0.00000  Uiso   1.00
O1138  O     0.70724   0.92692   0.72698   0.00000  Uiso   1.00
O1139  O     0.50000   0.75000   0.25000   0.00000  Uiso   1.00
O1140  O     0.79275   0.57307   0.27302   0.00000  Uiso   1.00
O1141  O     0.92692   0.79275   0.72698   0.00000  Uiso   1.00
O1142  O     0.57307   0.70724   0.27302   0.00000  Uiso   1.00
O1143  O     0.79275   0.57307   0.72698   0.00000  Uiso   1.00
O1144  O     0.70724   0.92692   0.27302   0.00000  Uiso   1.00
O1145  O     0.57307   0.70724   0.72698   0.00000  Uiso   1.00
O1146  O     0.92692   0.79275   0.27302   0.00000  Uiso   1.00
O1147  O     0.95724   0.82307   0.77302   0.00000  Uiso   1.00
O1148  O     0.54275   0.67692   0.22698   0.00000  Uiso   1.00
O1149  O     0.67692   0.95724   0.77302   0.00000  Uiso   1.00
O1150  O     0.50000   0.75000   0.75000   0.00000  Uiso   1.00
O1151  O     0.82307   0.54275   0.22698   0.00000  Uiso   1.00
O1152  O     0.54275   0.67692   0.77302   0.00000  Uiso   1.00
O1153  O     0.95724   0.82307   0.22698   0.00000  Uiso   1.00
O1154  O     0.82307   0.54275   0.77302   0.00000  Uiso   1.00
O1155  O     0.67692   0.95724   0.22698   0.00000  Uiso   1.00
O1156  O     0.95724   0.67692   0.22698   0.00000  Uiso   1.00
O1157  O     0.54275   0.82307   0.77302   0.00000  Uiso   1.00
O1158  O     0.67692   0.54275   0.22698   0.00000  Uiso   1.00
O1159  O     0.82307   0.95724   0.77302   0.00000  Uiso   1.00
O1160  O     0.54275   0.82307   0.22698   0.00000  Uiso   1.00
O1161  O     0.75000   0.96963   0.33755   0.00000  Uiso   1.00
O1162  O     0.95724   0.67692   0.77302   0.00000  Uiso   1.00
O1163  O     0.82307   0.95724   0.22698   0.00000  Uiso   1.00
O1164  O     0.67692   0.54275   0.77302   0.00000  Uiso   1.00
O1165  O     0.87374   0.72806   0.46598   0.00000  Uiso   1.00
O1166  O     0.62627   0.77190   0.53402   0.00000  Uiso   1.00
O1167  O     0.76997   0.62663   0.46629   0.00000  Uiso   1.00
O1168  O     0.77108   0.87502   0.53941   0.00000  Uiso   1.00
O1169  O     0.62606   0.72690   0.46598   0.00000  Uiso   1.00
O1170  O     0.87394   0.77308   0.53402   0.00000  Uiso   1.00
O1171  O     0.76749   0.87339   0.46228   0.00000  Uiso   1.00
O1172  O     0.75000   0.53036   0.66245   0.00000  Uiso   1.00
O1173  O     0.72429   0.62591   0.53380   0.00000  Uiso   1.00
O1174  O     0.62414   0.52226   0.96188   0.00000  Uiso   1.00
O1175  O     0.87560   0.97733   0.03846   0.00000  Uiso   1.00
O1176  O     0.98148   0.87650   0.96236   0.00000  Uiso   1.00
O1177  O     0.52697   0.62434   0.03380   0.00000  Uiso   1.00
O1178  O     0.87538   0.97697   0.96126   0.00000  Uiso   1.00
O1179  O     0.62490   0.52352   0.03908   0.00000  Uiso   1.00
O1180  O     0.98130   0.62318   0.96629   0.00000  Uiso   1.00
O1181  O     0.97773   0.87473   0.03948   0.00000  Uiso   1.00
O1182  O     0.53036   0.75000   0.33755   0.00000  Uiso   1.00
O1183  O     0.96963   0.75000   0.66245   0.00000  Uiso   1.00
O1184  O     0.75000   0.53036   0.33755   0.00000  Uiso   1.00
Zn1185 Zn    0.70659   0.50000   0.21735   0.00000  Uiso   1.00
Zn1186 Zn    0.54340   0.75000   0.28265   0.00000  Uiso   1.00
Zn1187 Zn    0.75000   0.95659   0.71735   0.00000  Uiso   1.00
Zn1188 Zn    0.75000   0.54340   0.28265   0.00000  Uiso   1.00
Zn1189 Zn    0.54340   0.75000   0.71735   0.00000  Uiso   1.00
Zn1190 Zn    0.95659   0.75000   0.28265   0.00000  Uiso   1.00
Zn1191 Zn    0.75000   0.54340   0.71735   0.00000  Uiso   1.00
Zn1192 Zn    0.75000   0.95659   0.28265   0.00000  Uiso   1.00
Zn1193 Zn    0.79340   0.50000   0.78265   0.00000  Uiso   1.00
Zn1194 Zn    0.50000   0.70659   0.21735   0.00000  Uiso   1.00
Zn1195 Zn    0.50000   0.79340   0.78265   0.00000  Uiso   1.00
Zn1196 Zn    0.79340   0.50000   0.21735   0.00000  Uiso   1.00
Zn1197 Zn    0.70659   0.50000   0.78265   0.00000  Uiso   1.00
Zn1198 Zn    0.50000   0.79340   0.21735   0.00000  Uiso   1.00
Zn1199 Zn    0.50000   0.70659   0.78265   0.00000  Uiso   1.00
Zn1200 Zn    0.95659   0.75000   0.71735   0.00000  Uiso   1.00
loop_
_geom_bond_atom_site_label_1
_geom_bond_atom_site_label_2
_geom_bond_distance
_geom_bond_site_symmetry_2
_ccdc_geom_bond_type
C1     C62     1.393   .     A
C1     C4      1.403   .     A
C1     H179    1.080   .     S
C2     C14     1.403   .     A
C2     C68     1.393   .     A
C2     H189    1.081   .     S
C3     C131    1.402   .     A
C3     C74     1.417   .     A
C3     C638    1.420   .     S
C4     C75     1.418   .     A
C4     C34     1.421   .     A
C5     C336    1.421   .     A
C5     C77     1.418   .     A
C5     C65     1.403   .     A
C6     C78     1.417   .     A
C6     C76     1.402   .     A
C6     C637    1.421   .     S
C7     C79     1.418   .     A
C7     C87     1.403   .     A
C7     C38     1.420   .     A
C8     C35     1.403   .     A
C8     C80     1.417   .     A
C8     C639    1.420   1_545 S
C9     C46     1.403   .     A
C9     C81     1.417   .     A
C9     C640    1.420   .     S
C10    C41     1.421   .     A
C10    C82     1.417   .     A
C10    C57     1.402   .     A
C11    C61     1.403   .     A
C11    C42     1.420   .     A
C11    C83     1.418   .     A
C12    C84     1.417   .     A
C12    C39     1.420   .     A
C12    C142    1.403   .     A
C13    H190    1.080   .     S
C13    C69     1.393   .     A
C13    C15     1.403   .     A
C14    C85     1.417   .     A
C14    C40     1.420   .     A
C15    C41     1.420   .     A
C15    C86     1.418   .     A
C16    C88     1.417   .     A
C16    C42     1.420   .     A
C16    C324    1.402   1_455 S
C17    C104    1.455   .     S
C17    C132    1.402   .     A
C17    C134    1.402   .     A
C18    C133    1.402   .     A
C18    C130    1.402   .     A
C18    C105    1.455   .     S
C19    C129    1.402   .     A
C19    C136    1.402   .     A
C19    C97     1.455   .     S
C20    C99     1.455   .     S
C20    C128    1.402   .     A
C20    C135    1.402   .     A
C21    C138    1.402   .     A
C21    C127    1.402   .     A
C21    C100    1.455   .     S
C22    C137    1.402   .     A
C22    C101    1.455   .     S
C22    C126    1.402   .     A
C23    C140    1.402   .     A
C23    C102    1.455   .     S
C23    C125    1.402   .     A
C24    H191    1.081   .     S
C24    C316    1.402   .     S
C24    C370    1.393   .     S
C25    C139    1.402   .     A
C25    C103    1.455   .     S
C25    C124    1.402   .     A
C26    C123    1.402   .     A
C26    C143    1.402   .     A
C26    C113    1.455   .     S
C27    C141    1.402   .     A
C27    C122    1.402   .     A
C27    C114    1.455   .     S
C28    C145    1.402   .     A
C28    C106    1.455   .     S
C28    C121    1.402   .     A
C29    C119    1.402   .     A
C29    C144    1.402   .     A
C29    C107    1.455   .     S
C30    C118    1.402   .     A
C30    C147    1.402   .     A
C30    C108    1.455   .     S
C31    C110    1.455   .     S
C31    C117    1.402   .     A
C31    C146    1.402   .     A
C32    C116    1.402   .     A
C32    C111    1.455   .     S
C32    C149    1.402   .     A
C33    C115    1.402   .     A
C33    C148    1.402   .     A
C33    C112    1.455   .     S
C34    C36     1.404   .     S
C34    C450    1.421   1_455 S
C35    H192    1.081   .     S
C35    C667    1.394   1_545 S
C36    C305    1.421   1_455 A
C36    C151    1.421   .     S
C37    C38     1.404   .     A
C37    C152    1.420   .     A
C37    C606    1.421   1_545 S
C38    C603    1.420   1_545 S
C39    C608    1.420   .     S
C39    C640    1.403   1_556 S
C40    C609    1.420   1_545 S
C40    C639    1.403   1_544 S
C41    C42     1.404   1_556 S
C42    C41     1.404   1_554 S
C43    C71     1.490   .     S
C43    O265    1.221   .     D
C43    H196    1.085   .     S
C44    C72     1.490   .     S
C44    H198    1.085   .     S
C44    O266    1.221   .     D
C45    H199    1.085   .     S
C45    C73     1.490   .     S
C45    O267    1.221   .     D
C46    H193    1.081   .     S
C46    C668    1.394   .     S
C47    C74     1.487   .     S
C47    O268    1.220   .     D
C47    H200    1.085   .     S
C48    C75     1.490   .     S
C48    H201    1.085   .     S
C48    O269    1.221   .     D
C49    O270    1.221   .     D
C49    C77     1.490   .     S
C49    H202    1.085   .     S
C50    O271    1.220   .     D
C50    H203    1.085   .     S
C50    C78     1.489   .     S
C51    H204    1.085   .     S
C51    C79     1.490   .     S
C51    O273    1.221   .     D
C52    H205    1.085   .     S
C52    C680    1.488   .     S
C52    O874    1.220   .     S
C53    H206    1.085   .     S
C53    C681    1.488   1_545 S
C53    O875    1.220   1_545 S
C54    C82     1.489   .     S
C54    H207    1.085   .     S
C54    O576    1.220   1_455 S
C55    O277    1.221   .     D
C55    C83     1.490   .     S
C55    H509    1.085   1_455 S
C56    H210    1.085   .     S
C56    C684    1.488   1_545 S
C56    O878    1.220   1_545 S
C57    C69     1.393   .     A
C57    H494    1.081   1_455 S
C58    H211    1.085   .     S
C58    C685    1.487   .     S
C58    O879    1.220   .     S
C59    H212    1.085   .     S
C59    C86     1.490   .     S
C59    O580    1.221   1_455 S
C60    C88     1.487   .     S
C60    H213    1.085   .     S
C60    O581    1.220   1_455 S
C61    C70     1.393   .     A
C61    H195    1.080   .     S
C62    C91     1.465   .     S
C62    C398    1.393   1_455 S
C63    C365    1.393   1_455 A
C63    C92     1.465   .     S
C63    C109    1.393   .     S
C64    C89     1.465   .     S
C64    C120    1.393   .     A
C64    C676    1.393   1_545 S
C65    C363    1.393   .     A
C65    H180    1.080   .     S
C66    C90     1.465   .     S
C66    C87     1.393   .     A
C66    C731    1.393   1_545 S
C67    C695    1.465   .     S
C67    C142    1.393   .     A
C67    C635    1.394   .     S
C68    C96     1.464   .     S
C68    C646    1.394   1_545 S
C69    C93     1.465   .     S
C70    C94     1.465   .     S
C70    C324    1.393   1_455 S
C71    C150    1.418   .     A
C71    C77     1.413   .     A
C72    C151    1.418   .     A
C72    C75     1.413   .     A
C73    C79     1.414   .     A
C73    C152    1.418   .     A
C74    C78     1.412   .     A
C76    H181    1.081   .     S
C76    C664    1.393   .     S
C80    C652    1.488   1_545 S
C80    C85     1.412   1_556 S
C81    C653    1.488   .     S
C81    C84     1.412   1_554 S
C82    C88     1.412   1_556 S
C83    C86     1.414   1_554 S
C84    C81     1.412   1_556 S
C84    C656    1.488   .     S
C85    C658    1.487   1_545 S
C85    C80     1.412   1_554 S
C86    C83     1.414   1_556 S
C87    H182    1.080   .     S
C88    C82     1.412   1_554 S
C89    O284    1.281   .     A
C89    O861    1.282   1_545 S
C90    O272    1.281   .     A
C90    O818    1.282   1_545 S
C91    O282    1.281   .     A
C91    O519    1.281   1_455 S
C92    O583    1.281   1_455 A
C92    O220    1.281   .     S
C93    O221    1.281   .     S
C93    O225    1.282   .     S
C94    O222    1.282   .     S
C94    O226    1.281   .     S
C95    C667    1.465   1_545 S
C95    O223    1.281   .     S
C95    O227    1.281   .     S
C96    O229    1.281   .     A
C96    O224    1.281   .     A
C97    O258    1.282   .     A
C97    O230    1.282   .     A
C98    H183    1.080   .     S
C98    C150    1.403   .     A
C98    C362    1.393   .     S
C99    O231    1.282   .     A
C99    O259    1.282   .     A
C100   O256    1.282   .     A
C100   O232    1.282   .     A
C101   O257    1.282   .     A
C101   O233    1.282   .     A
C102   O234    1.282   .     A
C102   O263    1.282   .     A
C103   O235    1.282   .     A
C103   O264    1.282   .     A
C104   O236    1.282   .     A
C104   O260    1.282   .     A
C105   O237    1.282   .     A
C105   O262    1.282   .     A
C106   O238    1.282   .     A
C106   O249    1.282   .     A
C107   O240    1.282   .     A
C107   O251    1.282   .     A
C108   O241    1.282   .     A
C108   O247    1.282   .     A
C109   C151    1.403   .     A
C109   H184    1.080   .     S
C110   O242    1.282   .     A
C110   O248    1.282   .     A
C111   O243    1.282   .     A
C111   O254    1.282   .     A
C112   O255    1.282   .     A
C112   O244    1.282   .     A
C113   O252    1.282   .     A
C113   O245    1.282   .     A
C114   O253    1.282   .     A
C114   O246    1.282   .     A
C115   H153    1.083   .     S
C115   C132    1.386   .     A
C116   C130    1.386   .     A
C116   H164    1.083   .     S
C117   C129    1.386   .     A
C117   H175    1.083   .     S
C118   H186    1.083   .     S
C118   C128    1.386   .     A
C119   C127    1.386   .     A
C119   H197    1.083   .     S
C120   H185    1.080   .     S
C120   C152    1.403   .     A
C121   H208    1.083   .     S
C121   C126    1.386   .     A
C122   C125    1.386   .     A
C122   H214    1.083   .     S
C123   C124    1.386   .     A
C123   H215    1.083   .     S
C124   H216    1.083   .     S
C125   H154    1.083   .     S
C126   H155    1.083   .     S
C127   H156    1.083   .     S
C128   H157    1.083   .     S
C129   H158    1.083   .     S
C130   H159    1.083   .     S
C131   H187    1.081   .     S
C131   C666    1.393   .     S
C132   H160    1.083   .     S
C133   C149    1.386   .     A
C133   H161    1.083   .     S
C134   H162    1.083   .     S
C134   C148    1.386   .     A
C135   H163    1.083   .     S
C135   C147    1.386   .     A
C136   C146    1.386   .     A
C136   H165    1.083   .     S
C137   H166    1.083   .     S
C137   C145    1.386   .     A
C138   H167    1.083   .     S
C138   C144    1.386   .     A
C139   C143    1.386   .     A
C139   H168    1.083   .     S
C140   C141    1.386   .     A
C140   H169    1.083   .     S
C141   H170    1.083   .     S
C142   H188    1.081   .     S
C143   H171    1.083   .     S
C144   H172    1.083   .     S
C145   H173    1.083   .     S
C146   H174    1.083   .     S
C147   H176    1.083   .     S
C148   H177    1.083   .     S
C149   H178    1.083   .     S
C150   C334    1.421   .     S
H194   C357    1.081   .     S
H209   C355    1.085   .     S
O217   Zn285   1.949   .     S
O217   Zn288   1.949   .     S
O217   Zn296   1.949   .     S
O217   Zn892   1.949   1_545 S
O218   Zn287   1.954   .     S
O218   C690    1.282   .     S
O219   Zn290   1.954   .     S
O219   C391    1.281   .     S
O220   Zn289   1.954   .     S
O221   Zn299   1.954   .     S
O222   Zn298   1.954   .     S
O223   Zn293   1.954   .     S
O224   Zn285   1.954   .     S
O225   Zn295   1.954   .     S
O226   Zn294   1.954   .     S
O227   Zn297   1.954   .     S
O228   Zn291   1.949   .     S
O228   Zn293   1.949   .     S
O228   Zn297   1.949   .     S
O228   Zn887   1.949   1_545 S
O229   Zn296   1.954   .     S
O230   Zn288   1.936   .     S
O231   Zn287   1.936   .     S
O232   Zn290   1.936   .     S
O233   Zn289   1.936   .     S
O234   Zn292   1.936   .     S
O235   Zn291   1.936   .     S
O236   Zn286   1.936   .     S
O237   Zn300   1.936   .     S
O238   Zn287   1.936   .     S
O239   Zn286   1.949   .     S
O239   Zn590   1.949   1_455 S
O239   Zn294   1.949   .     S
O239   Zn298   1.949   .     S
O240   Zn288   1.936   .     S
O241   Zn300   1.936   .     S
O242   Zn286   1.936   .     S
O243   Zn291   1.936   .     S
O244   Zn292   1.936   .     S
O245   Zn289   1.936   .     S
O246   Zn290   1.936   .     S
O247   Zn595   1.936   .     S
O248   Zn294   1.936   .     S
O249   Zn897   1.936   .     S
O250   Zn295   1.949   .     S
O250   Zn299   1.949   .     S
O250   Zn600   1.949   1_455 S
O250   Zn289   1.949   .     S
O251   Zn296   1.936   .     S
O252   Zn299   1.936   .     S
O253   Zn598   1.936   .     S
O254   Zn293   1.936   .     S
O255   Zn885   1.936   .     S
O256   Zn594   1.936   .     S
O257   Zn295   1.936   .     S
O258   Zn285   1.936   .     S
O259   Zn893   1.936   .     S
O260   Zn298   1.936   .     S
O261   Zn292   1.954   .     S
O261   C689    1.282   .     S
O262   Zn599   1.936   .     S
O263   Zn896   1.936   .     S
O264   Zn297   1.936   .     S
O272   Zn291   1.954   .     S
O274   C652    1.220   1_545 S
O275   C653    1.220   .     S
O276   C354    1.220   .     S
O278   C656    1.220   .     S
O279   C658    1.220   1_545 S
O280   C359    1.221   .     S
O281   C360    1.220   .     S
O282   Zn286   1.954   .     S
O283   C392    1.281   .     A
O283   Zn300   1.954   .     S
O284   Zn288   1.954   .     S
Zn285  O855    1.936   1_545 S
Zn287  O828    1.949   .     S
Zn290  O539    1.949   .     S
Zn292  O817    1.949   .     S
Zn293  O859    1.936   1_545 S
Zn294  O556    1.936   1_455 S
Zn295  O547    1.936   1_455 S
Zn296  O863    1.936   1_545 S
Zn297  O849    1.936   1_545 S
Zn298  O553    1.936   1_455 S
Zn299  O562    1.936   1_455 S
Zn300  O550    1.949   .     S
C301   C362    1.393   .     A
C301   C304    1.403   .     A
C301   H479    1.080   .     S
C302   C314    1.403   .     A
C302   C368    1.393   .     A
C302   H489    1.081   .     S
C303   C431    1.402   .     A
C303   C374    1.417   .     A
C303   C938    1.420   .     S
C304   C375    1.418   .     A
C304   C334    1.421   .     A
C305   C36     1.421   1_655 A
C305   C377    1.418   .     A
C305   C365    1.403   .     A
C306   C378    1.417   .     A
C306   C376    1.402   .     A
C306   C937    1.421   .     S
C307   C379    1.418   .     A
C307   C387    1.403   .     A
C307   C338    1.420   .     A
C308   C335    1.403   .     A
C308   C380    1.417   .     A
C308   C939    1.420   1_545 S
C309   C346    1.403   .     A
C309   C381    1.417   .     A
C309   C940    1.420   .     S
C310   C341    1.421   .     A
C310   C382    1.417   .     A
C310   C357    1.402   .     A
C311   C361    1.403   .     A
C311   C342    1.420   .     A
C311   C383    1.418   .     A
C312   C384    1.417   .     A
C312   C339    1.420   .     A
C312   C442    1.403   .     A
C313   H490    1.080   .     S
C313   C369    1.393   .     A
C313   C315    1.403   .     A
C314   C385    1.417   .     A
C314   C340    1.420   .     A
C315   C341    1.420   .     A
C315   C386    1.418   .     A
C316   C388    1.417   .     A
C316   C342    1.420   .     A
C317   C404    1.455   .     S
C317   C432    1.402   .     A
C317   C434    1.402   .     A
C318   C433    1.402   .     A
C318   C430    1.402   .     A
C318   C405    1.455   .     S
C319   C429    1.402   .     A
C319   C436    1.402   .     A
C319   C397    1.455   .     S
C320   C399    1.455   .     S
C320   C428    1.402   .     A
C320   C435    1.402   .     A
C321   C438    1.402   .     A
C321   C427    1.402   .     A
C321   C400    1.455   .     S
C322   C437    1.402   .     A
C322   C401    1.455   .     S
C322   C426    1.402   .     A
C323   C440    1.402   .     A
C323   C402    1.455   .     S
C323   C425    1.402   .     A
C324   H491    1.081   .     S
C324   C16     1.402   1_655 S
C324   C70     1.393   1_655 S
C325   C439    1.402   .     A
C325   C403    1.455   .     S
C325   C424    1.402   .     A
C326   C423    1.402   .     A
C326   C443    1.402   .     A
C326   C413    1.455   .     S
C327   C441    1.402   .     A
C327   C422    1.402   .     A
C327   C414    1.455   .     S
C328   C445    1.402   .     A
C328   C406    1.455   .     S
C328   C421    1.402   .     A
C329   C419    1.402   .     A
C329   C444    1.402   .     A
C329   C407    1.455   .     S
C330   C418    1.402   .     A
C330   C447    1.402   .     A
C330   C408    1.455   .     S
C331   C410    1.455   .     S
C331   C417    1.402   .     A
C331   C446    1.402   .     A
C332   C416    1.402   .     A
C332   C411    1.455   .     S
C332   C449    1.402   .     A
C333   C415    1.402   .     A
C333   C448    1.402   .     A
C333   C412    1.455   .     S
C334   C336    1.404   .     S
C335   H492    1.081   .     S
C335   C967    1.394   1_545 S
C336   C451    1.421   .     S
C337   C338    1.404   .     A
C337   C452    1.420   .     A
C337   C906    1.421   1_545 S
C338   C903    1.420   1_545 S
C339   C908    1.420   .     S
C339   C940    1.403   1_556 S
C340   C909    1.420   1_545 S
C340   C939    1.403   1_544 S
C341   C342    1.404   1_556 S
C342   C341    1.404   1_554 S
C343   C371    1.490   .     S
C343   O565    1.221   .     D
C343   H496    1.085   .     S
C344   C372    1.490   .     S
C344   H498    1.085   .     S
C344   O566    1.221   .     D
C345   H499    1.085   .     S
C345   C373    1.490   .     S
C345   O567    1.221   .     D
C346   H493    1.081   .     S
C346   C968    1.394   .     S
C347   C374    1.487   .     S
C347   O568    1.220   .     D
C347   H500    1.085   .     S
C348   C375    1.490   .     S
C348   H501    1.085   .     S
C348   O569    1.221   .     D
C349   O570    1.221   .     D
C349   C377    1.490   .     S
C349   H502    1.085   .     S
C350   O571    1.220   .     D
C350   H503    1.085   .     S
C350   C378    1.489   .     S
C351   H504    1.085   .     S
C351   C379    1.490   .     S
C351   O573    1.221   .     D
C352   H505    1.085   .     S
C352   C980    1.488   .     S
C352   O1174   1.220   .     S
C353   H506    1.085   .     S
C353   C981    1.488   1_545 S
C353   O1175   1.220   1_545 S
C354   C382    1.489   .     S
C354   H507    1.085   .     S
C355   O577    1.221   .     D
C355   C383    1.490   .     S
C356   H510    1.085   .     S
C356   C984    1.488   1_545 S
C356   O1178   1.220   1_545 S
C357   C369    1.393   .     A
C358   H511    1.085   .     S
C358   C985    1.487   .     S
C358   O1179   1.220   .     S
C359   H512    1.085   .     S
C359   C386    1.490   .     S
C360   C388    1.487   .     S
C360   H513    1.085   .     S
C361   C370    1.393   .     A
C361   H495    1.080   .     S
C362   C391    1.465   .     S
C363   C392    1.465   .     S
C363   C409    1.393   .     S
C364   C389    1.465   .     S
C364   C420    1.393   .     A
C364   C976    1.393   1_545 S
C365   C63     1.393   1_655 A
C365   H480    1.080   .     S
C366   C390    1.465   .     S
C366   C387    1.393   .     A
C366   C1031   1.393   1_545 S
C367   C995    1.465   .     S
C367   C442    1.393   .     A
C367   C935    1.394   .     S
C368   C396    1.464   .     S
C368   C946    1.394   1_545 S
C369   C393    1.465   .     S
C370   C394    1.465   .     S
C371   C450    1.418   .     A
C371   C377    1.413   .     A
C372   C451    1.418   .     A
C372   C375    1.413   .     A
C373   C379    1.414   .     A
C373   C452    1.418   .     A
C374   C378    1.412   .     A
C376   H481    1.081   .     S
C376   C964    1.393   .     S
C380   C952    1.488   1_545 S
C380   C385    1.412   1_556 S
C381   C953    1.488   .     S
C381   C384    1.412   1_554 S
C382   C388    1.412   1_556 S
C383   C386    1.414   1_554 S
C384   C381    1.412   1_556 S
C384   C956    1.488   .     S
C385   C958    1.487   1_545 S
C385   C380    1.412   1_554 S
C386   C383    1.414   1_556 S
C387   H482    1.080   .     S
C388   C382    1.412   1_554 S
C389   O584    1.281   .     A
C389   O1161   1.282   1_545 S
C390   O572    1.281   .     A
C390   O1118   1.282   1_545 S
C391   O582    1.281   .     A
C392   O520    1.281   .     S
C393   O521    1.281   .     S
C393   O525    1.282   .     S
C394   O522    1.282   .     S
C394   O526    1.281   .     S
C395   C967    1.465   1_545 S
C395   O523    1.281   .     S
C395   O527    1.281   .     S
C396   O529    1.281   .     A
C396   O524    1.281   .     A
C397   O558    1.282   .     A
C397   O530    1.282   .     A
C398   H483    1.080   .     S
C398   C450    1.403   .     A
C398   C62     1.393   1_655 S
C399   O531    1.282   .     A
C399   O559    1.282   .     A
C400   O556    1.282   .     A
C400   O532    1.282   .     A
C401   O557    1.282   .     A
C401   O533    1.282   .     A
C402   O534    1.282   .     A
C402   O563    1.282   .     A
C403   O535    1.282   .     A
C403   O564    1.282   .     A
C404   O536    1.282   .     A
C404   O560    1.282   .     A
C405   O537    1.282   .     A
C405   O562    1.282   .     A
C406   O538    1.282   .     A
C406   O549    1.282   .     A
C407   O540    1.282   .     A
C407   O551    1.282   .     A
C408   O541    1.282   .     A
C408   O547    1.282   .     A
C409   C451    1.403   .     A
C409   H484    1.080   .     S
C410   O542    1.282   .     A
C410   O548    1.282   .     A
C411   O543    1.282   .     A
C411   O554    1.282   .     A
C412   O555    1.282   .     A
C412   O544    1.282   .     A
C413   O552    1.282   .     A
C413   O545    1.282   .     A
C414   O553    1.282   .     A
C414   O546    1.282   .     A
C415   H453    1.083   .     S
C415   C432    1.386   .     A
C416   C430    1.386   .     A
C416   H464    1.083   .     S
C417   C429    1.386   .     A
C417   H475    1.083   .     S
C418   H486    1.083   .     S
C418   C428    1.386   .     A
C419   C427    1.386   .     A
C419   H497    1.083   .     S
C420   H485    1.080   .     S
C420   C452    1.403   .     A
C421   H508    1.083   .     S
C421   C426    1.386   .     A
C422   C425    1.386   .     A
C422   H514    1.083   .     S
C423   C424    1.386   .     A
C423   H515    1.083   .     S
C424   H516    1.083   .     S
C425   H454    1.083   .     S
C426   H455    1.083   .     S
C427   H456    1.083   .     S
C428   H457    1.083   .     S
C429   H458    1.083   .     S
C430   H459    1.083   .     S
C431   H487    1.081   .     S
C431   C966    1.393   .     S
C432   H460    1.083   .     S
C433   C449    1.386   .     A
C433   H461    1.083   .     S
C434   H462    1.083   .     S
C434   C448    1.386   .     A
C435   H463    1.083   .     S
C435   C447    1.386   .     A
C436   C446    1.386   .     A
C436   H465    1.083   .     S
C437   H466    1.083   .     S
C437   C445    1.386   .     A
C438   H467    1.083   .     S
C438   C444    1.386   .     A
C439   C443    1.386   .     A
C439   H468    1.083   .     S
C440   C441    1.386   .     A
C440   H469    1.083   .     S
C441   H470    1.083   .     S
C442   H488    1.081   .     S
C443   H471    1.083   .     S
C444   H472    1.083   .     S
C445   H473    1.083   .     S
C446   H474    1.083   .     S
C447   H476    1.083   .     S
C448   H477    1.083   .     S
C449   H478    1.083   .     S
C450   C34     1.421   1_655 S
H494   C57     1.081   1_655 S
H509   C55     1.085   1_655 S
O517   Zn585   1.949   .     S
O517   Zn588   1.949   .     S
O517   Zn596   1.949   .     S
O517   Zn1192  1.949   1_545 S
O518   Zn587   1.954   .     S
O518   C990    1.282   .     S
O519   Zn590   1.954   .     S
O519   C91     1.281   1_655 S
O520   Zn589   1.954   .     S
O521   Zn599   1.954   .     S
O522   Zn598   1.954   .     S
O523   Zn593   1.954   .     S
O524   Zn585   1.954   .     S
O525   Zn595   1.954   .     S
O526   Zn594   1.954   .     S
O527   Zn597   1.954   .     S
O528   Zn591   1.949   .     S
O528   Zn593   1.949   .     S
O528   Zn597   1.949   .     S
O528   Zn1187  1.949   1_545 S
O529   Zn596   1.954   .     S
O530   Zn588   1.936   .     S
O531   Zn587   1.936   .     S
O532   Zn590   1.936   .     S
O533   Zn589   1.936   .     S
O534   Zn592   1.936   .     S
O535   Zn591   1.936   .     S
O536   Zn586   1.936   .     S
O537   Zn600   1.936   .     S
O538   Zn587   1.936   .     S
O539   Zn586   1.949   .     S
O539   Zn594   1.949   .     S
O539   Zn598   1.949   .     S
O540   Zn588   1.936   .     S
O541   Zn600   1.936   .     S
O542   Zn586   1.936   .     S
O543   Zn591   1.936   .     S
O544   Zn592   1.936   .     S
O545   Zn589   1.936   .     S
O546   Zn590   1.936   .     S
O547   Zn295   1.936   1_655 S
O548   Zn594   1.936   .     S
O549   Zn1197  1.936   .     S
O550   Zn595   1.949   .     S
O550   Zn599   1.949   .     S
O550   Zn589   1.949   .     S
O551   Zn596   1.936   .     S
O552   Zn599   1.936   .     S
O553   Zn298   1.936   1_655 S
O554   Zn593   1.936   .     S
O555   Zn1185  1.936   .     S
O556   Zn294   1.936   1_655 S
O557   Zn595   1.936   .     S
O558   Zn585   1.936   .     S
O559   Zn1193  1.936   .     S
O560   Zn598   1.936   .     S
O561   Zn592   1.954   .     S
O561   C989    1.282   .     S
O562   Zn299   1.936   1_655 S
O563   Zn1196  1.936   .     S
O564   Zn597   1.936   .     S
O572   Zn591   1.954   .     S
O574   C952    1.220   1_545 S
O575   C953    1.220   .     S
O576   C54     1.220   1_655 S
O578   C956    1.220   .     S
O579   C958    1.220   1_545 S
O580   C59     1.221   1_655 S
O581   C60     1.220   1_655 S
O582   Zn586   1.954   .     S
O583   C92     1.281   1_655 A
O583   Zn600   1.954   .     S
O584   Zn588   1.954   .     S
Zn585  O1155   1.936   1_545 S
Zn587  O1128   1.949   .     S
Zn590  O239    1.949   1_655 S
Zn592  O1117   1.949   .     S
Zn593  O1159   1.936   1_545 S
Zn596  O1163   1.936   1_545 S
Zn597  O1149   1.936   1_545 S
Zn600  O250    1.949   1_655 S
C601   C662    1.393   .     A
C601   C604    1.403   .     A
C601   H779    1.080   .     S
C602   C614    1.403   .     A
C602   C668    1.393   .     A
C602   H789    1.081   .     S
C603   C731    1.402   .     A
C603   C674    1.417   .     A
C603   C38     1.420   1_565 S
C604   C675    1.418   .     A
C604   C634    1.421   .     A
C605   C936    1.421   .     A
C605   C677    1.418   .     A
C605   C665    1.403   .     A
C606   C678    1.417   .     A
C606   C676    1.402   .     A
C606   C37     1.421   1_565 S
C607   C679    1.418   .     A
C607   C687    1.403   .     A
C607   C638    1.420   .     A
C608   C635    1.403   .     A
C608   C680    1.417   .     A
C609   C646    1.403   .     A
C609   C681    1.417   .     A
C609   C40     1.420   1_565 S
C610   C641    1.421   .     A
C610   C682    1.417   .     A
C610   C657    1.402   .     A
C611   C661    1.403   .     A
C611   C642    1.420   .     A
C611   C683    1.418   .     A
C612   C684    1.417   .     A
C612   C639    1.420   .     A
C612   C742    1.403   .     A
C613   H790    1.080   .     S
C613   C669    1.393   .     A
C613   C615    1.403   .     A
C614   C685    1.417   .     A
C614   C640    1.420   .     A
C615   C641    1.420   .     A
C615   C686    1.418   .     A
C616   C688    1.417   .     A
C616   C642    1.420   .     A
C616   C924    1.402   1_455 S
C617   C704    1.455   .     S
C617   C732    1.402   .     A
C617   C734    1.402   .     A
C618   C733    1.402   .     A
C618   C730    1.402   .     A
C618   C705    1.455   .     S
C619   C729    1.402   .     A
C619   C736    1.402   .     A
C619   C697    1.455   .     S
C620   C699    1.455   .     S
C620   C728    1.402   .     A
C620   C735    1.402   .     A
C621   C738    1.402   .     A
C621   C727    1.402   .     A
C621   C700    1.455   .     S
C622   C737    1.402   .     A
C622   C701    1.455   .     S
C622   C726    1.402   .     A
C623   C740    1.402   .     A
C623   C702    1.455   .     S
C623   C725    1.402   .     A
C624   H791    1.081   .     S
C624   C916    1.402   .     S
C624   C970    1.393   .     S
C625   C739    1.402   .     A
C625   C703    1.455   .     S
C625   C724    1.402   .     A
C626   C723    1.402   .     A
C626   C743    1.402   .     A
C626   C713    1.455   .     S
C627   C741    1.402   .     A
C627   C722    1.402   .     A
C627   C714    1.455   .     S
C628   C745    1.402   .     A
C628   C706    1.455   .     S
C628   C721    1.402   .     A
C629   C719    1.402   .     A
C629   C744    1.402   .     A
C629   C707    1.455   .     S
C630   C718    1.402   .     A
C630   C747    1.402   .     A
C630   C708    1.455   .     S
C631   C710    1.455   .     S
C631   C717    1.402   .     A
C631   C746    1.402   .     A
C632   C716    1.402   .     A
C632   C711    1.455   .     S
C632   C749    1.402   .     A
C633   C715    1.402   .     A
C633   C748    1.402   .     A
C633   C712    1.455   .     S
C634   C636    1.404   .     S
C634   C1050   1.421   1_455 S
C635   H792    1.081   .     S
C636   C905    1.421   1_455 A
C636   C751    1.421   .     S
C637   C638    1.404   .     A
C637   C752    1.420   .     A
C639   C8      1.420   1_565 S
C639   C40     1.403   1_566 S
C640   C39     1.403   1_554 S
C641   C642    1.404   1_556 S
C642   C641    1.404   1_554 S
C643   C671    1.490   .     S
C643   O865    1.221   .     D
C643   H796    1.085   .     S
C644   C672    1.490   .     S
C644   H798    1.085   .     S
C644   O866    1.221   .     D
C645   H799    1.085   .     S
C645   C673    1.490   .     S
C645   O867    1.221   .     D
C646   H793    1.081   .     S
C646   C68     1.394   1_565 S
C647   C674    1.487   .     S
C647   O868    1.220   .     D
C647   H800    1.085   .     S
C648   C675    1.490   .     S
C648   H801    1.085   .     S
C648   O869    1.221   .     D
C649   O870    1.221   .     D
C649   C677    1.490   .     S
C649   H802    1.085   .     S
C650   O871    1.220   .     D
C650   H803    1.085   .     S
C650   C678    1.489   .     S
C651   H804    1.085   .     S
C651   C679    1.490   .     S
C651   O873    1.221   .     D
C652   H805    1.085   .     S
C652   C80     1.488   1_565 S
C652   O274    1.220   1_565 S
C653   H806    1.085   .     S
C654   C682    1.489   .     S
C654   H807    1.085   .     S
C654   O1176   1.220   1_455 S
C655   O877    1.221   .     D
C655   C683    1.490   .     S
C655   H1109   1.085   1_455 S
C656   H810    1.085   .     S
C657   C669    1.393   .     A
C657   H1094   1.081   1_455 S
C658   H811    1.085   .     S
C658   C85     1.487   1_565 S
C658   O279    1.220   1_565 S
C659   H812    1.085   .     S
C659   C686    1.490   .     S
C659   O1180   1.221   1_455 S
C660   C688    1.487   .     S
C660   H813    1.085   .     S
C660   O1181   1.220   1_455 S
C661   C670    1.393   .     A
C661   H795    1.080   .     S
C662   C691    1.465   .     S
C662   C998    1.393   1_455 S
C663   C965    1.393   1_455 A
C663   C692    1.465   .     S
C663   C709    1.393   .     S
C664   C689    1.465   .     S
C664   C720    1.393   .     A
C665   C963    1.393   .     A
C665   H780    1.080   .     S
C666   C690    1.465   .     S
C666   C687    1.393   .     A
C667   C95     1.465   1_565 S
C667   C742    1.393   .     A
C667   C35     1.394   1_565 S
C668   C696    1.464   .     S
C669   C693    1.465   .     S
C670   C694    1.465   .     S
C670   C924    1.393   1_455 S
C671   C750    1.418   .     A
C671   C677    1.413   .     A
C672   C751    1.418   .     A
C672   C675    1.413   .     A
C673   C679    1.414   .     A
C673   C752    1.418   .     A
C674   C678    1.412   .     A
C676   H781    1.081   .     S
C676   C64     1.393   1_565 S
C680   C685    1.412   1_556 S
C681   C53     1.488   1_565 S
C681   C684    1.412   1_554 S
C682   C688    1.412   1_556 S
C683   C686    1.414   1_554 S
C684   C681    1.412   1_556 S
C684   C56     1.488   1_565 S
C685   C680    1.412   1_554 S
C686   C683    1.414   1_556 S
C687   H782    1.080   .     S
C688   C682    1.412   1_554 S
C689   O884    1.281   .     A
C690   O872    1.281   .     A
C691   O882    1.281   .     A
C691   O1119   1.281   1_455 S
C692   O1183   1.281   1_455 A
C692   O820    1.281   .     S
C693   O821    1.281   .     S
C693   O825    1.282   .     S
C694   O822    1.282   .     S
C694   O826    1.281   .     S
C695   O823    1.281   .     S
C695   O827    1.281   .     S
C696   O829    1.281   .     A
C696   O824    1.281   .     A
C697   O858    1.282   .     A
C697   O830    1.282   .     A
C698   H783    1.080   .     S
C698   C750    1.403   .     A
C698   C962    1.393   .     S
C699   O831    1.282   .     A
C699   O859    1.282   .     A
C700   O856    1.282   .     A
C700   O832    1.282   .     A
C701   O857    1.282   .     A
C701   O833    1.282   .     A
C702   O834    1.282   .     A
C702   O863    1.282   .     A
C703   O835    1.282   .     A
C703   O864    1.282   .     A
C704   O836    1.282   .     A
C704   O860    1.282   .     A
C705   O837    1.282   .     A
C705   O862    1.282   .     A
C706   O838    1.282   .     A
C706   O849    1.282   .     A
C707   O840    1.282   .     A
C707   O851    1.282   .     A
C708   O841    1.282   .     A
C708   O847    1.282   .     A
C709   C751    1.403   .     A
C709   H784    1.080   .     S
C710   O842    1.282   .     A
C710   O848    1.282   .     A
C711   O843    1.282   .     A
C711   O854    1.282   .     A
C712   O855    1.282   .     A
C712   O844    1.282   .     A
C713   O852    1.282   .     A
C713   O845    1.282   .     A
C714   O853    1.282   .     A
C714   O846    1.282   .     A
C715   H753    1.083   .     S
C715   C732    1.386   .     A
C716   C730    1.386   .     A
C716   H764    1.083   .     S
C717   C729    1.386   .     A
C717   H775    1.083   .     S
C718   H786    1.083   .     S
C718   C728    1.386   .     A
C719   C727    1.386   .     A
C719   H797    1.083   .     S
C720   H785    1.080   .     S
C720   C752    1.403   .     A
C721   H808    1.083   .     S
C721   C726    1.386   .     A
C722   C725    1.386   .     A
C722   H814    1.083   .     S
C723   C724    1.386   .     A
C723   H815    1.083   .     S
C724   H816    1.083   .     S
C725   H754    1.083   .     S
C726   H755    1.083   .     S
C727   H756    1.083   .     S
C728   H757    1.083   .     S
C729   H758    1.083   .     S
C730   H759    1.083   .     S
C731   H787    1.081   .     S
C731   C66     1.393   1_565 S
C732   H760    1.083   .     S
C733   C749    1.386   .     A
C733   H761    1.083   .     S
C734   H762    1.083   .     S
C734   C748    1.386   .     A
C735   H763    1.083   .     S
C735   C747    1.386   .     A
C736   C746    1.386   .     A
C736   H765    1.083   .     S
C737   H766    1.083   .     S
C737   C745    1.386   .     A
C738   H767    1.083   .     S
C738   C744    1.386   .     A
C739   C743    1.386   .     A
C739   H768    1.083   .     S
C740   C741    1.386   .     A
C740   H769    1.083   .     S
C741   H770    1.083   .     S
C742   H788    1.081   .     S
C743   H771    1.083   .     S
C744   H772    1.083   .     S
C745   H773    1.083   .     S
C746   H774    1.083   .     S
C747   H776    1.083   .     S
C748   H777    1.083   .     S
C749   H778    1.083   .     S
C750   C934    1.421   .     S
H794   C957    1.081   .     S
H809   C955    1.085   .     S
O817   Zn885   1.949   .     S
O817   Zn888   1.949   .     S
O817   Zn896   1.949   .     S
O818   Zn887   1.954   .     S
O818   C90     1.282   1_565 S
O819   Zn890   1.954   .     S
O819   C991    1.281   .     S
O820   Zn889   1.954   .     S
O821   Zn899   1.954   .     S
O822   Zn898   1.954   .     S
O823   Zn893   1.954   .     S
O824   Zn885   1.954   .     S
O825   Zn895   1.954   .     S
O826   Zn894   1.954   .     S
O827   Zn897   1.954   .     S
O828   Zn891   1.949   .     S
O828   Zn893   1.949   .     S
O828   Zn897   1.949   .     S
O829   Zn896   1.954   .     S
O830   Zn888   1.936   .     S
O831   Zn887   1.936   .     S
O832   Zn890   1.936   .     S
O833   Zn889   1.936   .     S
O834   Zn892   1.936   .     S
O835   Zn891   1.936   .     S
O836   Zn886   1.936   .     S
O837   Zn900   1.936   .     S
O838   Zn887   1.936   .     S
O839   Zn886   1.949   .     S
O839   Zn1190  1.949   1_455 S
O839   Zn894   1.949   .     S
O839   Zn898   1.949   .     S
O840   Zn888   1.936   .     S
O841   Zn900   1.936   .     S
O842   Zn886   1.936   .     S
O843   Zn891   1.936   .     S
O844   Zn892   1.936   .     S
O845   Zn889   1.936   .     S
O846   Zn890   1.936   .     S
O847   Zn1195  1.936   .     S
O848   Zn894   1.936   .     S
O849   Zn297   1.936   1_565 S
O850   Zn895   1.949   .     S
O850   Zn899   1.949   .     S
O850   Zn1200  1.949   1_455 S
O850   Zn889   1.949   .     S
O851   Zn896   1.936   .     S
O852   Zn899   1.936   .     S
O853   Zn1198  1.936   .     S
O854   Zn893   1.936   .     S
O855   Zn285   1.936   1_565 S
O856   Zn1194  1.936   .     S
O857   Zn895   1.936   .     S
O858   Zn885   1.936   .     S
O859   Zn293   1.936   1_565 S
O860   Zn898   1.936   .     S
O861   Zn892   1.954   .     S
O861   C89     1.282   1_565 S
O862   Zn1199  1.936   .     S
O863   Zn296   1.936   1_565 S
O864   Zn897   1.936   .     S
O872   Zn891   1.954   .     S
O875   C53     1.220   1_565 S
O876   C954    1.220   .     S
O878   C56     1.220   1_565 S
O880   C959    1.221   .     S
O881   C960    1.220   .     S
O882   Zn886   1.954   .     S
O883   C992    1.281   .     A
O883   Zn900   1.954   .     S
O884   Zn888   1.954   .     S
Zn887  O228    1.949   1_565 S
Zn890  O1139   1.949   .     S
Zn892  O217    1.949   1_565 S
Zn894  O1156   1.936   1_455 S
Zn895  O1147   1.936   1_455 S
Zn898  O1153   1.936   1_455 S
Zn899  O1162   1.936   1_455 S
Zn900  O1150   1.949   .     S
C901   C962    1.393   .     A
C901   C904    1.403   .     A
C901   H1079   1.080   .     S
C902   C914    1.403   .     A
C902   C968    1.393   .     A
C902   H1089   1.081   .     S
C903   C1031   1.402   .     A
C903   C974    1.417   .     A
C903   C338    1.420   1_565 S
C904   C975    1.418   .     A
C904   C934    1.421   .     A
C905   C636    1.421   1_655 A
C905   C977    1.418   .     A
C905   C965    1.403   .     A
C906   C978    1.417   .     A
C906   C976    1.402   .     A
C906   C337    1.421   1_565 S
C907   C979    1.418   .     A
C907   C987    1.403   .     A
C907   C938    1.420   .     A
C908   C935    1.403   .     A
C908   C980    1.417   .     A
C909   C946    1.403   .     A
C909   C981    1.417   .     A
C909   C340    1.420   1_565 S
C910   C941    1.421   .     A
C910   C982    1.417   .     A
C910   C957    1.402   .     A
C911   C961    1.403   .     A
C911   C942    1.420   .     A
C911   C983    1.418   .     A
C912   C984    1.417   .     A
C912   C939    1.420   .     A
C912   C1042   1.403   .     A
C913   H1090   1.080   .     S
C913   C969    1.393   .     A
C913   C915    1.403   .     A
C914   C985    1.417   .     A
C914   C940    1.420   .     A
C915   C941    1.420   .     A
C915   C986    1.418   .     A
C916   C988    1.417   .     A
C916   C942    1.420   .     A
C917   C1004   1.455   .     S
C917   C1032   1.402   .     A
C917   C1034   1.402   .     A
C918   C1033   1.402   .     A
C918   C1030   1.402   .     A
C918   C1005   1.455   .     S
C919   C1029   1.402   .     A
C919   C1036   1.402   .     A
C919   C997    1.455   .     S
C920   C999    1.455   .     S
C920   C1028   1.402   .     A
C920   C1035   1.402   .     A
C921   C1038   1.402   .     A
C921   C1027   1.402   .     A
C921   C1000   1.455   .     S
C922   C1037   1.402   .     A
C922   C1001   1.455   .     S
C922   C1026   1.402   .     A
C923   C1040   1.402   .     A
C923   C1002   1.455   .     S
C923   C1025   1.402   .     A
C924   H1091   1.081   .     S
C924   C616    1.402   1_655 S
C924   C670    1.393   1_655 S
C925   C1039   1.402   .     A
C925   C1003   1.455   .     S
C925   C1024   1.402   .     A
C926   C1023   1.402   .     A
C926   C1043   1.402   .     A
C926   C1013   1.455   .     S
C927   C1041   1.402   .     A
C927   C1022   1.402   .     A
C927   C1014   1.455   .     S
C928   C1045   1.402   .     A
C928   C1006   1.455   .     S
C928   C1021   1.402   .     A
C929   C1019   1.402   .     A
C929   C1044   1.402   .     A
C929   C1007   1.455   .     S
C930   C1018   1.402   .     A
C930   C1047   1.402   .     A
C930   C1008   1.455   .     S
C931   C1010   1.455   .     S
C931   C1017   1.402   .     A
C931   C1046   1.402   .     A
C932   C1016   1.402   .     A
C932   C1011   1.455   .     S
C932   C1049   1.402   .     A
C933   C1015   1.402   .     A
C933   C1048   1.402   .     A
C933   C1012   1.455   .     S
C934   C936    1.404   .     S
C935   H1092   1.081   .     S
C936   C1051   1.421   .     S
C937   C938    1.404   .     A
C937   C1052   1.420   .     A
C939   C308    1.420   1_565 S
C939   C340    1.403   1_566 S
C940   C339    1.403   1_554 S
C941   C942    1.404   1_556 S
C942   C941    1.404   1_554 S
C943   C971    1.490   .     S
C943   O1165   1.221   .     D
C943   H1096   1.085   .     S
C944   C972    1.490   .     S
C944   H1098   1.085   .     S
C944   O1166   1.221   .     D
C945   H1099   1.085   .     S
C945   C973    1.490   .     S
C945   O1167   1.221   .     D
C946   H1093   1.081   .     S
C946   C368    1.394   1_565 S
C947   C974    1.487   .     S
C947   O1168   1.220   .     D
C947   H1100   1.085   .     S
C948   C975    1.490   .     S
C948   H1101   1.085   .     S
C948   O1169   1.221   .     D
C949   O1170   1.221   .     D
C949   C977    1.490   .     S
C949   H1102   1.085   .     S
C950   O1171   1.220   .     D
C950   H1103   1.085   .     S
C950   C978    1.489   .     S
C951   H1104   1.085   .     S
C951   C979    1.490   .     S
C951   O1173   1.221   .     D
C952   H1105   1.085   .     S
C952   C380    1.488   1_565 S
C952   O574    1.220   1_565 S
C953   H1106   1.085   .     S
C954   C982    1.489   .     S
C954   H1107   1.085   .     S
C955   O1177   1.221   .     D
C955   C983    1.490   .     S
C956   H1110   1.085   .     S
C957   C969    1.393   .     A
C958   H1111   1.085   .     S
C958   C385    1.487   1_565 S
C958   O579    1.220   1_565 S
C959   H1112   1.085   .     S
C959   C986    1.490   .     S
C960   C988    1.487   .     S
C960   H1113   1.085   .     S
C961   C970    1.393   .     A
C961   H1095   1.080   .     S
C962   C991    1.465   .     S
C963   C992    1.465   .     S
C963   C1009   1.393   .     S
C964   C989    1.465   .     S
C964   C1020   1.393   .     A
C965   C663    1.393   1_655 A
C965   H1080   1.080   .     S
C966   C990    1.465   .     S
C966   C987    1.393   .     A
C967   C395    1.465   1_565 S
C967   C1042   1.393   .     A
C967   C335    1.394   1_565 S
C968   C996    1.464   .     S
C969   C993    1.465   .     S
C970   C994    1.465   .     S
C971   C1050   1.418   .     A
C971   C977    1.413   .     A
C972   C1051   1.418   .     A
C972   C975    1.413   .     A
C973   C979    1.414   .     A
C973   C1052   1.418   .     A
C974   C978    1.412   .     A
C976   H1081   1.081   .     S
C976   C364    1.393   1_565 S
C980   C985    1.412   1_556 S
C981   C353    1.488   1_565 S
C981   C984    1.412   1_554 S
C982   C988    1.412   1_556 S
C983   C986    1.414   1_554 S
C984   C981    1.412   1_556 S
C984   C356    1.488   1_565 S
C985   C980    1.412   1_554 S
C986   C983    1.414   1_556 S
C987   H1082   1.080   .     S
C988   C982    1.412   1_554 S
C989   O1184   1.281   .     A
C990   O1172   1.281   .     A
C991   O1182   1.281   .     A
C992   O1120   1.281   .     S
C993   O1121   1.281   .     S
C993   O1125   1.282   .     S
C994   O1122   1.282   .     S
C994   O1126   1.281   .     S
C995   O1123   1.281   .     S
C995   O1127   1.281   .     S
C996   O1129   1.281   .     A
C996   O1124   1.281   .     A
C997   O1158   1.282   .     A
C997   O1130   1.282   .     A
C998   H1083   1.080   .     S
C998   C1050   1.403   .     A
C998   C662    1.393   1_655 S
C999   O1131   1.282   .     A
C999   O1159   1.282   .     A
C1000  O1156   1.282   .     A
C1000  O1132   1.282   .     A
C1001  O1157   1.282   .     A
C1001  O1133   1.282   .     A
C1002  O1134   1.282   .     A
C1002  O1163   1.282   .     A
C1003  O1135   1.282   .     A
C1003  O1164   1.282   .     A
C1004  O1136   1.282   .     A
C1004  O1160   1.282   .     A
C1005  O1137   1.282   .     A
C1005  O1162   1.282   .     A
C1006  O1138   1.282   .     A
C1006  O1149   1.282   .     A
C1007  O1140   1.282   .     A
C1007  O1151   1.282   .     A
C1008  O1141   1.282   .     A
C1008  O1147   1.282   .     A
C1009  C1051   1.403   .     A
C1009  H1084   1.080   .     S
C1010  O1142   1.282   .     A
C1010  O1148   1.282   .     A
C1011  O1143   1.282   .     A
C1011  O1154   1.282   .     A
C1012  O1155   1.282   .     A
C1012  O1144   1.282   .     A
C1013  O1152   1.282   .     A
C1013  O1145   1.282   .     A
C1014  O1153   1.282   .     A
C1014  O1146   1.282   .     A
C1015  H1053   1.083   .     S
C1015  C1032   1.386   .     A
C1016  C1030   1.386   .     A
C1016  H1064   1.083   .     S
C1017  C1029   1.386   .     A
C1017  H1075   1.083   .     S
C1018  H1086   1.083   .     S
C1018  C1028   1.386   .     A
C1019  C1027   1.386   .     A
C1019  H1097   1.083   .     S
C1020  H1085   1.080   .     S
C1020  C1052   1.403   .     A
C1021  H1108   1.083   .     S
C1021  C1026   1.386   .     A
C1022  C1025   1.386   .     A
C1022  H1114   1.083   .     S
C1023  C1024   1.386   .     A
C1023  H1115   1.083   .     S
C1024  H1116   1.083   .     S
C1025  H1054   1.083   .     S
C1026  H1055   1.083   .     S
C1027  H1056   1.083   .     S
C1028  H1057   1.083   .     S
C1029  H1058   1.083   .     S
C1030  H1059   1.083   .     S
C1031  H1087   1.081   .     S
C1031  C366    1.393   1_565 S
C1032  H1060   1.083   .     S
C1033  C1049   1.386   .     A
C1033  H1061   1.083   .     S
C1034  H1062   1.083   .     S
C1034  C1048   1.386   .     A
C1035  H1063   1.083   .     S
C1035  C1047   1.386   .     A
C1036  C1046   1.386   .     A
C1036  H1065   1.083   .     S
C1037  H1066   1.083   .     S
C1037  C1045   1.386   .     A
C1038  H1067   1.083   .     S
C1038  C1044   1.386   .     A
C1039  C1043   1.386   .     A
C1039  H1068   1.083   .     S
C1040  C1041   1.386   .     A
C1040  H1069   1.083   .     S
C1041  H1070   1.083   .     S
C1042  H1088   1.081   .     S
C1043  H1071   1.083   .     S
C1044  H1072   1.083   .     S
C1045  H1073   1.083   .     S
C1046  H1074   1.083   .     S
C1047  H1076   1.083   .     S
C1048  H1077   1.083   .     S
C1049  H1078   1.083   .     S
C1050  C634    1.421   1_655 S
H1094  C657    1.081   1_655 S
H1109  C655    1.085   1_655 S
O1117  Zn1185  1.949   .     S
O1117  Zn1188  1.949   .     S
O1117  Zn1196  1.949   .     S
O1118  Zn1187  1.954   .     S
O1118  C390    1.282   1_565 S
O1119  Zn1190  1.954   .     S
O1119  C691    1.281   1_655 S
O1120  Zn1189  1.954   .     S
O1121  Zn1199  1.954   .     S
O1122  Zn1198  1.954   .     S
O1123  Zn1193  1.954   .     S
O1124  Zn1185  1.954   .     S
O1125  Zn1195  1.954   .     S
O1126  Zn1194  1.954   .     S
O1127  Zn1197  1.954   .     S
O1128  Zn1191  1.949   .     S
O1128  Zn1193  1.949   .     S
O1128  Zn1197  1.949   .     S
O1129  Zn1196  1.954   .     S
O1130  Zn1188  1.936   .     S
O1131  Zn1187  1.936   .     S
O1132  Zn1190  1.936   .     S
O1133  Zn1189  1.936   .     S
O1134  Zn1192  1.936   .     S
O1135  Zn1191  1.936   .     S
O1136  Zn1186  1.936   .     S
O1137  Zn1200  1.936   .     S
O1138  Zn1187  1.936   .     S
O1139  Zn1186  1.949   .     S
O1139  Zn1194  1.949   .     S
O1139  Zn1198  1.949   .     S
O1140  Zn1188  1.936   .     S
O1141  Zn1200  1.936   .     S
O1142  Zn1186  1.936   .     S
O1143  Zn1191  1.936   .     S
O1144  Zn1192  1.936   .     S
O1145  Zn1189  1.936   .     S
O1146  Zn1190  1.936   .     S
O1147  Zn895   1.936   1_655 S
O1148  Zn1194  1.936   .     S
O1149  Zn597   1.936   1_565 S
O1150  Zn1195  1.949   .     S
O1150  Zn1199  1.949   .     S
O1150  Zn1189  1.949   .     S
O1151  Zn1196  1.936   .     S
O1152  Zn1199  1.936   .     S
O1153  Zn898   1.936   1_655 S
O1154  Zn1193  1.936   .     S
O1155  Zn585   1.936   1_565 S
O1156  Zn894   1.936   1_655 S
O1157  Zn1195  1.936   .     S
O1158  Zn1185  1.936   .     S
O1159  Zn593   1.936   1_565 S
O1160  Zn1198  1.936   .     S
O1161  Zn1192  1.954   .     S
O1161  C389    1.282   1_565 S
O1162  Zn899   1.936   1_655 S
O1163  Zn596   1.936   1_565 S
O1164  Zn1197  1.936   .     S
O1172  Zn1191  1.954   .     S
O1175  C353    1.220   1_565 S
O1176  C654    1.220   1_655 S
O1178  C356    1.220   1_565 S
O1180  C659    1.221   1_655 S
O1181  C660    1.220   1_655 S
O1182  Zn1186  1.954   .     S
O1183  C692    1.281   1_655 A
O1183  Zn1200  1.954   .     S
O1184  Zn1188  1.954   .     S
Zn1187 O528    1.949   1_565 S
Zn1190 O839    1.949   1_655 S
Zn1192 O517    1.949   1_565 S
Zn1200 O850    1.949   1_655 S
