data_str_m1_o1_o17_pcu_sym.145
_audit_creation_date              2020-01-03
_audit_creation_method            'Materials Studio'
_symmetry_space_group_name_H-M    'P1'
_symmetry_Int_Tables_number       1
_symmetry_cell_setting            triclinic
loop_
_symmetry_equiv_pos_as_xyz
  x,y,z
_cell_length_a                    36.6822
_cell_length_b                    36.6822
_cell_length_c                    34.3381
_cell_angle_alpha                 90.0000
_cell_angle_beta                  90.0000
_cell_angle_gamma                 90.0000
loop_
_atom_site_label
_atom_site_type_symbol
_atom_site_fract_x
_atom_site_fract_y
_atom_site_fract_z
_atom_site_U_iso_or_equiv
_atom_site_adp_type
_atom_site_occupancy
C1     C     0.49260   0.28246   0.41806   0.00000  Uiso   1.00
C2     C     0.49260   0.21754   0.58194   0.00000  Uiso   1.00
C3     C     0.21754   0.00740   0.41806   0.00000  Uiso   1.00
C4     C     0.28246   0.00740   0.58194   0.00000  Uiso   1.00
C5     C     0.00740   0.21754   0.41806   0.00000  Uiso   1.00
C6     C     0.00740   0.28246   0.58194   0.00000  Uiso   1.00
C7     C     0.28246   0.49260   0.41806   0.00000  Uiso   1.00
C8     C     0.21754   0.49260   0.58194   0.00000  Uiso   1.00
C9     C     0.25740   0.03246   0.91806   0.00000  Uiso   1.00
C10    C     0.25740   0.46754   0.08194   0.00000  Uiso   1.00
C11    C     0.46754   0.24260   0.91806   0.00000  Uiso   1.00
C12    C     0.03246   0.24260   0.08194   0.00000  Uiso   1.00
C13    C     0.24260   0.46754   0.91806   0.00000  Uiso   1.00
C14    C     0.24260   0.03246   0.08194   0.00000  Uiso   1.00
C15    C     0.03246   0.25740   0.91806   0.00000  Uiso   1.00
C16    C     0.46754   0.25740   0.08194   0.00000  Uiso   1.00
C17    C    -0.00000   0.25000   0.39805   0.00000  Uiso   1.00
C18    C    -0.00000   0.25000   0.60194   0.00000  Uiso   1.00
C19    C     0.25000   0.00000   0.39805   0.00000  Uiso   1.00
C20    C     0.25000   0.00000   0.60194   0.00000  Uiso   1.00
C21    C     0.25000   0.00000   0.89805   0.00000  Uiso   1.00
C22    C     0.25000   0.00000   0.10194   0.00000  Uiso   1.00
C23    C    -0.00000   0.25000   0.89805   0.00000  Uiso   1.00
C24    C    -0.00000   0.25000   0.10194   0.00000  Uiso   1.00
C25    C     0.49940   0.18335   0.47968   0.00000  Uiso   1.00
C26    C     0.49940   0.31665   0.52032   0.00000  Uiso   1.00
C27    C     0.31665   0.00060   0.47968   0.00000  Uiso   1.00
C28    C     0.18335   0.00060   0.52032   0.00000  Uiso   1.00
C29    C     0.00060   0.31665   0.47968   0.00000  Uiso   1.00
C30    C     0.00060   0.18335   0.52032   0.00000  Uiso   1.00
C31    C     0.18335   0.49940   0.47968   0.00000  Uiso   1.00
C32    C     0.31665   0.49940   0.52032   0.00000  Uiso   1.00
C33    C     0.25060   0.43335   0.97968   0.00000  Uiso   1.00
C34    C     0.25060   0.06665   0.02032   0.00000  Uiso   1.00
C35    C     0.06665   0.24940   0.97968   0.00000  Uiso   1.00
C36    C     0.43335   0.24940   0.02032   0.00000  Uiso   1.00
C37    C     0.24940   0.06665   0.97968   0.00000  Uiso   1.00
C38    C     0.24940   0.43335   0.02032   0.00000  Uiso   1.00
C39    C     0.43335   0.25060   0.97968   0.00000  Uiso   1.00
C40    C     0.06665   0.25060   0.02032   0.00000  Uiso   1.00
C41    C     0.25000   0.00000   0.35577   0.00000  Uiso   1.00
C42    C     0.25000   0.00000   0.64423   0.00000  Uiso   1.00
C43    C     0.00000   0.25000   0.35577   0.00000  Uiso   1.00
C44    C    -0.00000   0.25000   0.64423   0.00000  Uiso   1.00
C45    C     0.00000   0.25000   0.85577   0.00000  Uiso   1.00
C46    C    -0.00000   0.25000   0.14423   0.00000  Uiso   1.00
C47    C     0.25000   0.00000   0.85577   0.00000  Uiso   1.00
C48    C     0.25000   0.00000   0.14423   0.00000  Uiso   1.00
C49    C     0.17993   0.07007   0.25000   0.00000  Uiso   1.00
C50    C     0.32007   0.42993   0.75000   0.00000  Uiso   1.00
C51    C     0.42993   0.17993   0.25000   0.00000  Uiso   1.00
C52    C     0.07007   0.32007   0.75000   0.00000  Uiso   1.00
C53    C     0.32007   0.42993   0.25000   0.00000  Uiso   1.00
C54    C     0.17993   0.07007   0.75000   0.00000  Uiso   1.00
C55    C     0.07007   0.32007   0.25000   0.00000  Uiso   1.00
C56    C     0.42993   0.17993   0.75000   0.00000  Uiso   1.00
C57    C     0.17993   0.42993   0.75000   0.00000  Uiso   1.00
C58    C     0.32007   0.07007   0.25000   0.00000  Uiso   1.00
C59    C     0.42993   0.32007   0.75000   0.00000  Uiso   1.00
C60    C     0.07007   0.17993   0.25000   0.00000  Uiso   1.00
C61    C     0.32007   0.07007   0.75000   0.00000  Uiso   1.00
C62    C     0.17993   0.42993   0.25000   0.00000  Uiso   1.00
C63    C     0.07007   0.17993   0.75000   0.00000  Uiso   1.00
C64    C     0.42993   0.32007   0.25000   0.00000  Uiso   1.00
C65    C     0.12195   0.40477   0.22478   0.00000  Uiso   1.00
C66    C     0.37709   0.09618   0.77655   0.00000  Uiso   1.00
C67    C     0.09618   0.12291   0.22344   0.00000  Uiso   1.00
C68    C     0.40477   0.37805   0.77522   0.00000  Uiso   1.00
C69    C     0.37805   0.09523   0.22478   0.00000  Uiso   1.00
C70    C     0.12291   0.40382   0.77655   0.00000  Uiso   1.00
C71    C     0.40382   0.37709   0.22344   0.00000  Uiso   1.00
C72    C     0.09523   0.12195   0.77522   0.00000  Uiso   1.00
C73    C     0.12195   0.09523   0.77522   0.00000  Uiso   1.00
C74    C     0.37709   0.40382   0.22344   0.00000  Uiso   1.00
C75    C     0.09618   0.37709   0.77655   0.00000  Uiso   1.00
C76    C     0.40477   0.12195   0.22478   0.00000  Uiso   1.00
C77    C     0.37805   0.40477   0.77522   0.00000  Uiso   1.00
C78    C     0.12291   0.09618   0.22344   0.00000  Uiso   1.00
C79    C     0.40382   0.12291   0.77655   0.00000  Uiso   1.00
C80    C     0.09523   0.37805   0.22478   0.00000  Uiso   1.00
C81    C     0.37291   0.15382   0.72344   0.00000  Uiso   1.00
C82    C     0.12805   0.34523   0.27522   0.00000  Uiso   1.00
C83    C     0.34523   0.37195   0.72478   0.00000  Uiso   1.00
C84    C     0.15382   0.12709   0.27655   0.00000  Uiso   1.00
C85    C     0.12709   0.34618   0.72344   0.00000  Uiso   1.00
C86    C     0.37195   0.15477   0.27522   0.00000  Uiso   1.00
C87    C     0.15477   0.12805   0.72478   0.00000  Uiso   1.00
C88    C     0.34618   0.37291   0.27655   0.00000  Uiso   1.00
C89    C     0.37291   0.34618   0.27655   0.00000  Uiso   1.00
C90    C     0.12805   0.15477   0.72478   0.00000  Uiso   1.00
C91    C     0.34523   0.12805   0.27522   0.00000  Uiso   1.00
C92    C     0.15382   0.37291   0.72344   0.00000  Uiso   1.00
C93    C     0.12709   0.15382   0.27655   0.00000  Uiso   1.00
C94    C     0.37195   0.34523   0.72478   0.00000  Uiso   1.00
C95    C     0.15477   0.37195   0.27522   0.00000  Uiso   1.00
C96    C     0.34618   0.12709   0.72344   0.00000  Uiso   1.00
C97    C     0.00190   0.21644   0.45878   0.00000  Uiso   1.00
C98    C     0.00190   0.28356   0.54122   0.00000  Uiso   1.00
C99    C     0.28356   0.49810   0.45878   0.00000  Uiso   1.00
C100   C     0.21644   0.49810   0.54122   0.00000  Uiso   1.00
C101   C     0.49810   0.28356   0.45878   0.00000  Uiso   1.00
C102   C     0.49810   0.21644   0.54122   0.00000  Uiso   1.00
C103   C     0.21644   0.00190   0.45878   0.00000  Uiso   1.00
C104   C     0.28356   0.00190   0.54122   0.00000  Uiso   1.00
C105   C     0.24810   0.46644   0.95878   0.00000  Uiso   1.00
C106   C     0.24810   0.03356   0.04122   0.00000  Uiso   1.00
C107   C     0.03356   0.25190   0.95878   0.00000  Uiso   1.00
C108   C     0.46644   0.25190   0.04122   0.00000  Uiso   1.00
C109   C     0.25190   0.03356   0.95878   0.00000  Uiso   1.00
C110   C     0.25190   0.46644   0.04122   0.00000  Uiso   1.00
C111   C     0.46644   0.24810   0.95878   0.00000  Uiso   1.00
C112   C     0.03356   0.24810   0.04122   0.00000  Uiso   1.00
C113   C     0.09814   0.34814   0.25000   0.00000  Uiso   1.00
C114   C     0.40186   0.15186   0.75000   0.00000  Uiso   1.00
C115   C     0.15186   0.09814   0.25000   0.00000  Uiso   1.00
C116   C     0.34814   0.40186   0.75000   0.00000  Uiso   1.00
C117   C     0.40186   0.15186   0.25000   0.00000  Uiso   1.00
C118   C     0.09814   0.34814   0.75000   0.00000  Uiso   1.00
C119   C     0.34814   0.40186   0.25000   0.00000  Uiso   1.00
C120   C     0.15186   0.09814   0.75000   0.00000  Uiso   1.00
C121   C     0.09814   0.15186   0.75000   0.00000  Uiso   1.00
C122   C     0.40186   0.34814   0.25000   0.00000  Uiso   1.00
C123   C     0.15186   0.40186   0.75000   0.00000  Uiso   1.00
C124   C     0.34814   0.09814   0.25000   0.00000  Uiso   1.00
C125   C     0.40186   0.34814   0.75000   0.00000  Uiso   1.00
C126   C     0.09814   0.15186   0.25000   0.00000  Uiso   1.00
C127   C     0.34814   0.09814   0.75000   0.00000  Uiso   1.00
C128   C     0.15186   0.40186   0.25000   0.00000  Uiso   1.00
C129   C     0.00000   0.25000   0.47940   0.00000  Uiso   1.00
C130   C    -0.00000   0.25000   0.52060   0.00000  Uiso   1.00
C131   C     0.25000   0.00000   0.47940   0.00000  Uiso   1.00
C132   C     0.25000   0.00000   0.52060   0.00000  Uiso   1.00
C133   C     0.25000   0.00000   0.97940   0.00000  Uiso   1.00
C134   C     0.25000   0.00000   0.02060   0.00000  Uiso   1.00
C135   C    -0.00000   0.25000   0.97940   0.00000  Uiso   1.00
C136   C    -0.00000   0.25000   0.02060   0.00000  Uiso   1.00
H137   H     0.11917   0.42764   0.20505   0.00000  Uiso   1.00
H138   H     0.37909   0.07409   0.79737   0.00000  Uiso   1.00
H139   H     0.07409   0.12091   0.20262   0.00000  Uiso   1.00
H140   H     0.42764   0.38083   0.79495   0.00000  Uiso   1.00
H141   H     0.38083   0.07236   0.20505   0.00000  Uiso   1.00
H142   H     0.12090   0.42591   0.79737   0.00000  Uiso   1.00
H143   H     0.42591   0.37910   0.20262   0.00000  Uiso   1.00
H144   H     0.07236   0.11917   0.79495   0.00000  Uiso   1.00
H145   H     0.11917   0.07236   0.79495   0.00000  Uiso   1.00
H146   H     0.37909   0.42591   0.20262   0.00000  Uiso   1.00
H147   H     0.07409   0.37909   0.79737   0.00000  Uiso   1.00
H148   H     0.42764   0.11917   0.20505   0.00000  Uiso   1.00
H149   H     0.38083   0.42764   0.79495   0.00000  Uiso   1.00
H150   H     0.12090   0.07409   0.20262   0.00000  Uiso   1.00
H151   H     0.42591   0.12091   0.79737   0.00000  Uiso   1.00
H152   H     0.07236   0.38083   0.20505   0.00000  Uiso   1.00
H153   H     0.37090   0.17591   0.70262   0.00000  Uiso   1.00
H154   H     0.13083   0.32236   0.29495   0.00000  Uiso   1.00
H155   H     0.32236   0.36917   0.70505   0.00000  Uiso   1.00
H156   H     0.17591   0.12910   0.29737   0.00000  Uiso   1.00
H157   H     0.12909   0.32409   0.70262   0.00000  Uiso   1.00
H158   H     0.36917   0.17764   0.29495   0.00000  Uiso   1.00
H159   H     0.17764   0.13083   0.70505   0.00000  Uiso   1.00
H160   H     0.32409   0.37091   0.29737   0.00000  Uiso   1.00
H161   H     0.37090   0.32409   0.29737   0.00000  Uiso   1.00
H162   H     0.13083   0.17764   0.70505   0.00000  Uiso   1.00
H163   H     0.32236   0.13083   0.29495   0.00000  Uiso   1.00
H164   H     0.17591   0.37091   0.70262   0.00000  Uiso   1.00
H165   H     0.12909   0.17591   0.29737   0.00000  Uiso   1.00
H166   H     0.36917   0.32236   0.70505   0.00000  Uiso   1.00
H167   H     0.17764   0.36917   0.29495   0.00000  Uiso   1.00
H168   H     0.32409   0.12910   0.70262   0.00000  Uiso   1.00
O169   O     0.25000   0.00000   0.25000   0.00000  Uiso   1.00
O170   O     0.25000   0.00000   0.75000   0.00000  Uiso   1.00
O171   O     0.00000   0.25000   0.25000   0.00000  Uiso   1.00
O172   O     0.00000   0.25000   0.75000   0.00000  Uiso   1.00
O173   O     0.25000   0.46964   0.33755   0.00000  Uiso   1.00
O174   O     0.25000   0.03037   0.66245   0.00000  Uiso   1.00
O175   O     0.03036   0.25000   0.33755   0.00000  Uiso   1.00
O176   O     0.46963   0.25000   0.66245   0.00000  Uiso   1.00
O177   O     0.25000   0.03037   0.33755   0.00000  Uiso   1.00
O178   O     0.25000   0.46964   0.66245   0.00000  Uiso   1.00
O179   O     0.46963   0.25000   0.33755   0.00000  Uiso   1.00
O180   O     0.03036   0.25000   0.66245   0.00000  Uiso   1.00
O181   O     0.00000   0.21963   0.83755   0.00000  Uiso   1.00
O182   O     0.00000   0.28036   0.16245   0.00000  Uiso   1.00
O183   O     0.28036   0.00000   0.83755   0.00000  Uiso   1.00
O184   O     0.21963   0.00000   0.16245   0.00000  Uiso   1.00
O185   O     0.00000   0.28036   0.83755   0.00000  Uiso   1.00
O186   O     0.00000   0.21963   0.16245   0.00000  Uiso   1.00
O187   O     0.21963   0.00000   0.83755   0.00000  Uiso   1.00
O188   O     0.28036   0.00000   0.16245   0.00000  Uiso   1.00
O189   O     0.20724   0.07308   0.27302   0.00000  Uiso   1.00
O190   O     0.29275   0.42693   0.72698   0.00000  Uiso   1.00
O191   O     0.42692   0.20725   0.27302   0.00000  Uiso   1.00
O192   O     0.07307   0.29275   0.72698   0.00000  Uiso   1.00
O193   O     0.29275   0.42693   0.27302   0.00000  Uiso   1.00
O194   O     0.20724   0.07308   0.72698   0.00000  Uiso   1.00
O195   O     0.07307   0.29275   0.27302   0.00000  Uiso   1.00
O196   O     0.42692   0.20725   0.72698   0.00000  Uiso   1.00
O197   O     0.20724   0.42693   0.72698   0.00000  Uiso   1.00
O198   O     0.29275   0.07308   0.27302   0.00000  Uiso   1.00
O199   O     0.42692   0.29276   0.72698   0.00000  Uiso   1.00
O200   O     0.07307   0.20725   0.27302   0.00000  Uiso   1.00
O201   O     0.29275   0.07308   0.72698   0.00000  Uiso   1.00
O202   O     0.20724   0.42693   0.27302   0.00000  Uiso   1.00
O203   O     0.07307   0.20725   0.72698   0.00000  Uiso   1.00
O204   O     0.42692   0.29276   0.27302   0.00000  Uiso   1.00
O205   O     0.45724   0.32308   0.77302   0.00000  Uiso   1.00
O206   O     0.04275   0.17692   0.22698   0.00000  Uiso   1.00
O207   O     0.17692   0.45725   0.77302   0.00000  Uiso   1.00
O208   O     0.32307   0.04276   0.22698   0.00000  Uiso   1.00
O209   O     0.04275   0.17692   0.77302   0.00000  Uiso   1.00
O210   O     0.45724   0.32308   0.22698   0.00000  Uiso   1.00
O211   O     0.32307   0.04276   0.77302   0.00000  Uiso   1.00
O212   O     0.17692   0.45725   0.22698   0.00000  Uiso   1.00
O213   O     0.45724   0.17693   0.22698   0.00000  Uiso   1.00
O214   O     0.04275   0.32307   0.77302   0.00000  Uiso   1.00
O215   O     0.17692   0.04276   0.22698   0.00000  Uiso   1.00
O216   O     0.32307   0.45725   0.77302   0.00000  Uiso   1.00
O217   O     0.04275   0.32307   0.22698   0.00000  Uiso   1.00
O218   O     0.45724   0.17693   0.77302   0.00000  Uiso   1.00
O219   O     0.32307   0.45725   0.22698   0.00000  Uiso   1.00
O220   O     0.17692   0.04276   0.77302   0.00000  Uiso   1.00
Zn221  Zn    0.20659   0.00000   0.21735   0.00000  Uiso   1.00
Zn222  Zn    0.29340   0.00000   0.78265   0.00000  Uiso   1.00
Zn223  Zn   -0.00000   0.20660   0.21735   0.00000  Uiso   1.00
Zn224  Zn    0.00000   0.29340   0.78265   0.00000  Uiso   1.00
Zn225  Zn    0.29340   0.00000   0.21735   0.00000  Uiso   1.00
Zn226  Zn    0.20659   0.00000   0.78265   0.00000  Uiso   1.00
Zn227  Zn   -0.00000   0.29341   0.21735   0.00000  Uiso   1.00
Zn228  Zn    0.00000   0.20659   0.78265   0.00000  Uiso   1.00
Zn229  Zn    0.45659   0.25000   0.71735   0.00000  Uiso   1.00
Zn230  Zn    0.04340   0.25000   0.28265   0.00000  Uiso   1.00
Zn231  Zn    0.25000   0.45660   0.71735   0.00000  Uiso   1.00
Zn232  Zn    0.25000   0.04341   0.28265   0.00000  Uiso   1.00
Zn233  Zn    0.04340   0.25000   0.71735   0.00000  Uiso   1.00
Zn234  Zn    0.45659   0.25000   0.28265   0.00000  Uiso   1.00
Zn235  Zn    0.25000   0.04341   0.71735   0.00000  Uiso   1.00
Zn236  Zn    0.25000   0.45660   0.28265   0.00000  Uiso   1.00
Cl237  Cl    0.48667   0.14179   0.45722   0.00000  Uiso   1.00
Cl238  Cl    0.48667   0.35821   0.54277   0.00000  Uiso   1.00
Cl239  Cl    0.35821   0.01333   0.45722   0.00000  Uiso   1.00
Cl240  Cl    0.14179   0.01333   0.54277   0.00000  Uiso   1.00
Cl241  Cl    0.01333   0.35821   0.45722   0.00000  Uiso   1.00
Cl242  Cl    0.01333   0.14179   0.54277   0.00000  Uiso   1.00
Cl243  Cl    0.14179   0.48667   0.45722   0.00000  Uiso   1.00
Cl244  Cl    0.35821   0.48667   0.54277   0.00000  Uiso   1.00
Cl245  Cl    0.26333   0.39179   0.95722   0.00000  Uiso   1.00
Cl246  Cl    0.26333   0.10821   0.04277   0.00000  Uiso   1.00
Cl247  Cl    0.10821   0.23667   0.95722   0.00000  Uiso   1.00
Cl248  Cl    0.39179   0.23667   0.04277   0.00000  Uiso   1.00
Cl249  Cl    0.23667   0.10821   0.95722   0.00000  Uiso   1.00
Cl250  Cl    0.23667   0.39179   0.04277   0.00000  Uiso   1.00
Cl251  Cl    0.39179   0.26333   0.95722   0.00000  Uiso   1.00
Cl252  Cl    0.10821   0.26333   0.04277   0.00000  Uiso   1.00
I253   I     0.46644   0.32576   0.38597   0.00000  Uiso   1.00
I254   I     0.46644   0.17424   0.61403   0.00000  Uiso   1.00
I255   I     0.17424   0.03356   0.38597   0.00000  Uiso   1.00
I256   I     0.32576   0.03356   0.61403   0.00000  Uiso   1.00
I257   I     0.03356   0.17424   0.38597   0.00000  Uiso   1.00
I258   I     0.03356   0.32576   0.61403   0.00000  Uiso   1.00
I259   I     0.32576   0.46644   0.38597   0.00000  Uiso   1.00
I260   I     0.17424   0.46644   0.61403   0.00000  Uiso   1.00
I261   I     0.28355   0.07576   0.88597   0.00000  Uiso   1.00
I262   I     0.28356   0.42424   0.11403   0.00000  Uiso   1.00
I263   I     0.42424   0.21645   0.88597   0.00000  Uiso   1.00
I264   I     0.07576   0.21644   0.11403   0.00000  Uiso   1.00
I265   I     0.21644   0.42424   0.88597   0.00000  Uiso   1.00
I266   I     0.21644   0.07576   0.11403   0.00000  Uiso   1.00
I267   I     0.07576   0.28355   0.88597   0.00000  Uiso   1.00
I268   I     0.42424   0.28356   0.11403   0.00000  Uiso   1.00
C269   C     0.99260   0.28246   0.41806   0.00000  Uiso   1.00
C270   C     0.99260   0.21754   0.58194   0.00000  Uiso   1.00
C271   C     0.71754   0.00740   0.41806   0.00000  Uiso   1.00
C272   C     0.78246   0.00740   0.58194   0.00000  Uiso   1.00
C273   C     0.50740   0.21754   0.41806   0.00000  Uiso   1.00
C274   C     0.50740   0.28246   0.58194   0.00000  Uiso   1.00
C275   C     0.78246   0.49260   0.41806   0.00000  Uiso   1.00
C276   C     0.71754   0.49260   0.58194   0.00000  Uiso   1.00
C277   C     0.75740   0.03246   0.91806   0.00000  Uiso   1.00
C278   C     0.75740   0.46754   0.08194   0.00000  Uiso   1.00
C279   C     0.96754   0.24260   0.91806   0.00000  Uiso   1.00
C280   C     0.53246   0.24260   0.08194   0.00000  Uiso   1.00
C281   C     0.74260   0.46754   0.91806   0.00000  Uiso   1.00
C282   C     0.74260   0.03246   0.08194   0.00000  Uiso   1.00
C283   C     0.53246   0.25740   0.91806   0.00000  Uiso   1.00
C284   C     0.96754   0.25740   0.08194   0.00000  Uiso   1.00
C285   C     0.50000   0.25000   0.39805   0.00000  Uiso   1.00
C286   C     0.50000   0.25000   0.60194   0.00000  Uiso   1.00
C287   C     0.75000   0.00000   0.39805   0.00000  Uiso   1.00
C288   C     0.75000   0.00000   0.60194   0.00000  Uiso   1.00
C289   C     0.75000   0.00000   0.89805   0.00000  Uiso   1.00
C290   C     0.75000   0.00000   0.10194   0.00000  Uiso   1.00
C291   C     0.50000   0.25000   0.89805   0.00000  Uiso   1.00
C292   C     0.50000   0.25000   0.10194   0.00000  Uiso   1.00
C293   C     0.99940   0.18335   0.47968   0.00000  Uiso   1.00
C294   C     0.99940   0.31665   0.52032   0.00000  Uiso   1.00
C295   C     0.81665   0.00060   0.47968   0.00000  Uiso   1.00
C296   C     0.68335   0.00060   0.52032   0.00000  Uiso   1.00
C297   C     0.50060   0.31665   0.47968   0.00000  Uiso   1.00
C298   C     0.50060   0.18335   0.52032   0.00000  Uiso   1.00
C299   C     0.68335   0.49940   0.47968   0.00000  Uiso   1.00
C300   C     0.81665   0.49940   0.52032   0.00000  Uiso   1.00
C301   C     0.75060   0.43335   0.97968   0.00000  Uiso   1.00
C302   C     0.75060   0.06665   0.02032   0.00000  Uiso   1.00
C303   C     0.56665   0.24940   0.97968   0.00000  Uiso   1.00
C304   C     0.93335   0.24940   0.02032   0.00000  Uiso   1.00
C305   C     0.74940   0.06665   0.97968   0.00000  Uiso   1.00
C306   C     0.74940   0.43335   0.02032   0.00000  Uiso   1.00
C307   C     0.93335   0.25060   0.97968   0.00000  Uiso   1.00
C308   C     0.56665   0.25060   0.02032   0.00000  Uiso   1.00
C309   C     0.75000   0.00000   0.35577   0.00000  Uiso   1.00
C310   C     0.75000   0.00000   0.64423   0.00000  Uiso   1.00
C311   C     0.50000   0.25000   0.35577   0.00000  Uiso   1.00
C312   C     0.50000   0.25000   0.64423   0.00000  Uiso   1.00
C313   C     0.50000   0.25000   0.85577   0.00000  Uiso   1.00
C314   C     0.50000   0.25000   0.14423   0.00000  Uiso   1.00
C315   C     0.75000   0.00000   0.85577   0.00000  Uiso   1.00
C316   C     0.75000   0.00000   0.14423   0.00000  Uiso   1.00
C317   C     0.67993   0.07007   0.25000   0.00000  Uiso   1.00
C318   C     0.82007   0.42993   0.75000   0.00000  Uiso   1.00
C319   C     0.92993   0.17993   0.25000   0.00000  Uiso   1.00
C320   C     0.57007   0.32007   0.75000   0.00000  Uiso   1.00
C321   C     0.82007   0.42993   0.25000   0.00000  Uiso   1.00
C322   C     0.67993   0.07007   0.75000   0.00000  Uiso   1.00
C323   C     0.57007   0.32007   0.25000   0.00000  Uiso   1.00
C324   C     0.92993   0.17993   0.75000   0.00000  Uiso   1.00
C325   C     0.67993   0.42993   0.75000   0.00000  Uiso   1.00
C326   C     0.82007   0.07007   0.25000   0.00000  Uiso   1.00
C327   C     0.92993   0.32007   0.75000   0.00000  Uiso   1.00
C328   C     0.57007   0.17993   0.25000   0.00000  Uiso   1.00
C329   C     0.82007   0.07007   0.75000   0.00000  Uiso   1.00
C330   C     0.67993   0.42993   0.25000   0.00000  Uiso   1.00
C331   C     0.57007   0.17993   0.75000   0.00000  Uiso   1.00
C332   C     0.92993   0.32007   0.25000   0.00000  Uiso   1.00
C333   C     0.62195   0.40477   0.22478   0.00000  Uiso   1.00
C334   C     0.87709   0.09618   0.77655   0.00000  Uiso   1.00
C335   C     0.59618   0.12291   0.22344   0.00000  Uiso   1.00
C336   C     0.90477   0.37805   0.77522   0.00000  Uiso   1.00
C337   C     0.87805   0.09523   0.22478   0.00000  Uiso   1.00
C338   C     0.62291   0.40382   0.77655   0.00000  Uiso   1.00
C339   C     0.90382   0.37709   0.22344   0.00000  Uiso   1.00
C340   C     0.59523   0.12195   0.77522   0.00000  Uiso   1.00
C341   C     0.62195   0.09523   0.77522   0.00000  Uiso   1.00
C342   C     0.87709   0.40382   0.22344   0.00000  Uiso   1.00
C343   C     0.59618   0.37709   0.77655   0.00000  Uiso   1.00
C344   C     0.90477   0.12195   0.22478   0.00000  Uiso   1.00
C345   C     0.87805   0.40477   0.77522   0.00000  Uiso   1.00
C346   C     0.62291   0.09618   0.22344   0.00000  Uiso   1.00
C347   C     0.90382   0.12291   0.77655   0.00000  Uiso   1.00
C348   C     0.59523   0.37805   0.22478   0.00000  Uiso   1.00
C349   C     0.87291   0.15382   0.72344   0.00000  Uiso   1.00
C350   C     0.62805   0.34523   0.27522   0.00000  Uiso   1.00
C351   C     0.84523   0.37195   0.72478   0.00000  Uiso   1.00
C352   C     0.65382   0.12709   0.27655   0.00000  Uiso   1.00
C353   C     0.62709   0.34618   0.72344   0.00000  Uiso   1.00
C354   C     0.87195   0.15477   0.27522   0.00000  Uiso   1.00
C355   C     0.65477   0.12805   0.72478   0.00000  Uiso   1.00
C356   C     0.84618   0.37291   0.27655   0.00000  Uiso   1.00
C357   C     0.87291   0.34618   0.27655   0.00000  Uiso   1.00
C358   C     0.62805   0.15477   0.72478   0.00000  Uiso   1.00
C359   C     0.84523   0.12805   0.27522   0.00000  Uiso   1.00
C360   C     0.65382   0.37291   0.72344   0.00000  Uiso   1.00
C361   C     0.62709   0.15382   0.27655   0.00000  Uiso   1.00
C362   C     0.87195   0.34523   0.72478   0.00000  Uiso   1.00
C363   C     0.65477   0.37195   0.27522   0.00000  Uiso   1.00
C364   C     0.84618   0.12709   0.72344   0.00000  Uiso   1.00
C365   C     0.50190   0.21644   0.45878   0.00000  Uiso   1.00
C366   C     0.50190   0.28356   0.54122   0.00000  Uiso   1.00
C367   C     0.78356   0.49810   0.45878   0.00000  Uiso   1.00
C368   C     0.71644   0.49810   0.54122   0.00000  Uiso   1.00
C369   C     0.99810   0.28356   0.45878   0.00000  Uiso   1.00
C370   C     0.99810   0.21644   0.54122   0.00000  Uiso   1.00
C371   C     0.71644   0.00190   0.45878   0.00000  Uiso   1.00
C372   C     0.78356   0.00190   0.54122   0.00000  Uiso   1.00
C373   C     0.74810   0.46644   0.95878   0.00000  Uiso   1.00
C374   C     0.74810   0.03356   0.04122   0.00000  Uiso   1.00
C375   C     0.53356   0.25190   0.95878   0.00000  Uiso   1.00
C376   C     0.96644   0.25190   0.04122   0.00000  Uiso   1.00
C377   C     0.75190   0.03356   0.95878   0.00000  Uiso   1.00
C378   C     0.75190   0.46644   0.04122   0.00000  Uiso   1.00
C379   C     0.96644   0.24810   0.95878   0.00000  Uiso   1.00
C380   C     0.53356   0.24810   0.04122   0.00000  Uiso   1.00
C381   C     0.59814   0.34814   0.25000   0.00000  Uiso   1.00
C382   C     0.90186   0.15186   0.75000   0.00000  Uiso   1.00
C383   C     0.65186   0.09814   0.25000   0.00000  Uiso   1.00
C384   C     0.84814   0.40186   0.75000   0.00000  Uiso   1.00
C385   C     0.90186   0.15186   0.25000   0.00000  Uiso   1.00
C386   C     0.59814   0.34814   0.75000   0.00000  Uiso   1.00
C387   C     0.84814   0.40186   0.25000   0.00000  Uiso   1.00
C388   C     0.65186   0.09814   0.75000   0.00000  Uiso   1.00
C389   C     0.59814   0.15186   0.75000   0.00000  Uiso   1.00
C390   C     0.90186   0.34814   0.25000   0.00000  Uiso   1.00
C391   C     0.65186   0.40186   0.75000   0.00000  Uiso   1.00
C392   C     0.84814   0.09814   0.25000   0.00000  Uiso   1.00
C393   C     0.90186   0.34814   0.75000   0.00000  Uiso   1.00
C394   C     0.59814   0.15186   0.25000   0.00000  Uiso   1.00
C395   C     0.84814   0.09814   0.75000   0.00000  Uiso   1.00
C396   C     0.65186   0.40186   0.25000   0.00000  Uiso   1.00
C397   C     0.50000   0.25000   0.47940   0.00000  Uiso   1.00
C398   C     0.50000   0.25000   0.52060   0.00000  Uiso   1.00
C399   C     0.75000   0.00000   0.47940   0.00000  Uiso   1.00
C400   C     0.75000   0.00000   0.52060   0.00000  Uiso   1.00
C401   C     0.75000   0.00000   0.97940   0.00000  Uiso   1.00
C402   C     0.75000   0.00000   0.02060   0.00000  Uiso   1.00
C403   C     0.50000   0.25000   0.97940   0.00000  Uiso   1.00
C404   C     0.50000   0.25000   0.02060   0.00000  Uiso   1.00
H405   H     0.61917   0.42764   0.20505   0.00000  Uiso   1.00
H406   H     0.87909   0.07409   0.79737   0.00000  Uiso   1.00
H407   H     0.57409   0.12091   0.20262   0.00000  Uiso   1.00
H408   H     0.92764   0.38083   0.79495   0.00000  Uiso   1.00
H409   H     0.88083   0.07236   0.20505   0.00000  Uiso   1.00
H410   H     0.62090   0.42591   0.79737   0.00000  Uiso   1.00
H411   H     0.92591   0.37910   0.20262   0.00000  Uiso   1.00
H412   H     0.57236   0.11917   0.79495   0.00000  Uiso   1.00
H413   H     0.61917   0.07236   0.79495   0.00000  Uiso   1.00
H414   H     0.87909   0.42591   0.20262   0.00000  Uiso   1.00
H415   H     0.57409   0.37909   0.79737   0.00000  Uiso   1.00
H416   H     0.92764   0.11917   0.20505   0.00000  Uiso   1.00
H417   H     0.88083   0.42764   0.79495   0.00000  Uiso   1.00
H418   H     0.62090   0.07409   0.20262   0.00000  Uiso   1.00
H419   H     0.92591   0.12091   0.79737   0.00000  Uiso   1.00
H420   H     0.57236   0.38083   0.20505   0.00000  Uiso   1.00
H421   H     0.87090   0.17591   0.70262   0.00000  Uiso   1.00
H422   H     0.63083   0.32236   0.29495   0.00000  Uiso   1.00
H423   H     0.82236   0.36917   0.70505   0.00000  Uiso   1.00
H424   H     0.67591   0.12910   0.29737   0.00000  Uiso   1.00
H425   H     0.62909   0.32409   0.70262   0.00000  Uiso   1.00
H426   H     0.86917   0.17764   0.29495   0.00000  Uiso   1.00
H427   H     0.67764   0.13083   0.70505   0.00000  Uiso   1.00
H428   H     0.82409   0.37091   0.29737   0.00000  Uiso   1.00
H429   H     0.87090   0.32409   0.29737   0.00000  Uiso   1.00
H430   H     0.63083   0.17764   0.70505   0.00000  Uiso   1.00
H431   H     0.82236   0.13083   0.29495   0.00000  Uiso   1.00
H432   H     0.67591   0.37091   0.70262   0.00000  Uiso   1.00
H433   H     0.62909   0.17591   0.29737   0.00000  Uiso   1.00
H434   H     0.86917   0.32236   0.70505   0.00000  Uiso   1.00
H435   H     0.67764   0.36917   0.29495   0.00000  Uiso   1.00
H436   H     0.82409   0.12910   0.70262   0.00000  Uiso   1.00
O437   O     0.75000   0.00000   0.25000   0.00000  Uiso   1.00
O438   O     0.75000   0.00000   0.75000   0.00000  Uiso   1.00
O439   O     0.50000   0.25000   0.25000   0.00000  Uiso   1.00
O440   O     0.50000   0.25000   0.75000   0.00000  Uiso   1.00
O441   O     0.75000   0.46964   0.33755   0.00000  Uiso   1.00
O442   O     0.75000   0.03037   0.66245   0.00000  Uiso   1.00
O443   O     0.53036   0.25000   0.33755   0.00000  Uiso   1.00
O444   O     0.96963   0.25000   0.66245   0.00000  Uiso   1.00
O445   O     0.75000   0.03037   0.33755   0.00000  Uiso   1.00
O446   O     0.75000   0.46964   0.66245   0.00000  Uiso   1.00
O447   O     0.96963   0.25000   0.33755   0.00000  Uiso   1.00
O448   O     0.53036   0.25000   0.66245   0.00000  Uiso   1.00
O449   O     0.50000   0.21963   0.83755   0.00000  Uiso   1.00
O450   O     0.50000   0.28036   0.16245   0.00000  Uiso   1.00
O451   O     0.78036   0.00000   0.83755   0.00000  Uiso   1.00
O452   O     0.71963   0.00000   0.16245   0.00000  Uiso   1.00
O453   O     0.50000   0.28036   0.83755   0.00000  Uiso   1.00
O454   O     0.50000   0.21963   0.16245   0.00000  Uiso   1.00
O455   O     0.71963   0.00000   0.83755   0.00000  Uiso   1.00
O456   O     0.78036   0.00000   0.16245   0.00000  Uiso   1.00
O457   O     0.70724   0.07308   0.27302   0.00000  Uiso   1.00
O458   O     0.79275   0.42693   0.72698   0.00000  Uiso   1.00
O459   O     0.92692   0.20725   0.27302   0.00000  Uiso   1.00
O460   O     0.57307   0.29275   0.72698   0.00000  Uiso   1.00
O461   O     0.79275   0.42693   0.27302   0.00000  Uiso   1.00
O462   O     0.70724   0.07308   0.72698   0.00000  Uiso   1.00
O463   O     0.57307   0.29275   0.27302   0.00000  Uiso   1.00
O464   O     0.92692   0.20725   0.72698   0.00000  Uiso   1.00
O465   O     0.70724   0.42693   0.72698   0.00000  Uiso   1.00
O466   O     0.79275   0.07308   0.27302   0.00000  Uiso   1.00
O467   O     0.92692   0.29276   0.72698   0.00000  Uiso   1.00
O468   O     0.57307   0.20725   0.27302   0.00000  Uiso   1.00
O469   O     0.79275   0.07308   0.72698   0.00000  Uiso   1.00
O470   O     0.70724   0.42693   0.27302   0.00000  Uiso   1.00
O471   O     0.57307   0.20725   0.72698   0.00000  Uiso   1.00
O472   O     0.92692   0.29276   0.27302   0.00000  Uiso   1.00
O473   O     0.95724   0.32308   0.77302   0.00000  Uiso   1.00
O474   O     0.54275   0.17692   0.22698   0.00000  Uiso   1.00
O475   O     0.67692   0.45725   0.77302   0.00000  Uiso   1.00
O476   O     0.82307   0.04276   0.22698   0.00000  Uiso   1.00
O477   O     0.54275   0.17692   0.77302   0.00000  Uiso   1.00
O478   O     0.95724   0.32308   0.22698   0.00000  Uiso   1.00
O479   O     0.82307   0.04276   0.77302   0.00000  Uiso   1.00
O480   O     0.67692   0.45725   0.22698   0.00000  Uiso   1.00
O481   O     0.95724   0.17693   0.22698   0.00000  Uiso   1.00
O482   O     0.54275   0.32307   0.77302   0.00000  Uiso   1.00
O483   O     0.67692   0.04276   0.22698   0.00000  Uiso   1.00
O484   O     0.82307   0.45725   0.77302   0.00000  Uiso   1.00
O485   O     0.54275   0.32307   0.22698   0.00000  Uiso   1.00
O486   O     0.95724   0.17693   0.77302   0.00000  Uiso   1.00
O487   O     0.82307   0.45725   0.22698   0.00000  Uiso   1.00
O488   O     0.67692   0.04276   0.77302   0.00000  Uiso   1.00
Zn489  Zn    0.70659   0.00000   0.21735   0.00000  Uiso   1.00
Zn490  Zn    0.79340   0.00000   0.78265   0.00000  Uiso   1.00
Zn491  Zn    0.50000   0.20660   0.21735   0.00000  Uiso   1.00
Zn492  Zn    0.50000   0.29340   0.78265   0.00000  Uiso   1.00
Zn493  Zn    0.79340   0.00000   0.21735   0.00000  Uiso   1.00
Zn494  Zn    0.70659   0.00000   0.78265   0.00000  Uiso   1.00
Zn495  Zn    0.50000   0.29341   0.21735   0.00000  Uiso   1.00
Zn496  Zn    0.50000   0.20659   0.78265   0.00000  Uiso   1.00
Zn497  Zn    0.95659   0.25000   0.71735   0.00000  Uiso   1.00
Zn498  Zn    0.54340   0.25000   0.28265   0.00000  Uiso   1.00
Zn499  Zn    0.75000   0.45660   0.71735   0.00000  Uiso   1.00
Zn500  Zn    0.75000   0.04341   0.28265   0.00000  Uiso   1.00
Zn501  Zn    0.54340   0.25000   0.71735   0.00000  Uiso   1.00
Zn502  Zn    0.95659   0.25000   0.28265   0.00000  Uiso   1.00
Zn503  Zn    0.75000   0.04341   0.71735   0.00000  Uiso   1.00
Zn504  Zn    0.75000   0.45660   0.28265   0.00000  Uiso   1.00
Cl505  Cl    0.98667   0.14179   0.45722   0.00000  Uiso   1.00
Cl506  Cl    0.98667   0.35821   0.54277   0.00000  Uiso   1.00
Cl507  Cl    0.85821   0.01333   0.45722   0.00000  Uiso   1.00
Cl508  Cl    0.64179   0.01333   0.54277   0.00000  Uiso   1.00
Cl509  Cl    0.51333   0.35821   0.45722   0.00000  Uiso   1.00
Cl510  Cl    0.51333   0.14179   0.54277   0.00000  Uiso   1.00
Cl511  Cl    0.64179   0.48667   0.45722   0.00000  Uiso   1.00
Cl512  Cl    0.85821   0.48667   0.54277   0.00000  Uiso   1.00
Cl513  Cl    0.76333   0.39179   0.95722   0.00000  Uiso   1.00
Cl514  Cl    0.76333   0.10821   0.04277   0.00000  Uiso   1.00
Cl515  Cl    0.60821   0.23667   0.95722   0.00000  Uiso   1.00
Cl516  Cl    0.89179   0.23667   0.04277   0.00000  Uiso   1.00
Cl517  Cl    0.73667   0.10821   0.95722   0.00000  Uiso   1.00
Cl518  Cl    0.73667   0.39179   0.04277   0.00000  Uiso   1.00
Cl519  Cl    0.89179   0.26333   0.95722   0.00000  Uiso   1.00
Cl520  Cl    0.60821   0.26333   0.04277   0.00000  Uiso   1.00
I521   I     0.96644   0.32576   0.38597   0.00000  Uiso   1.00
I522   I     0.96644   0.17424   0.61403   0.00000  Uiso   1.00
I523   I     0.67424   0.03356   0.38597   0.00000  Uiso   1.00
I524   I     0.82576   0.03356   0.61403   0.00000  Uiso   1.00
I525   I     0.53356   0.17424   0.38597   0.00000  Uiso   1.00
I526   I     0.53356   0.32576   0.61403   0.00000  Uiso   1.00
I527   I     0.82576   0.46644   0.38597   0.00000  Uiso   1.00
I528   I     0.67424   0.46644   0.61403   0.00000  Uiso   1.00
I529   I     0.78355   0.07576   0.88597   0.00000  Uiso   1.00
I530   I     0.78356   0.42424   0.11403   0.00000  Uiso   1.00
I531   I     0.92424   0.21645   0.88597   0.00000  Uiso   1.00
I532   I     0.57576   0.21644   0.11403   0.00000  Uiso   1.00
I533   I     0.71644   0.42424   0.88597   0.00000  Uiso   1.00
I534   I     0.71644   0.07576   0.11403   0.00000  Uiso   1.00
I535   I     0.57576   0.28355   0.88597   0.00000  Uiso   1.00
I536   I     0.92424   0.28356   0.11403   0.00000  Uiso   1.00
C537   C     0.49260   0.78246   0.41806   0.00000  Uiso   1.00
C538   C     0.49260   0.71754   0.58194   0.00000  Uiso   1.00
C539   C     0.21754   0.50740   0.41806   0.00000  Uiso   1.00
C540   C     0.28246   0.50740   0.58194   0.00000  Uiso   1.00
C541   C     0.00740   0.71754   0.41806   0.00000  Uiso   1.00
C542   C     0.00740   0.78246   0.58194   0.00000  Uiso   1.00
C543   C     0.28246   0.99260   0.41806   0.00000  Uiso   1.00
C544   C     0.21754   0.99260   0.58194   0.00000  Uiso   1.00
C545   C     0.25740   0.53246   0.91806   0.00000  Uiso   1.00
C546   C     0.25740   0.96754   0.08194   0.00000  Uiso   1.00
C547   C     0.46754   0.74260   0.91806   0.00000  Uiso   1.00
C548   C     0.03246   0.74260   0.08194   0.00000  Uiso   1.00
C549   C     0.24260   0.96754   0.91806   0.00000  Uiso   1.00
C550   C     0.24260   0.53246   0.08194   0.00000  Uiso   1.00
C551   C     0.03246   0.75740   0.91806   0.00000  Uiso   1.00
C552   C     0.46754   0.75740   0.08194   0.00000  Uiso   1.00
C553   C    -0.00000   0.75000   0.39805   0.00000  Uiso   1.00
C554   C    -0.00000   0.75000   0.60194   0.00000  Uiso   1.00
C555   C     0.25000   0.50000   0.39805   0.00000  Uiso   1.00
C556   C     0.25000   0.50000   0.60194   0.00000  Uiso   1.00
C557   C     0.25000   0.50000   0.89805   0.00000  Uiso   1.00
C558   C     0.25000   0.50000   0.10194   0.00000  Uiso   1.00
C559   C    -0.00000   0.75000   0.89805   0.00000  Uiso   1.00
C560   C    -0.00000   0.75000   0.10194   0.00000  Uiso   1.00
C561   C     0.49940   0.68335   0.47968   0.00000  Uiso   1.00
C562   C     0.49940   0.81665   0.52032   0.00000  Uiso   1.00
C563   C     0.31665   0.50060   0.47968   0.00000  Uiso   1.00
C564   C     0.18335   0.50060   0.52032   0.00000  Uiso   1.00
C565   C     0.00060   0.81665   0.47968   0.00000  Uiso   1.00
C566   C     0.00060   0.68335   0.52032   0.00000  Uiso   1.00
C567   C     0.18335   0.99940   0.47968   0.00000  Uiso   1.00
C568   C     0.31665   0.99940   0.52032   0.00000  Uiso   1.00
C569   C     0.25060   0.93335   0.97968   0.00000  Uiso   1.00
C570   C     0.25060   0.56665   0.02032   0.00000  Uiso   1.00
C571   C     0.06665   0.74940   0.97968   0.00000  Uiso   1.00
C572   C     0.43335   0.74940   0.02032   0.00000  Uiso   1.00
C573   C     0.24940   0.56665   0.97968   0.00000  Uiso   1.00
C574   C     0.24940   0.93335   0.02032   0.00000  Uiso   1.00
C575   C     0.43335   0.75060   0.97968   0.00000  Uiso   1.00
C576   C     0.06665   0.75060   0.02032   0.00000  Uiso   1.00
C577   C     0.25000   0.50000   0.35577   0.00000  Uiso   1.00
C578   C     0.25000   0.50000   0.64423   0.00000  Uiso   1.00
C579   C     0.00000   0.75000   0.35577   0.00000  Uiso   1.00
C580   C    -0.00000   0.75000   0.64423   0.00000  Uiso   1.00
C581   C     0.00000   0.75000   0.85577   0.00000  Uiso   1.00
C582   C    -0.00000   0.75000   0.14423   0.00000  Uiso   1.00
C583   C     0.25000   0.50000   0.85577   0.00000  Uiso   1.00
C584   C     0.25000   0.50000   0.14423   0.00000  Uiso   1.00
C585   C     0.17993   0.57007   0.25000   0.00000  Uiso   1.00
C586   C     0.32007   0.92993   0.75000   0.00000  Uiso   1.00
C587   C     0.42993   0.67993   0.25000   0.00000  Uiso   1.00
C588   C     0.07007   0.82007   0.75000   0.00000  Uiso   1.00
C589   C     0.32007   0.92993   0.25000   0.00000  Uiso   1.00
C590   C     0.17993   0.57007   0.75000   0.00000  Uiso   1.00
C591   C     0.07007   0.82007   0.25000   0.00000  Uiso   1.00
C592   C     0.42993   0.67993   0.75000   0.00000  Uiso   1.00
C593   C     0.17993   0.92993   0.75000   0.00000  Uiso   1.00
C594   C     0.32007   0.57007   0.25000   0.00000  Uiso   1.00
C595   C     0.42993   0.82007   0.75000   0.00000  Uiso   1.00
C596   C     0.07007   0.67993   0.25000   0.00000  Uiso   1.00
C597   C     0.32007   0.57007   0.75000   0.00000  Uiso   1.00
C598   C     0.17993   0.92993   0.25000   0.00000  Uiso   1.00
C599   C     0.07007   0.67993   0.75000   0.00000  Uiso   1.00
C600   C     0.42993   0.82007   0.25000   0.00000  Uiso   1.00
C601   C     0.12195   0.90477   0.22478   0.00000  Uiso   1.00
C602   C     0.37709   0.59618   0.77655   0.00000  Uiso   1.00
C603   C     0.09618   0.62291   0.22344   0.00000  Uiso   1.00
C604   C     0.40477   0.87805   0.77522   0.00000  Uiso   1.00
C605   C     0.37805   0.59523   0.22478   0.00000  Uiso   1.00
C606   C     0.12291   0.90382   0.77655   0.00000  Uiso   1.00
C607   C     0.40382   0.87709   0.22344   0.00000  Uiso   1.00
C608   C     0.09523   0.62195   0.77522   0.00000  Uiso   1.00
C609   C     0.12195   0.59523   0.77522   0.00000  Uiso   1.00
C610   C     0.37709   0.90382   0.22344   0.00000  Uiso   1.00
C611   C     0.09618   0.87709   0.77655   0.00000  Uiso   1.00
C612   C     0.40477   0.62195   0.22478   0.00000  Uiso   1.00
C613   C     0.37805   0.90477   0.77522   0.00000  Uiso   1.00
C614   C     0.12291   0.59618   0.22344   0.00000  Uiso   1.00
C615   C     0.40382   0.62291   0.77655   0.00000  Uiso   1.00
C616   C     0.09523   0.87805   0.22478   0.00000  Uiso   1.00
C617   C     0.37291   0.65382   0.72344   0.00000  Uiso   1.00
C618   C     0.12805   0.84523   0.27522   0.00000  Uiso   1.00
C619   C     0.34523   0.87195   0.72478   0.00000  Uiso   1.00
C620   C     0.15382   0.62709   0.27655   0.00000  Uiso   1.00
C621   C     0.12709   0.84618   0.72344   0.00000  Uiso   1.00
C622   C     0.37195   0.65477   0.27522   0.00000  Uiso   1.00
C623   C     0.15477   0.62805   0.72478   0.00000  Uiso   1.00
C624   C     0.34618   0.87291   0.27655   0.00000  Uiso   1.00
C625   C     0.37291   0.84618   0.27655   0.00000  Uiso   1.00
C626   C     0.12805   0.65477   0.72478   0.00000  Uiso   1.00
C627   C     0.34523   0.62805   0.27522   0.00000  Uiso   1.00
C628   C     0.15382   0.87291   0.72344   0.00000  Uiso   1.00
C629   C     0.12709   0.65382   0.27655   0.00000  Uiso   1.00
C630   C     0.37195   0.84523   0.72478   0.00000  Uiso   1.00
C631   C     0.15477   0.87195   0.27522   0.00000  Uiso   1.00
C632   C     0.34618   0.62709   0.72344   0.00000  Uiso   1.00
C633   C     0.00190   0.71644   0.45878   0.00000  Uiso   1.00
C634   C     0.00190   0.78356   0.54122   0.00000  Uiso   1.00
C635   C     0.28356   0.99810   0.45878   0.00000  Uiso   1.00
C636   C     0.21644   0.99810   0.54122   0.00000  Uiso   1.00
C637   C     0.49810   0.78356   0.45878   0.00000  Uiso   1.00
C638   C     0.49810   0.71644   0.54122   0.00000  Uiso   1.00
C639   C     0.21644   0.50190   0.45878   0.00000  Uiso   1.00
C640   C     0.28356   0.50190   0.54122   0.00000  Uiso   1.00
C641   C     0.24810   0.96644   0.95878   0.00000  Uiso   1.00
C642   C     0.24810   0.53356   0.04122   0.00000  Uiso   1.00
C643   C     0.03356   0.75190   0.95878   0.00000  Uiso   1.00
C644   C     0.46644   0.75190   0.04122   0.00000  Uiso   1.00
C645   C     0.25190   0.53356   0.95878   0.00000  Uiso   1.00
C646   C     0.25190   0.96644   0.04122   0.00000  Uiso   1.00
C647   C     0.46644   0.74810   0.95878   0.00000  Uiso   1.00
C648   C     0.03356   0.74810   0.04122   0.00000  Uiso   1.00
C649   C     0.09814   0.84814   0.25000   0.00000  Uiso   1.00
C650   C     0.40186   0.65186   0.75000   0.00000  Uiso   1.00
C651   C     0.15186   0.59814   0.25000   0.00000  Uiso   1.00
C652   C     0.34814   0.90186   0.75000   0.00000  Uiso   1.00
C653   C     0.40186   0.65186   0.25000   0.00000  Uiso   1.00
C654   C     0.09814   0.84814   0.75000   0.00000  Uiso   1.00
C655   C     0.34814   0.90186   0.25000   0.00000  Uiso   1.00
C656   C     0.15186   0.59814   0.75000   0.00000  Uiso   1.00
C657   C     0.09814   0.65186   0.75000   0.00000  Uiso   1.00
C658   C     0.40186   0.84814   0.25000   0.00000  Uiso   1.00
C659   C     0.15186   0.90186   0.75000   0.00000  Uiso   1.00
C660   C     0.34814   0.59814   0.25000   0.00000  Uiso   1.00
C661   C     0.40186   0.84814   0.75000   0.00000  Uiso   1.00
C662   C     0.09814   0.65186   0.25000   0.00000  Uiso   1.00
C663   C     0.34814   0.59814   0.75000   0.00000  Uiso   1.00
C664   C     0.15186   0.90186   0.25000   0.00000  Uiso   1.00
C665   C     0.00000   0.75000   0.47940   0.00000  Uiso   1.00
C666   C    -0.00000   0.75000   0.52060   0.00000  Uiso   1.00
C667   C     0.25000   0.50000   0.47940   0.00000  Uiso   1.00
C668   C     0.25000   0.50000   0.52060   0.00000  Uiso   1.00
C669   C     0.25000   0.50000   0.97940   0.00000  Uiso   1.00
C670   C     0.25000   0.50000   0.02060   0.00000  Uiso   1.00
C671   C    -0.00000   0.75000   0.97940   0.00000  Uiso   1.00
C672   C    -0.00000   0.75000   0.02060   0.00000  Uiso   1.00
H673   H     0.11917   0.92764   0.20505   0.00000  Uiso   1.00
H674   H     0.37909   0.57409   0.79737   0.00000  Uiso   1.00
H675   H     0.07409   0.62091   0.20262   0.00000  Uiso   1.00
H676   H     0.42764   0.88083   0.79495   0.00000  Uiso   1.00
H677   H     0.38083   0.57236   0.20505   0.00000  Uiso   1.00
H678   H     0.12090   0.92591   0.79737   0.00000  Uiso   1.00
H679   H     0.42591   0.87910   0.20262   0.00000  Uiso   1.00
H680   H     0.07236   0.61917   0.79495   0.00000  Uiso   1.00
H681   H     0.11917   0.57236   0.79495   0.00000  Uiso   1.00
H682   H     0.37909   0.92591   0.20262   0.00000  Uiso   1.00
H683   H     0.07409   0.87909   0.79737   0.00000  Uiso   1.00
H684   H     0.42764   0.61917   0.20505   0.00000  Uiso   1.00
H685   H     0.38083   0.92764   0.79495   0.00000  Uiso   1.00
H686   H     0.12090   0.57409   0.20262   0.00000  Uiso   1.00
H687   H     0.42591   0.62091   0.79737   0.00000  Uiso   1.00
H688   H     0.07236   0.88083   0.20505   0.00000  Uiso   1.00
H689   H     0.37090   0.67591   0.70262   0.00000  Uiso   1.00
H690   H     0.13083   0.82236   0.29495   0.00000  Uiso   1.00
H691   H     0.32236   0.86917   0.70505   0.00000  Uiso   1.00
H692   H     0.17591   0.62910   0.29737   0.00000  Uiso   1.00
H693   H     0.12909   0.82409   0.70262   0.00000  Uiso   1.00
H694   H     0.36917   0.67764   0.29495   0.00000  Uiso   1.00
H695   H     0.17764   0.63083   0.70505   0.00000  Uiso   1.00
H696   H     0.32409   0.87091   0.29737   0.00000  Uiso   1.00
H697   H     0.37090   0.82409   0.29737   0.00000  Uiso   1.00
H698   H     0.13083   0.67764   0.70505   0.00000  Uiso   1.00
H699   H     0.32236   0.63083   0.29495   0.00000  Uiso   1.00
H700   H     0.17591   0.87091   0.70262   0.00000  Uiso   1.00
H701   H     0.12909   0.67591   0.29737   0.00000  Uiso   1.00
H702   H     0.36917   0.82236   0.70505   0.00000  Uiso   1.00
H703   H     0.17764   0.86917   0.29495   0.00000  Uiso   1.00
H704   H     0.32409   0.62910   0.70262   0.00000  Uiso   1.00
O705   O     0.25000   0.50000   0.25000   0.00000  Uiso   1.00
O706   O     0.25000   0.50000   0.75000   0.00000  Uiso   1.00
O707   O     0.00000   0.75000   0.25000   0.00000  Uiso   1.00
O708   O     0.00000   0.75000   0.75000   0.00000  Uiso   1.00
O709   O     0.25000   0.96964   0.33755   0.00000  Uiso   1.00
O710   O     0.25000   0.53037   0.66245   0.00000  Uiso   1.00
O711   O     0.03036   0.75000   0.33755   0.00000  Uiso   1.00
O712   O     0.46963   0.75000   0.66245   0.00000  Uiso   1.00
O713   O     0.25000   0.53037   0.33755   0.00000  Uiso   1.00
O714   O     0.25000   0.96964   0.66245   0.00000  Uiso   1.00
O715   O     0.46963   0.75000   0.33755   0.00000  Uiso   1.00
O716   O     0.03036   0.75000   0.66245   0.00000  Uiso   1.00
O717   O     0.00000   0.71963   0.83755   0.00000  Uiso   1.00
O718   O     0.00000   0.78036   0.16245   0.00000  Uiso   1.00
O719   O     0.28036   0.50000   0.83755   0.00000  Uiso   1.00
O720   O     0.21963   0.50000   0.16245   0.00000  Uiso   1.00
O721   O     0.00000   0.78036   0.83755   0.00000  Uiso   1.00
O722   O     0.00000   0.71963   0.16245   0.00000  Uiso   1.00
O723   O     0.21963   0.50000   0.83755   0.00000  Uiso   1.00
O724   O     0.28036   0.50000   0.16245   0.00000  Uiso   1.00
O725   O     0.20724   0.57308   0.27302   0.00000  Uiso   1.00
O726   O     0.29275   0.92693   0.72698   0.00000  Uiso   1.00
O727   O     0.42692   0.70725   0.27302   0.00000  Uiso   1.00
O728   O     0.07307   0.79275   0.72698   0.00000  Uiso   1.00
O729   O     0.29275   0.92693   0.27302   0.00000  Uiso   1.00
O730   O     0.20724   0.57308   0.72698   0.00000  Uiso   1.00
O731   O     0.07307   0.79275   0.27302   0.00000  Uiso   1.00
O732   O     0.42692   0.70725   0.72698   0.00000  Uiso   1.00
O733   O     0.20724   0.92693   0.72698   0.00000  Uiso   1.00
O734   O     0.29275   0.57308   0.27302   0.00000  Uiso   1.00
O735   O     0.42692   0.79276   0.72698   0.00000  Uiso   1.00
O736   O     0.07307   0.70725   0.27302   0.00000  Uiso   1.00
O737   O     0.29275   0.57308   0.72698   0.00000  Uiso   1.00
O738   O     0.20724   0.92693   0.27302   0.00000  Uiso   1.00
O739   O     0.07307   0.70725   0.72698   0.00000  Uiso   1.00
O740   O     0.42692   0.79276   0.27302   0.00000  Uiso   1.00
O741   O     0.45724   0.82308   0.77302   0.00000  Uiso   1.00
O742   O     0.04275   0.67692   0.22698   0.00000  Uiso   1.00
O743   O     0.17692   0.95725   0.77302   0.00000  Uiso   1.00
O744   O     0.32307   0.54276   0.22698   0.00000  Uiso   1.00
O745   O     0.04275   0.67692   0.77302   0.00000  Uiso   1.00
O746   O     0.45724   0.82308   0.22698   0.00000  Uiso   1.00
O747   O     0.32307   0.54276   0.77302   0.00000  Uiso   1.00
O748   O     0.17692   0.95725   0.22698   0.00000  Uiso   1.00
O749   O     0.45724   0.67693   0.22698   0.00000  Uiso   1.00
O750   O     0.04275   0.82307   0.77302   0.00000  Uiso   1.00
O751   O     0.17692   0.54276   0.22698   0.00000  Uiso   1.00
O752   O     0.32307   0.95725   0.77302   0.00000  Uiso   1.00
O753   O     0.04275   0.82307   0.22698   0.00000  Uiso   1.00
O754   O     0.45724   0.67693   0.77302   0.00000  Uiso   1.00
O755   O     0.32307   0.95725   0.22698   0.00000  Uiso   1.00
O756   O     0.17692   0.54276   0.77302   0.00000  Uiso   1.00
Zn757  Zn    0.20659   0.50000   0.21735   0.00000  Uiso   1.00
Zn758  Zn    0.29340   0.50000   0.78265   0.00000  Uiso   1.00
Zn759  Zn   -0.00000   0.70660   0.21735   0.00000  Uiso   1.00
Zn760  Zn    0.00000   0.79340   0.78265   0.00000  Uiso   1.00
Zn761  Zn    0.29340   0.50000   0.21735   0.00000  Uiso   1.00
Zn762  Zn    0.20659   0.50000   0.78265   0.00000  Uiso   1.00
Zn763  Zn   -0.00000   0.79341   0.21735   0.00000  Uiso   1.00
Zn764  Zn    0.00000   0.70659   0.78265   0.00000  Uiso   1.00
Zn765  Zn    0.45659   0.75000   0.71735   0.00000  Uiso   1.00
Zn766  Zn    0.04340   0.75000   0.28265   0.00000  Uiso   1.00
Zn767  Zn    0.25000   0.95660   0.71735   0.00000  Uiso   1.00
Zn768  Zn    0.25000   0.54341   0.28265   0.00000  Uiso   1.00
Zn769  Zn    0.04340   0.75000   0.71735   0.00000  Uiso   1.00
Zn770  Zn    0.45659   0.75000   0.28265   0.00000  Uiso   1.00
Zn771  Zn    0.25000   0.54341   0.71735   0.00000  Uiso   1.00
Zn772  Zn    0.25000   0.95660   0.28265   0.00000  Uiso   1.00
Cl773  Cl    0.48667   0.64179   0.45722   0.00000  Uiso   1.00
Cl774  Cl    0.48667   0.85821   0.54277   0.00000  Uiso   1.00
Cl775  Cl    0.35821   0.51333   0.45722   0.00000  Uiso   1.00
Cl776  Cl    0.14179   0.51333   0.54277   0.00000  Uiso   1.00
Cl777  Cl    0.01333   0.85821   0.45722   0.00000  Uiso   1.00
Cl778  Cl    0.01333   0.64179   0.54277   0.00000  Uiso   1.00
Cl779  Cl    0.14179   0.98667   0.45722   0.00000  Uiso   1.00
Cl780  Cl    0.35821   0.98667   0.54277   0.00000  Uiso   1.00
Cl781  Cl    0.26333   0.89179   0.95722   0.00000  Uiso   1.00
Cl782  Cl    0.26333   0.60821   0.04277   0.00000  Uiso   1.00
Cl783  Cl    0.10821   0.73667   0.95722   0.00000  Uiso   1.00
Cl784  Cl    0.39179   0.73667   0.04277   0.00000  Uiso   1.00
Cl785  Cl    0.23667   0.60821   0.95722   0.00000  Uiso   1.00
Cl786  Cl    0.23667   0.89179   0.04277   0.00000  Uiso   1.00
Cl787  Cl    0.39179   0.76333   0.95722   0.00000  Uiso   1.00
Cl788  Cl    0.10821   0.76333   0.04277   0.00000  Uiso   1.00
I789   I     0.46644   0.82576   0.38597   0.00000  Uiso   1.00
I790   I     0.46644   0.67424   0.61403   0.00000  Uiso   1.00
I791   I     0.17424   0.53356   0.38597   0.00000  Uiso   1.00
I792   I     0.32576   0.53356   0.61403   0.00000  Uiso   1.00
I793   I     0.03356   0.67424   0.38597   0.00000  Uiso   1.00
I794   I     0.03356   0.82576   0.61403   0.00000  Uiso   1.00
I795   I     0.32576   0.96644   0.38597   0.00000  Uiso   1.00
I796   I     0.17424   0.96644   0.61403   0.00000  Uiso   1.00
I797   I     0.28355   0.57576   0.88597   0.00000  Uiso   1.00
I798   I     0.28356   0.92424   0.11403   0.00000  Uiso   1.00
I799   I     0.42424   0.71645   0.88597   0.00000  Uiso   1.00
I800   I     0.07576   0.71644   0.11403   0.00000  Uiso   1.00
I801   I     0.21644   0.92424   0.88597   0.00000  Uiso   1.00
I802   I     0.21644   0.57576   0.11403   0.00000  Uiso   1.00
I803   I     0.07576   0.78355   0.88597   0.00000  Uiso   1.00
I804   I     0.42424   0.78356   0.11403   0.00000  Uiso   1.00
C805   C     0.99260   0.78246   0.41806   0.00000  Uiso   1.00
C806   C     0.99260   0.71754   0.58194   0.00000  Uiso   1.00
C807   C     0.71754   0.50740   0.41806   0.00000  Uiso   1.00
C808   C     0.78246   0.50740   0.58194   0.00000  Uiso   1.00
C809   C     0.50740   0.71754   0.41806   0.00000  Uiso   1.00
C810   C     0.50740   0.78246   0.58194   0.00000  Uiso   1.00
C811   C     0.78246   0.99260   0.41806   0.00000  Uiso   1.00
C812   C     0.71754   0.99260   0.58194   0.00000  Uiso   1.00
C813   C     0.75740   0.53246   0.91806   0.00000  Uiso   1.00
C814   C     0.75740   0.96754   0.08194   0.00000  Uiso   1.00
C815   C     0.96754   0.74260   0.91806   0.00000  Uiso   1.00
C816   C     0.53246   0.74260   0.08194   0.00000  Uiso   1.00
C817   C     0.74260   0.96754   0.91806   0.00000  Uiso   1.00
C818   C     0.74260   0.53246   0.08194   0.00000  Uiso   1.00
C819   C     0.53246   0.75740   0.91806   0.00000  Uiso   1.00
C820   C     0.96754   0.75740   0.08194   0.00000  Uiso   1.00
C821   C     0.50000   0.75000   0.39805   0.00000  Uiso   1.00
C822   C     0.50000   0.75000   0.60194   0.00000  Uiso   1.00
C823   C     0.75000   0.50000   0.39805   0.00000  Uiso   1.00
C824   C     0.75000   0.50000   0.60194   0.00000  Uiso   1.00
C825   C     0.75000   0.50000   0.89805   0.00000  Uiso   1.00
C826   C     0.75000   0.50000   0.10194   0.00000  Uiso   1.00
C827   C     0.50000   0.75000   0.89805   0.00000  Uiso   1.00
C828   C     0.50000   0.75000   0.10194   0.00000  Uiso   1.00
C829   C     0.99940   0.68335   0.47968   0.00000  Uiso   1.00
C830   C     0.99940   0.81665   0.52032   0.00000  Uiso   1.00
C831   C     0.81665   0.50060   0.47968   0.00000  Uiso   1.00
C832   C     0.68335   0.50060   0.52032   0.00000  Uiso   1.00
C833   C     0.50060   0.81665   0.47968   0.00000  Uiso   1.00
C834   C     0.50060   0.68335   0.52032   0.00000  Uiso   1.00
C835   C     0.68335   0.99940   0.47968   0.00000  Uiso   1.00
C836   C     0.81665   0.99940   0.52032   0.00000  Uiso   1.00
C837   C     0.75060   0.93335   0.97968   0.00000  Uiso   1.00
C838   C     0.75060   0.56665   0.02032   0.00000  Uiso   1.00
C839   C     0.56665   0.74940   0.97968   0.00000  Uiso   1.00
C840   C     0.93335   0.74940   0.02032   0.00000  Uiso   1.00
C841   C     0.74940   0.56665   0.97968   0.00000  Uiso   1.00
C842   C     0.74940   0.93335   0.02032   0.00000  Uiso   1.00
C843   C     0.93335   0.75060   0.97968   0.00000  Uiso   1.00
C844   C     0.56665   0.75060   0.02032   0.00000  Uiso   1.00
C845   C     0.75000   0.50000   0.35577   0.00000  Uiso   1.00
C846   C     0.75000   0.50000   0.64423   0.00000  Uiso   1.00
C847   C     0.50000   0.75000   0.35577   0.00000  Uiso   1.00
C848   C     0.50000   0.75000   0.64423   0.00000  Uiso   1.00
C849   C     0.50000   0.75000   0.85577   0.00000  Uiso   1.00
C850   C     0.50000   0.75000   0.14423   0.00000  Uiso   1.00
C851   C     0.75000   0.50000   0.85577   0.00000  Uiso   1.00
C852   C     0.75000   0.50000   0.14423   0.00000  Uiso   1.00
C853   C     0.67993   0.57007   0.25000   0.00000  Uiso   1.00
C854   C     0.82007   0.92993   0.75000   0.00000  Uiso   1.00
C855   C     0.92993   0.67993   0.25000   0.00000  Uiso   1.00
C856   C     0.57007   0.82007   0.75000   0.00000  Uiso   1.00
C857   C     0.82007   0.92993   0.25000   0.00000  Uiso   1.00
C858   C     0.67993   0.57007   0.75000   0.00000  Uiso   1.00
C859   C     0.57007   0.82007   0.25000   0.00000  Uiso   1.00
C860   C     0.92993   0.67993   0.75000   0.00000  Uiso   1.00
C861   C     0.67993   0.92993   0.75000   0.00000  Uiso   1.00
C862   C     0.82007   0.57007   0.25000   0.00000  Uiso   1.00
C863   C     0.92993   0.82007   0.75000   0.00000  Uiso   1.00
C864   C     0.57007   0.67993   0.25000   0.00000  Uiso   1.00
C865   C     0.82007   0.57007   0.75000   0.00000  Uiso   1.00
C866   C     0.67993   0.92993   0.25000   0.00000  Uiso   1.00
C867   C     0.57007   0.67993   0.75000   0.00000  Uiso   1.00
C868   C     0.92993   0.82007   0.25000   0.00000  Uiso   1.00
C869   C     0.62195   0.90477   0.22478   0.00000  Uiso   1.00
C870   C     0.87709   0.59618   0.77655   0.00000  Uiso   1.00
C871   C     0.59618   0.62291   0.22344   0.00000  Uiso   1.00
C872   C     0.90477   0.87805   0.77522   0.00000  Uiso   1.00
C873   C     0.87805   0.59523   0.22478   0.00000  Uiso   1.00
C874   C     0.62291   0.90382   0.77655   0.00000  Uiso   1.00
C875   C     0.90382   0.87709   0.22344   0.00000  Uiso   1.00
C876   C     0.59523   0.62195   0.77522   0.00000  Uiso   1.00
C877   C     0.62195   0.59523   0.77522   0.00000  Uiso   1.00
C878   C     0.87709   0.90382   0.22344   0.00000  Uiso   1.00
C879   C     0.59618   0.87709   0.77655   0.00000  Uiso   1.00
C880   C     0.90477   0.62195   0.22478   0.00000  Uiso   1.00
C881   C     0.87805   0.90477   0.77522   0.00000  Uiso   1.00
C882   C     0.62291   0.59618   0.22344   0.00000  Uiso   1.00
C883   C     0.90382   0.62291   0.77655   0.00000  Uiso   1.00
C884   C     0.59523   0.87805   0.22478   0.00000  Uiso   1.00
C885   C     0.87291   0.65382   0.72344   0.00000  Uiso   1.00
C886   C     0.62805   0.84523   0.27522   0.00000  Uiso   1.00
C887   C     0.84523   0.87195   0.72478   0.00000  Uiso   1.00
C888   C     0.65382   0.62709   0.27655   0.00000  Uiso   1.00
C889   C     0.62709   0.84618   0.72344   0.00000  Uiso   1.00
C890   C     0.87195   0.65477   0.27522   0.00000  Uiso   1.00
C891   C     0.65477   0.62805   0.72478   0.00000  Uiso   1.00
C892   C     0.84618   0.87291   0.27655   0.00000  Uiso   1.00
C893   C     0.87291   0.84618   0.27655   0.00000  Uiso   1.00
C894   C     0.62805   0.65477   0.72478   0.00000  Uiso   1.00
C895   C     0.84523   0.62805   0.27522   0.00000  Uiso   1.00
C896   C     0.65382   0.87291   0.72344   0.00000  Uiso   1.00
C897   C     0.62709   0.65382   0.27655   0.00000  Uiso   1.00
C898   C     0.87195   0.84523   0.72478   0.00000  Uiso   1.00
C899   C     0.65477   0.87195   0.27522   0.00000  Uiso   1.00
C900   C     0.84618   0.62709   0.72344   0.00000  Uiso   1.00
C901   C     0.50190   0.71644   0.45878   0.00000  Uiso   1.00
C902   C     0.50190   0.78356   0.54122   0.00000  Uiso   1.00
C903   C     0.78356   0.99810   0.45878   0.00000  Uiso   1.00
C904   C     0.71644   0.99810   0.54122   0.00000  Uiso   1.00
C905   C     0.99810   0.78356   0.45878   0.00000  Uiso   1.00
C906   C     0.99810   0.71644   0.54122   0.00000  Uiso   1.00
C907   C     0.71644   0.50190   0.45878   0.00000  Uiso   1.00
C908   C     0.78356   0.50190   0.54122   0.00000  Uiso   1.00
C909   C     0.74810   0.96644   0.95878   0.00000  Uiso   1.00
C910   C     0.74810   0.53356   0.04122   0.00000  Uiso   1.00
C911   C     0.53356   0.75190   0.95878   0.00000  Uiso   1.00
C912   C     0.96644   0.75190   0.04122   0.00000  Uiso   1.00
C913   C     0.75190   0.53356   0.95878   0.00000  Uiso   1.00
C914   C     0.75190   0.96644   0.04122   0.00000  Uiso   1.00
C915   C     0.96644   0.74810   0.95878   0.00000  Uiso   1.00
C916   C     0.53356   0.74810   0.04122   0.00000  Uiso   1.00
C917   C     0.59814   0.84814   0.25000   0.00000  Uiso   1.00
C918   C     0.90186   0.65186   0.75000   0.00000  Uiso   1.00
C919   C     0.65186   0.59814   0.25000   0.00000  Uiso   1.00
C920   C     0.84814   0.90186   0.75000   0.00000  Uiso   1.00
C921   C     0.90186   0.65186   0.25000   0.00000  Uiso   1.00
C922   C     0.59814   0.84814   0.75000   0.00000  Uiso   1.00
C923   C     0.84814   0.90186   0.25000   0.00000  Uiso   1.00
C924   C     0.65186   0.59814   0.75000   0.00000  Uiso   1.00
C925   C     0.59814   0.65186   0.75000   0.00000  Uiso   1.00
C926   C     0.90186   0.84814   0.25000   0.00000  Uiso   1.00
C927   C     0.65186   0.90186   0.75000   0.00000  Uiso   1.00
C928   C     0.84814   0.59814   0.25000   0.00000  Uiso   1.00
C929   C     0.90186   0.84814   0.75000   0.00000  Uiso   1.00
C930   C     0.59814   0.65186   0.25000   0.00000  Uiso   1.00
C931   C     0.84814   0.59814   0.75000   0.00000  Uiso   1.00
C932   C     0.65186   0.90186   0.25000   0.00000  Uiso   1.00
C933   C     0.50000   0.75000   0.47940   0.00000  Uiso   1.00
C934   C     0.50000   0.75000   0.52060   0.00000  Uiso   1.00
C935   C     0.75000   0.50000   0.47940   0.00000  Uiso   1.00
C936   C     0.75000   0.50000   0.52060   0.00000  Uiso   1.00
C937   C     0.75000   0.50000   0.97940   0.00000  Uiso   1.00
C938   C     0.75000   0.50000   0.02060   0.00000  Uiso   1.00
C939   C     0.50000   0.75000   0.97940   0.00000  Uiso   1.00
C940   C     0.50000   0.75000   0.02060   0.00000  Uiso   1.00
H941   H     0.61917   0.92764   0.20505   0.00000  Uiso   1.00
H942   H     0.87909   0.57409   0.79737   0.00000  Uiso   1.00
H943   H     0.57409   0.62091   0.20262   0.00000  Uiso   1.00
H944   H     0.92764   0.88083   0.79495   0.00000  Uiso   1.00
H945   H     0.88083   0.57236   0.20505   0.00000  Uiso   1.00
H946   H     0.62090   0.92591   0.79737   0.00000  Uiso   1.00
H947   H     0.92591   0.87910   0.20262   0.00000  Uiso   1.00
H948   H     0.57236   0.61917   0.79495   0.00000  Uiso   1.00
H949   H     0.61917   0.57236   0.79495   0.00000  Uiso   1.00
H950   H     0.87909   0.92591   0.20262   0.00000  Uiso   1.00
H951   H     0.57409   0.87909   0.79737   0.00000  Uiso   1.00
H952   H     0.92764   0.61917   0.20505   0.00000  Uiso   1.00
H953   H     0.88083   0.92764   0.79495   0.00000  Uiso   1.00
H954   H     0.62090   0.57409   0.20262   0.00000  Uiso   1.00
H955   H     0.92591   0.62091   0.79737   0.00000  Uiso   1.00
H956   H     0.57236   0.88083   0.20505   0.00000  Uiso   1.00
H957   H     0.87090   0.67591   0.70262   0.00000  Uiso   1.00
H958   H     0.63083   0.82236   0.29495   0.00000  Uiso   1.00
H959   H     0.82236   0.86917   0.70505   0.00000  Uiso   1.00
H960   H     0.67591   0.62910   0.29737   0.00000  Uiso   1.00
H961   H     0.62909   0.82409   0.70262   0.00000  Uiso   1.00
H962   H     0.86917   0.67764   0.29495   0.00000  Uiso   1.00
H963   H     0.67764   0.63083   0.70505   0.00000  Uiso   1.00
H964   H     0.82409   0.87091   0.29737   0.00000  Uiso   1.00
H965   H     0.87090   0.82409   0.29737   0.00000  Uiso   1.00
H966   H     0.63083   0.67764   0.70505   0.00000  Uiso   1.00
H967   H     0.82236   0.63083   0.29495   0.00000  Uiso   1.00
H968   H     0.67591   0.87091   0.70262   0.00000  Uiso   1.00
H969   H     0.62909   0.67591   0.29737   0.00000  Uiso   1.00
H970   H     0.86917   0.82236   0.70505   0.00000  Uiso   1.00
H971   H     0.67764   0.86917   0.29495   0.00000  Uiso   1.00
H972   H     0.82409   0.62910   0.70262   0.00000  Uiso   1.00
O973   O     0.75000   0.50000   0.25000   0.00000  Uiso   1.00
O974   O     0.75000   0.50000   0.75000   0.00000  Uiso   1.00
O975   O     0.50000   0.75000   0.25000   0.00000  Uiso   1.00
O976   O     0.50000   0.75000   0.75000   0.00000  Uiso   1.00
O977   O     0.75000   0.96964   0.33755   0.00000  Uiso   1.00
O978   O     0.75000   0.53037   0.66245   0.00000  Uiso   1.00
O979   O     0.53036   0.75000   0.33755   0.00000  Uiso   1.00
O980   O     0.96963   0.75000   0.66245   0.00000  Uiso   1.00
O981   O     0.75000   0.53037   0.33755   0.00000  Uiso   1.00
O982   O     0.75000   0.96964   0.66245   0.00000  Uiso   1.00
O983   O     0.96963   0.75000   0.33755   0.00000  Uiso   1.00
O984   O     0.53036   0.75000   0.66245   0.00000  Uiso   1.00
O985   O     0.50000   0.71963   0.83755   0.00000  Uiso   1.00
O986   O     0.50000   0.78036   0.16245   0.00000  Uiso   1.00
O987   O     0.78036   0.50000   0.83755   0.00000  Uiso   1.00
O988   O     0.71963   0.50000   0.16245   0.00000  Uiso   1.00
O989   O     0.50000   0.78036   0.83755   0.00000  Uiso   1.00
O990   O     0.50000   0.71963   0.16245   0.00000  Uiso   1.00
O991   O     0.71963   0.50000   0.83755   0.00000  Uiso   1.00
O992   O     0.78036   0.50000   0.16245   0.00000  Uiso   1.00
O993   O     0.70724   0.57308   0.27302   0.00000  Uiso   1.00
O994   O     0.79275   0.92693   0.72698   0.00000  Uiso   1.00
O995   O     0.92692   0.70725   0.27302   0.00000  Uiso   1.00
O996   O     0.57307   0.79275   0.72698   0.00000  Uiso   1.00
O997   O     0.79275   0.92693   0.27302   0.00000  Uiso   1.00
O998   O     0.70724   0.57308   0.72698   0.00000  Uiso   1.00
O999   O     0.57307   0.79275   0.27302   0.00000  Uiso   1.00
O1000  O     0.92692   0.70725   0.72698   0.00000  Uiso   1.00
O1001  O     0.70724   0.92693   0.72698   0.00000  Uiso   1.00
O1002  O     0.79275   0.57308   0.27302   0.00000  Uiso   1.00
O1003  O     0.92692   0.79276   0.72698   0.00000  Uiso   1.00
O1004  O     0.57307   0.70725   0.27302   0.00000  Uiso   1.00
O1005  O     0.79275   0.57308   0.72698   0.00000  Uiso   1.00
O1006  O     0.70724   0.92693   0.27302   0.00000  Uiso   1.00
O1007  O     0.57307   0.70725   0.72698   0.00000  Uiso   1.00
O1008  O     0.92692   0.79276   0.27302   0.00000  Uiso   1.00
O1009  O     0.95724   0.82308   0.77302   0.00000  Uiso   1.00
O1010  O     0.54275   0.67692   0.22698   0.00000  Uiso   1.00
O1011  O     0.67692   0.95725   0.77302   0.00000  Uiso   1.00
O1012  O     0.82307   0.54276   0.22698   0.00000  Uiso   1.00
O1013  O     0.54275   0.67692   0.77302   0.00000  Uiso   1.00
O1014  O     0.95724   0.82308   0.22698   0.00000  Uiso   1.00
O1015  O     0.82307   0.54276   0.77302   0.00000  Uiso   1.00
O1016  O     0.67692   0.95725   0.22698   0.00000  Uiso   1.00
O1017  O     0.95724   0.67693   0.22698   0.00000  Uiso   1.00
O1018  O     0.54275   0.82307   0.77302   0.00000  Uiso   1.00
O1019  O     0.67692   0.54276   0.22698   0.00000  Uiso   1.00
O1020  O     0.82307   0.95725   0.77302   0.00000  Uiso   1.00
O1021  O     0.54275   0.82307   0.22698   0.00000  Uiso   1.00
O1022  O     0.95724   0.67693   0.77302   0.00000  Uiso   1.00
O1023  O     0.82307   0.95725   0.22698   0.00000  Uiso   1.00
O1024  O     0.67692   0.54276   0.77302   0.00000  Uiso   1.00
Zn1025 Zn    0.70659   0.50000   0.21735   0.00000  Uiso   1.00
Zn1026 Zn    0.79340   0.50000   0.78265   0.00000  Uiso   1.00
Zn1027 Zn    0.50000   0.70660   0.21735   0.00000  Uiso   1.00
Zn1028 Zn    0.50000   0.79340   0.78265   0.00000  Uiso   1.00
Zn1029 Zn    0.79340   0.50000   0.21735   0.00000  Uiso   1.00
Zn1030 Zn    0.70659   0.50000   0.78265   0.00000  Uiso   1.00
Zn1031 Zn    0.50000   0.79341   0.21735   0.00000  Uiso   1.00
Zn1032 Zn    0.50000   0.70659   0.78265   0.00000  Uiso   1.00
Zn1033 Zn    0.95659   0.75000   0.71735   0.00000  Uiso   1.00
Zn1034 Zn    0.54340   0.75000   0.28265   0.00000  Uiso   1.00
Zn1035 Zn    0.75000   0.95660   0.71735   0.00000  Uiso   1.00
Zn1036 Zn    0.75000   0.54341   0.28265   0.00000  Uiso   1.00
Zn1037 Zn    0.54340   0.75000   0.71735   0.00000  Uiso   1.00
Zn1038 Zn    0.95659   0.75000   0.28265   0.00000  Uiso   1.00
Zn1039 Zn    0.75000   0.54341   0.71735   0.00000  Uiso   1.00
Zn1040 Zn    0.75000   0.95660   0.28265   0.00000  Uiso   1.00
Cl1041 Cl    0.98667   0.64179   0.45722   0.00000  Uiso   1.00
Cl1042 Cl    0.98667   0.85821   0.54277   0.00000  Uiso   1.00
Cl1043 Cl    0.85821   0.51333   0.45722   0.00000  Uiso   1.00
Cl1044 Cl    0.64179   0.51333   0.54277   0.00000  Uiso   1.00
Cl1045 Cl    0.51333   0.85821   0.45722   0.00000  Uiso   1.00
Cl1046 Cl    0.51333   0.64179   0.54277   0.00000  Uiso   1.00
Cl1047 Cl    0.64179   0.98667   0.45722   0.00000  Uiso   1.00
Cl1048 Cl    0.85821   0.98667   0.54277   0.00000  Uiso   1.00
Cl1049 Cl    0.76333   0.89179   0.95722   0.00000  Uiso   1.00
Cl1050 Cl    0.76333   0.60821   0.04277   0.00000  Uiso   1.00
Cl1051 Cl    0.60821   0.73667   0.95722   0.00000  Uiso   1.00
Cl1052 Cl    0.89179   0.73667   0.04277   0.00000  Uiso   1.00
Cl1053 Cl    0.73667   0.60821   0.95722   0.00000  Uiso   1.00
Cl1054 Cl    0.73667   0.89179   0.04277   0.00000  Uiso   1.00
Cl1055 Cl    0.89179   0.76333   0.95722   0.00000  Uiso   1.00
Cl1056 Cl    0.60821   0.76333   0.04277   0.00000  Uiso   1.00
I1057  I     0.96644   0.82576   0.38597   0.00000  Uiso   1.00
I1058  I     0.96644   0.67424   0.61403   0.00000  Uiso   1.00
I1059  I     0.67424   0.53356   0.38597   0.00000  Uiso   1.00
I1060  I     0.82576   0.53356   0.61403   0.00000  Uiso   1.00
I1061  I     0.53356   0.67424   0.38597   0.00000  Uiso   1.00
I1062  I     0.53356   0.82576   0.61403   0.00000  Uiso   1.00
I1063  I     0.82576   0.96644   0.38597   0.00000  Uiso   1.00
I1064  I     0.67424   0.96644   0.61403   0.00000  Uiso   1.00
I1065  I     0.78355   0.57576   0.88597   0.00000  Uiso   1.00
I1066  I     0.78356   0.92424   0.11403   0.00000  Uiso   1.00
I1067  I     0.92424   0.71645   0.88597   0.00000  Uiso   1.00
I1068  I     0.57576   0.71644   0.11403   0.00000  Uiso   1.00
I1069  I     0.71644   0.92424   0.88597   0.00000  Uiso   1.00
I1070  I     0.71644   0.57576   0.11403   0.00000  Uiso   1.00
I1071  I     0.57576   0.78355   0.88597   0.00000  Uiso   1.00
I1072  I     0.92424   0.78356   0.11403   0.00000  Uiso   1.00
loop_
_geom_bond_atom_site_label_1
_geom_bond_atom_site_label_2
_geom_bond_distance
_geom_bond_site_symmetry_2
_ccdc_geom_bond_type
C1     I253    2.158   .     S
C1     C101    1.413   .     A
C1     C285    1.401   .     A
C2     C286    1.401   .     A
C2     C102    1.413   .     A
C2     I254    2.158   .     S
C3     C103    1.413   .     A
C3     C19     1.401   .     A
C3     I255    2.158   .     S
C4     I256    2.158   .     S
C4     C104    1.413   .     A
C4     C20     1.401   .     S
C5     I257    2.158   .     S
C5     C97     1.413   .     A
C5     C17     1.401   .     S
C6     C98     1.413   .     A
C6     I258    2.158   .     S
C6     C18     1.401   .     S
C7     I259    2.158   .     S
C7     C99     1.413   .     A
C7     C555    1.401   .     S
C8     C556    1.401   .     A
C8     I260    2.158   .     S
C8     C100    1.413   .     A
C9     I261    2.158   .     S
C9     C109    1.413   .     A
C9     C21     1.401   .     S
C10    C558    1.401   .     A
C10    I262    2.158   .     S
C10    C110    1.413   .     A
C11    I263    2.158   .     S
C11    C291    1.401   .     A
C11    C111    1.413   .     A
C12    C112    1.413   .     A
C12    I264    2.158   .     S
C12    C24     1.401   .     S
C13    C105    1.413   .     A
C13    I265    2.158   .     S
C13    C557    1.401   .     A
C14    I266    2.158   .     S
C14    C106    1.413   .     A
C14    C22     1.401   .     S
C15    I267    2.158   .     S
C15    C107    1.413   .     A
C15    C23     1.401   .     S
C16    C292    1.401   .     A
C16    I268    2.158   .     S
C16    C108    1.413   .     A
C17    C269    1.401   1_455 A
C17    C43     1.452   .     S
C18    C270    1.401   1_455 A
C18    C44     1.452   .     S
C19    C41     1.452   .     S
C19    C543    1.401   1_545 S
C20    C544    1.401   1_545 A
C20    C42     1.452   .     S
C21    C549    1.401   1_545 A
C21    C47     1.452   .     S
C22    C546    1.401   1_545 A
C22    C48     1.452   .     S
C23    C279    1.401   1_455 A
C23    C45     1.452   .     S
C24    C284    1.401   1_455 A
C24    C46     1.452   .     S
C25    Cl237   1.771   .     S
C25    C298    1.396   .     S
C25    C365    1.413   .     S
C26    Cl238   1.771   .     S
C26    C297    1.396   .     S
C26    C366    1.413   .     S
C27    Cl239   1.771   .     S
C27    C568    1.396   1_545 S
C27    C635    1.413   1_545 S
C28    Cl240   1.771   .     S
C28    C567    1.396   1_545 S
C28    C636    1.413   1_545 S
C29    Cl241   1.771   .     S
C29    C294    1.396   1_455 S
C29    C369    1.413   1_455 S
C30    Cl242   1.771   .     S
C30    C293    1.396   1_455 S
C30    C370    1.413   1_455 S
C31    Cl243   1.771   .     S
C31    C564    1.396   .     S
C31    C639    1.413   .     S
C32    Cl244   1.771   .     S
C32    C563    1.396   .     S
C32    C640    1.413   .     S
C33    Cl245   1.771   .     S
C33    C105    1.413   .     A
C33    C38     1.396   1_556 S
C34    Cl246   1.771   .     S
C34    C106    1.413   .     A
C34    C37     1.396   1_554 S
C35    Cl247   1.771   .     S
C35    C107    1.413   .     A
C35    C40     1.396   1_556 S
C36    Cl248   1.771   .     S
C36    C108    1.413   .     A
C36    C39     1.396   1_554 S
C37    C109    1.413   .     A
C37    Cl249   1.771   .     S
C37    C34     1.396   1_556 S
C38    C110    1.413   .     A
C38    Cl250   1.771   .     S
C38    C33     1.396   1_554 S
C39    Cl251   1.771   .     S
C39    C111    1.413   .     A
C39    C36     1.396   1_556 S
C40    C112    1.413   .     A
C40    Cl252   1.771   .     S
C40    C35     1.396   1_554 S
C41    O177    1.278   .     A
C41    O709    1.278   1_545 S
C42    O714    1.278   1_545 A
C42    O174    1.278   .     S
C43    O175    1.278   .     A
C43    O447    1.278   1_455 S
C44    O444    1.278   1_455 A
C44    O180    1.278   .     S
C45    O181    1.278   .     A
C45    O185    1.278   .     A
C46    O182    1.278   .     S
C46    O186    1.278   .     S
C47    O183    1.278   .     A
C47    O187    1.278   .     A
C48    O184    1.278   .     A
C48    O188    1.278   .     A
C49    O189    1.281   .     A
C49    C115    1.456   .     S
C49    O215    1.281   .     A
C50    O216    1.281   .     A
C50    C116    1.456   .     S
C50    O190    1.281   .     A
C51    O213    1.281   .     A
C51    O191    1.281   .     A
C51    C117    1.456   .     S
C52    O192    1.281   .     A
C52    C118    1.456   .     S
C52    O214    1.281   .     A
C53    O219    1.281   .     A
C53    O193    1.281   .     A
C53    C119    1.456   .     S
C54    C120    1.456   .     S
C54    O194    1.281   .     A
C54    O220    1.281   .     A
C55    O217    1.281   .     A
C55    C113    1.456   .     S
C55    O195    1.281   .     A
C56    O218    1.281   .     A
C56    O196    1.281   .     A
C56    C114    1.456   .     S
C57    C123    1.456   .     S
C57    O197    1.281   .     A
C57    O207    1.281   .     A
C58    O198    1.281   .     A
C58    C124    1.456   .     S
C58    O208    1.281   .     A
C59    O199    1.281   .     A
C59    O205    1.281   .     A
C59    C125    1.456   .     S
C60    O200    1.281   .     A
C60    C126    1.456   .     S
C60    O206    1.281   .     A
C61    O211    1.281   .     A
C61    O201    1.281   .     A
C61    C127    1.456   .     S
C62    O202    1.281   .     A
C62    O212    1.281   .     A
C62    C128    1.456   .     S
C63    O209    1.281   .     A
C63    C121    1.456   .     S
C63    O203    1.281   .     A
C64    O204    1.281   .     A
C64    O210    1.281   .     A
C64    C122    1.456   .     S
C65    H137    1.083   .     S
C65    C128    1.402   .     A
C65    C80     1.386   .     A
C66    C127    1.402   .     A
C66    C79     1.386   .     A
C66    H138    1.083   .     S
C67    C78     1.386   .     A
C67    H139    1.083   .     S
C67    C126    1.402   .     A
C68    C77     1.386   .     A
C68    H140    1.083   .     S
C68    C125    1.402   .     A
C69    H141    1.083   .     S
C69    C76     1.386   .     A
C69    C124    1.402   .     A
C70    C123    1.402   .     A
C70    H142    1.083   .     S
C70    C75     1.386   .     A
C71    C122    1.402   .     A
C71    C74     1.386   .     A
C71    H143    1.083   .     S
C72    C121    1.402   .     A
C72    H144    1.083   .     S
C72    C73     1.386   .     A
C73    H145    1.083   .     S
C73    C120    1.402   .     A
C74    C119    1.402   .     A
C74    H146    1.083   .     S
C75    C118    1.402   .     A
C75    H147    1.083   .     S
C76    H148    1.083   .     S
C76    C117    1.402   .     A
C77    C116    1.402   .     A
C77    H149    1.083   .     S
C78    C115    1.402   .     A
C78    H150    1.083   .     S
C79    H151    1.083   .     S
C79    C114    1.402   .     A
C80    H152    1.083   .     S
C80    C113    1.402   .     A
C81    H153    1.083   .     S
C81    C114    1.402   .     A
C81    C96     1.386   .     A
C82    H154    1.083   .     S
C82    C95     1.386   .     A
C82    C113    1.402   .     A
C83    C116    1.402   .     A
C83    C94     1.386   .     A
C83    H155    1.083   .     S
C84    H156    1.083   .     S
C84    C115    1.402   .     A
C84    C93     1.386   .     A
C85    C118    1.402   .     A
C85    H157    1.083   .     S
C85    C92     1.386   .     A
C86    C91     1.386   .     A
C86    H158    1.083   .     S
C86    C117    1.402   .     A
C87    C90     1.386   .     A
C87    C120    1.402   .     A
C87    H159    1.083   .     S
C88    C89     1.386   .     A
C88    C119    1.402   .     A
C88    H160    1.083   .     S
C89    C122    1.402   .     A
C89    H161    1.083   .     S
C90    H162    1.083   .     S
C90    C121    1.402   .     A
C91    H163    1.083   .     S
C91    C124    1.402   .     A
C92    C123    1.402   .     A
C92    H164    1.083   .     S
C93    C126    1.402   .     A
C93    H165    1.083   .     S
C94    C125    1.402   .     A
C94    H166    1.083   .     S
C95    C128    1.402   .     A
C95    H167    1.083   .     S
C96    H168    1.083   .     S
C96    C127    1.402   .     A
C97    C129    1.422   .     A
C97    C293    1.413   1_455 S
C98    C294    1.413   1_455 S
C98    C130    1.422   .     S
C99    C563    1.413   .     S
C99    C667    1.422   .     S
C100   C668    1.422   .     A
C100   C564    1.413   .     S
C101   C297    1.413   .     S
C101   C397    1.422   .     S
C102   C398    1.422   .     A
C102   C298    1.413   .     S
C103   C131    1.422   .     A
C103   C567    1.413   1_545 S
C104   C568    1.413   1_545 S
C104   C132    1.422   .     S
C105   C669    1.422   .     A
C106   C134    1.422   .     S
C107   C135    1.422   .     S
C108   C404    1.422   .     A
C109   C133    1.422   .     S
C110   C670    1.422   .     A
C111   C403    1.422   .     A
C112   C136    1.422   .     S
C129   C369    1.422   1_455 S
C129   C130    1.415   .     S
C130   C370    1.422   1_455 A
C131   C635    1.422   1_545 S
C131   C132    1.415   .     S
C132   C636    1.422   1_545 A
C133   C641    1.422   1_545 A
C133   C134    1.415   1_556 S
C134   C646    1.422   1_545 A
C134   C133    1.415   1_554 S
C135   C379    1.422   1_455 A
C135   C136    1.415   1_556 S
C136   C376    1.422   1_455 A
C136   C135    1.415   1_554 S
O169   Zn221   1.947   .     S
O169   Zn225   1.947   .     S
O169   Zn232   1.947   .     S
O169   Zn772   1.947   1_545 S
O170   Zn222   1.947   .     S
O170   Zn226   1.947   .     S
O170   Zn235   1.947   .     S
O170   Zn767   1.947   1_545 S
O171   Zn230   1.947   .     S
O171   Zn223   1.947   .     S
O171   Zn227   1.947   .     S
O171   Zn502   1.947   1_455 S
O172   Zn233   1.947   .     S
O172   Zn224   1.947   .     S
O172   Zn228   1.947   .     S
O172   Zn497   1.947   1_455 S
O173   Zn236   1.945   .     S
O173   C577    1.278   .     S
O174   Zn235   1.945   .     S
O175   Zn230   1.945   .     S
O176   C312    1.278   .     A
O176   Zn229   1.945   .     S
O177   Zn232   1.945   .     S
O178   Zn231   1.945   .     S
O178   C578    1.278   .     A
O179   Zn234   1.945   .     S
O179   C311    1.278   .     S
O180   Zn233   1.945   .     S
O181   Zn228   1.945   .     S
O182   Zn227   1.945   .     S
O183   Zn222   1.945   .     S
O184   Zn221   1.945   .     S
O185   Zn224   1.945   .     S
O186   Zn223   1.945   .     S
O187   Zn226   1.945   .     S
O188   Zn225   1.945   .     S
O189   Zn232   1.937   .     S
O190   Zn231   1.937   .     S
O191   Zn234   1.937   .     S
O192   Zn233   1.937   .     S
O193   Zn236   1.937   .     S
O194   Zn235   1.937   .     S
O195   Zn230   1.937   .     S
O196   Zn229   1.937   .     S
O197   Zn231   1.937   .     S
O198   Zn232   1.937   .     S
O199   Zn229   1.937   .     S
O200   Zn230   1.937   .     S
O201   Zn235   1.937   .     S
O202   Zn236   1.937   .     S
O203   Zn233   1.937   .     S
O204   Zn234   1.937   .     S
O205   Zn492   1.937   .     S
O206   Zn223   1.937   .     S
O207   Zn762   1.937   .     S
O208   Zn225   1.937   .     S
O209   Zn228   1.937   .     S
O210   Zn495   1.937   .     S
O211   Zn222   1.937   .     S
O212   Zn757   1.937   .     S
O213   Zn491   1.937   .     S
O214   Zn224   1.937   .     S
O215   Zn221   1.937   .     S
O216   Zn758   1.937   .     S
O217   Zn227   1.937   .     S
O218   Zn496   1.937   .     S
O219   Zn761   1.937   .     S
O220   Zn226   1.937   .     S
Zn221  O748    1.937   1_545 S
Zn222  O752    1.937   1_545 S
Zn223  O481    1.937   1_455 S
Zn224  O473    1.937   1_455 S
Zn225  O755    1.937   1_545 S
Zn226  O743    1.937   1_545 S
Zn227  O478    1.937   1_455 S
Zn228  O486    1.937   1_455 S
Zn229  O440    1.947   .     S
Zn231  O706    1.947   .     S
Zn234  O439    1.947   .     S
Zn236  O705    1.947   .     S
C269   I521    2.158   .     S
C269   C369    1.413   .     A
C269   C17     1.401   1_655 A
C270   C18     1.401   1_655 A
C270   C370    1.413   .     A
C270   I522    2.158   .     S
C271   C371    1.413   .     A
C271   C287    1.401   .     A
C271   I523    2.158   .     S
C272   I524    2.158   .     S
C272   C372    1.413   .     A
C272   C288    1.401   .     S
C273   I525    2.158   .     S
C273   C365    1.413   .     A
C273   C285    1.401   .     S
C274   C366    1.413   .     A
C274   I526    2.158   .     S
C274   C286    1.401   .     S
C275   I527    2.158   .     S
C275   C367    1.413   .     A
C275   C823    1.401   .     S
C276   C824    1.401   .     A
C276   I528    2.158   .     S
C276   C368    1.413   .     A
C277   I529    2.158   .     S
C277   C377    1.413   .     A
C277   C289    1.401   .     S
C278   C826    1.401   .     A
C278   I530    2.158   .     S
C278   C378    1.413   .     A
C279   I531    2.158   .     S
C279   C23     1.401   1_655 A
C279   C379    1.413   .     A
C280   C380    1.413   .     A
C280   I532    2.158   .     S
C280   C292    1.401   .     S
C281   C373    1.413   .     A
C281   I533    2.158   .     S
C281   C825    1.401   .     A
C282   I534    2.158   .     S
C282   C374    1.413   .     A
C282   C290    1.401   .     S
C283   I535    2.158   .     S
C283   C375    1.413   .     A
C283   C291    1.401   .     S
C284   C24     1.401   1_655 A
C284   I536    2.158   .     S
C284   C376    1.413   .     A
C285   C311    1.452   .     S
C286   C312    1.452   .     S
C287   C309    1.452   .     S
C287   C811    1.401   1_545 S
C288   C812    1.401   1_545 A
C288   C310    1.452   .     S
C289   C817    1.401   1_545 A
C289   C315    1.452   .     S
C290   C814    1.401   1_545 A
C290   C316    1.452   .     S
C291   C313    1.452   .     S
C292   C314    1.452   .     S
C293   Cl505   1.771   .     S
C293   C30     1.396   1_655 S
C293   C97     1.413   1_655 S
C294   Cl506   1.771   .     S
C294   C29     1.396   1_655 S
C294   C98     1.413   1_655 S
C295   Cl507   1.771   .     S
C295   C836    1.396   1_545 S
C295   C903    1.413   1_545 S
C296   Cl508   1.771   .     S
C296   C835    1.396   1_545 S
C296   C904    1.413   1_545 S
C297   Cl509   1.771   .     S
C298   Cl510   1.771   .     S
C299   Cl511   1.771   .     S
C299   C832    1.396   .     S
C299   C907    1.413   .     S
C300   Cl512   1.771   .     S
C300   C831    1.396   .     S
C300   C908    1.413   .     S
C301   Cl513   1.771   .     S
C301   C373    1.413   .     A
C301   C306    1.396   1_556 S
C302   Cl514   1.771   .     S
C302   C374    1.413   .     A
C302   C305    1.396   1_554 S
C303   Cl515   1.771   .     S
C303   C375    1.413   .     A
C303   C308    1.396   1_556 S
C304   Cl516   1.771   .     S
C304   C376    1.413   .     A
C304   C307    1.396   1_554 S
C305   C377    1.413   .     A
C305   Cl517   1.771   .     S
C305   C302    1.396   1_556 S
C306   C378    1.413   .     A
C306   Cl518   1.771   .     S
C306   C301    1.396   1_554 S
C307   Cl519   1.771   .     S
C307   C379    1.413   .     A
C307   C304    1.396   1_556 S
C308   C380    1.413   .     A
C308   Cl520   1.771   .     S
C308   C303    1.396   1_554 S
C309   O445    1.278   .     A
C309   O977    1.278   1_545 S
C310   O982    1.278   1_545 A
C310   O442    1.278   .     S
C311   O443    1.278   .     A
C312   O448    1.278   .     S
C313   O449    1.278   .     A
C313   O453    1.278   .     A
C314   O450    1.278   .     S
C314   O454    1.278   .     S
C315   O451    1.278   .     A
C315   O455    1.278   .     A
C316   O452    1.278   .     A
C316   O456    1.278   .     A
C317   O457    1.281   .     A
C317   C383    1.456   .     S
C317   O483    1.281   .     A
C318   O484    1.281   .     A
C318   C384    1.456   .     S
C318   O458    1.281   .     A
C319   O481    1.281   .     A
C319   O459    1.281   .     A
C319   C385    1.456   .     S
C320   O460    1.281   .     A
C320   C386    1.456   .     S
C320   O482    1.281   .     A
C321   O487    1.281   .     A
C321   O461    1.281   .     A
C321   C387    1.456   .     S
C322   C388    1.456   .     S
C322   O462    1.281   .     A
C322   O488    1.281   .     A
C323   O485    1.281   .     A
C323   C381    1.456   .     S
C323   O463    1.281   .     A
C324   O486    1.281   .     A
C324   O464    1.281   .     A
C324   C382    1.456   .     S
C325   C391    1.456   .     S
C325   O465    1.281   .     A
C325   O475    1.281   .     A
C326   O466    1.281   .     A
C326   C392    1.456   .     S
C326   O476    1.281   .     A
C327   O467    1.281   .     A
C327   O473    1.281   .     A
C327   C393    1.456   .     S
C328   O468    1.281   .     A
C328   C394    1.456   .     S
C328   O474    1.281   .     A
C329   O479    1.281   .     A
C329   O469    1.281   .     A
C329   C395    1.456   .     S
C330   O470    1.281   .     A
C330   O480    1.281   .     A
C330   C396    1.456   .     S
C331   O477    1.281   .     A
C331   C389    1.456   .     S
C331   O471    1.281   .     A
C332   O472    1.281   .     A
C332   O478    1.281   .     A
C332   C390    1.456   .     S
C333   H405    1.083   .     S
C333   C396    1.402   .     A
C333   C348    1.386   .     A
C334   C395    1.402   .     A
C334   C347    1.386   .     A
C334   H406    1.083   .     S
C335   C346    1.386   .     A
C335   H407    1.083   .     S
C335   C394    1.402   .     A
C336   C345    1.386   .     A
C336   H408    1.083   .     S
C336   C393    1.402   .     A
C337   H409    1.083   .     S
C337   C344    1.386   .     A
C337   C392    1.402   .     A
C338   C391    1.402   .     A
C338   H410    1.083   .     S
C338   C343    1.386   .     A
C339   C390    1.402   .     A
C339   C342    1.386   .     A
C339   H411    1.083   .     S
C340   C389    1.402   .     A
C340   H412    1.083   .     S
C340   C341    1.386   .     A
C341   H413    1.083   .     S
C341   C388    1.402   .     A
C342   C387    1.402   .     A
C342   H414    1.083   .     S
C343   C386    1.402   .     A
C343   H415    1.083   .     S
C344   H416    1.083   .     S
C344   C385    1.402   .     A
C345   C384    1.402   .     A
C345   H417    1.083   .     S
C346   C383    1.402   .     A
C346   H418    1.083   .     S
C347   H419    1.083   .     S
C347   C382    1.402   .     A
C348   H420    1.083   .     S
C348   C381    1.402   .     A
C349   H421    1.083   .     S
C349   C382    1.402   .     A
C349   C364    1.386   .     A
C350   H422    1.083   .     S
C350   C363    1.386   .     A
C350   C381    1.402   .     A
C351   C384    1.402   .     A
C351   C362    1.386   .     A
C351   H423    1.083   .     S
C352   H424    1.083   .     S
C352   C383    1.402   .     A
C352   C361    1.386   .     A
C353   C386    1.402   .     A
C353   H425    1.083   .     S
C353   C360    1.386   .     A
C354   C359    1.386   .     A
C354   H426    1.083   .     S
C354   C385    1.402   .     A
C355   C358    1.386   .     A
C355   C388    1.402   .     A
C355   H427    1.083   .     S
C356   C357    1.386   .     A
C356   C387    1.402   .     A
C356   H428    1.083   .     S
C357   C390    1.402   .     A
C357   H429    1.083   .     S
C358   H430    1.083   .     S
C358   C389    1.402   .     A
C359   H431    1.083   .     S
C359   C392    1.402   .     A
C360   C391    1.402   .     A
C360   H432    1.083   .     S
C361   C394    1.402   .     A
C361   H433    1.083   .     S
C362   C393    1.402   .     A
C362   H434    1.083   .     S
C363   C396    1.402   .     A
C363   H435    1.083   .     S
C364   H436    1.083   .     S
C364   C395    1.402   .     A
C365   C397    1.422   .     A
C366   C398    1.422   .     S
C367   C831    1.413   .     S
C367   C935    1.422   .     S
C368   C936    1.422   .     A
C368   C832    1.413   .     S
C369   C29     1.413   1_655 S
C369   C129    1.422   1_655 S
C370   C130    1.422   1_655 A
C370   C30     1.413   1_655 S
C371   C399    1.422   .     A
C371   C835    1.413   1_545 S
C372   C836    1.413   1_545 S
C372   C400    1.422   .     S
C373   C937    1.422   .     A
C374   C402    1.422   .     S
C375   C403    1.422   .     S
C376   C136    1.422   1_655 A
C377   C401    1.422   .     S
C378   C938    1.422   .     A
C379   C135    1.422   1_655 A
C380   C404    1.422   .     S
C397   C398    1.415   .     S
C399   C903    1.422   1_545 S
C399   C400    1.415   .     S
C400   C904    1.422   1_545 A
C401   C909    1.422   1_545 A
C401   C402    1.415   1_556 S
C402   C914    1.422   1_545 A
C402   C401    1.415   1_554 S
C403   C404    1.415   1_556 S
C404   C403    1.415   1_554 S
O437   Zn489   1.947   .     S
O437   Zn493   1.947   .     S
O437   Zn500   1.947   .     S
O437   Zn1040  1.947   1_545 S
O438   Zn490   1.947   .     S
O438   Zn494   1.947   .     S
O438   Zn503   1.947   .     S
O438   Zn1035  1.947   1_545 S
O439   Zn498   1.947   .     S
O439   Zn491   1.947   .     S
O439   Zn495   1.947   .     S
O440   Zn501   1.947   .     S
O440   Zn492   1.947   .     S
O440   Zn496   1.947   .     S
O441   Zn504   1.945   .     S
O441   C845    1.278   .     S
O442   Zn503   1.945   .     S
O443   Zn498   1.945   .     S
O444   C44     1.278   1_655 A
O444   Zn497   1.945   .     S
O445   Zn500   1.945   .     S
O446   Zn499   1.945   .     S
O446   C846    1.278   .     A
O447   Zn502   1.945   .     S
O447   C43     1.278   1_655 S
O448   Zn501   1.945   .     S
O449   Zn496   1.945   .     S
O450   Zn495   1.945   .     S
O451   Zn490   1.945   .     S
O452   Zn489   1.945   .     S
O453   Zn492   1.945   .     S
O454   Zn491   1.945   .     S
O455   Zn494   1.945   .     S
O456   Zn493   1.945   .     S
O457   Zn500   1.937   .     S
O458   Zn499   1.937   .     S
O459   Zn502   1.937   .     S
O460   Zn501   1.937   .     S
O461   Zn504   1.937   .     S
O462   Zn503   1.937   .     S
O463   Zn498   1.937   .     S
O464   Zn497   1.937   .     S
O465   Zn499   1.937   .     S
O466   Zn500   1.937   .     S
O467   Zn497   1.937   .     S
O468   Zn498   1.937   .     S
O469   Zn503   1.937   .     S
O470   Zn504   1.937   .     S
O471   Zn501   1.937   .     S
O472   Zn502   1.937   .     S
O473   Zn224   1.937   1_655 S
O474   Zn491   1.937   .     S
O475   Zn1030  1.937   .     S
O476   Zn493   1.937   .     S
O477   Zn496   1.937   .     S
O478   Zn227   1.937   1_655 S
O479   Zn490   1.937   .     S
O480   Zn1025  1.937   .     S
O481   Zn223   1.937   1_655 S
O482   Zn492   1.937   .     S
O483   Zn489   1.937   .     S
O484   Zn1026  1.937   .     S
O485   Zn495   1.937   .     S
O486   Zn228   1.937   1_655 S
O487   Zn1029  1.937   .     S
O488   Zn494   1.937   .     S
Zn489  O1016   1.937   1_545 S
Zn490  O1020   1.937   1_545 S
Zn493  O1023   1.937   1_545 S
Zn494  O1011   1.937   1_545 S
Zn497  O172    1.947   1_655 S
Zn499  O974    1.947   .     S
Zn502  O171    1.947   1_655 S
Zn504  O973    1.947   .     S
C537   I789    2.158   .     S
C537   C637    1.413   .     A
C537   C821    1.401   .     A
C538   C822    1.401   .     A
C538   C638    1.413   .     A
C538   I790    2.158   .     S
C539   C639    1.413   .     A
C539   C555    1.401   .     A
C539   I791    2.158   .     S
C540   I792    2.158   .     S
C540   C640    1.413   .     A
C540   C556    1.401   .     S
C541   I793    2.158   .     S
C541   C633    1.413   .     A
C541   C553    1.401   .     S
C542   C634    1.413   .     A
C542   I794    2.158   .     S
C542   C554    1.401   .     S
C543   I795    2.158   .     S
C543   C635    1.413   .     A
C543   C19     1.401   1_565 S
C544   C20     1.401   1_565 A
C544   I796    2.158   .     S
C544   C636    1.413   .     A
C545   I797    2.158   .     S
C545   C645    1.413   .     A
C545   C557    1.401   .     S
C546   C22     1.401   1_565 A
C546   I798    2.158   .     S
C546   C646    1.413   .     A
C547   I799    2.158   .     S
C547   C827    1.401   .     A
C547   C647    1.413   .     A
C548   C648    1.413   .     A
C548   I800    2.158   .     S
C548   C560    1.401   .     S
C549   C641    1.413   .     A
C549   I801    2.158   .     S
C549   C21     1.401   1_565 A
C550   I802    2.158   .     S
C550   C642    1.413   .     A
C550   C558    1.401   .     S
C551   I803    2.158   .     S
C551   C643    1.413   .     A
C551   C559    1.401   .     S
C552   C828    1.401   .     A
C552   I804    2.158   .     S
C552   C644    1.413   .     A
C553   C805    1.401   1_455 A
C553   C579    1.452   .     S
C554   C806    1.401   1_455 A
C554   C580    1.452   .     S
C555   C577    1.452   .     S
C556   C578    1.452   .     S
C557   C583    1.452   .     S
C558   C584    1.452   .     S
C559   C815    1.401   1_455 A
C559   C581    1.452   .     S
C560   C820    1.401   1_455 A
C560   C582    1.452   .     S
C561   Cl773   1.771   .     S
C561   C834    1.396   .     S
C561   C901    1.413   .     S
C562   Cl774   1.771   .     S
C562   C833    1.396   .     S
C562   C902    1.413   .     S
C563   Cl775   1.771   .     S
C564   Cl776   1.771   .     S
C565   Cl777   1.771   .     S
C565   C830    1.396   1_455 S
C565   C905    1.413   1_455 S
C566   Cl778   1.771   .     S
C566   C829    1.396   1_455 S
C566   C906    1.413   1_455 S
C567   Cl779   1.771   .     S
C567   C28     1.396   1_565 S
C567   C103    1.413   1_565 S
C568   Cl780   1.771   .     S
C568   C27     1.396   1_565 S
C568   C104    1.413   1_565 S
C569   Cl781   1.771   .     S
C569   C641    1.413   .     A
C569   C574    1.396   1_556 S
C570   Cl782   1.771   .     S
C570   C642    1.413   .     A
C570   C573    1.396   1_554 S
C571   Cl783   1.771   .     S
C571   C643    1.413   .     A
C571   C576    1.396   1_556 S
C572   Cl784   1.771   .     S
C572   C644    1.413   .     A
C572   C575    1.396   1_554 S
C573   C645    1.413   .     A
C573   Cl785   1.771   .     S
C573   C570    1.396   1_556 S
C574   C646    1.413   .     A
C574   Cl786   1.771   .     S
C574   C569    1.396   1_554 S
C575   Cl787   1.771   .     S
C575   C647    1.413   .     A
C575   C572    1.396   1_556 S
C576   C648    1.413   .     A
C576   Cl788   1.771   .     S
C576   C571    1.396   1_554 S
C577   O713    1.278   .     A
C578   O710    1.278   .     S
C579   O711    1.278   .     A
C579   O983    1.278   1_455 S
C580   O980    1.278   1_455 A
C580   O716    1.278   .     S
C581   O717    1.278   .     A
C581   O721    1.278   .     A
C582   O718    1.278   .     S
C582   O722    1.278   .     S
C583   O719    1.278   .     A
C583   O723    1.278   .     A
C584   O720    1.278   .     A
C584   O724    1.278   .     A
C585   O725    1.281   .     A
C585   C651    1.456   .     S
C585   O751    1.281   .     A
C586   O752    1.281   .     A
C586   C652    1.456   .     S
C586   O726    1.281   .     A
C587   O749    1.281   .     A
C587   O727    1.281   .     A
C587   C653    1.456   .     S
C588   O728    1.281   .     A
C588   C654    1.456   .     S
C588   O750    1.281   .     A
C589   O755    1.281   .     A
C589   O729    1.281   .     A
C589   C655    1.456   .     S
C590   C656    1.456   .     S
C590   O730    1.281   .     A
C590   O756    1.281   .     A
C591   O753    1.281   .     A
C591   C649    1.456   .     S
C591   O731    1.281   .     A
C592   O754    1.281   .     A
C592   O732    1.281   .     A
C592   C650    1.456   .     S
C593   C659    1.456   .     S
C593   O733    1.281   .     A
C593   O743    1.281   .     A
C594   O734    1.281   .     A
C594   C660    1.456   .     S
C594   O744    1.281   .     A
C595   O735    1.281   .     A
C595   O741    1.281   .     A
C595   C661    1.456   .     S
C596   O736    1.281   .     A
C596   C662    1.456   .     S
C596   O742    1.281   .     A
C597   O747    1.281   .     A
C597   O737    1.281   .     A
C597   C663    1.456   .     S
C598   O738    1.281   .     A
C598   O748    1.281   .     A
C598   C664    1.456   .     S
C599   O745    1.281   .     A
C599   C657    1.456   .     S
C599   O739    1.281   .     A
C600   O740    1.281   .     A
C600   O746    1.281   .     A
C600   C658    1.456   .     S
C601   H673    1.083   .     S
C601   C664    1.402   .     A
C601   C616    1.386   .     A
C602   C663    1.402   .     A
C602   C615    1.386   .     A
C602   H674    1.083   .     S
C603   C614    1.386   .     A
C603   H675    1.083   .     S
C603   C662    1.402   .     A
C604   C613    1.386   .     A
C604   H676    1.083   .     S
C604   C661    1.402   .     A
C605   H677    1.083   .     S
C605   C612    1.386   .     A
C605   C660    1.402   .     A
C606   C659    1.402   .     A
C606   H678    1.083   .     S
C606   C611    1.386   .     A
C607   C658    1.402   .     A
C607   C610    1.386   .     A
C607   H679    1.083   .     S
C608   C657    1.402   .     A
C608   H680    1.083   .     S
C608   C609    1.386   .     A
C609   H681    1.083   .     S
C609   C656    1.402   .     A
C610   C655    1.402   .     A
C610   H682    1.083   .     S
C611   C654    1.402   .     A
C611   H683    1.083   .     S
C612   H684    1.083   .     S
C612   C653    1.402   .     A
C613   C652    1.402   .     A
C613   H685    1.083   .     S
C614   C651    1.402   .     A
C614   H686    1.083   .     S
C615   H687    1.083   .     S
C615   C650    1.402   .     A
C616   H688    1.083   .     S
C616   C649    1.402   .     A
C617   H689    1.083   .     S
C617   C650    1.402   .     A
C617   C632    1.386   .     A
C618   H690    1.083   .     S
C618   C631    1.386   .     A
C618   C649    1.402   .     A
C619   C652    1.402   .     A
C619   C630    1.386   .     A
C619   H691    1.083   .     S
C620   H692    1.083   .     S
C620   C651    1.402   .     A
C620   C629    1.386   .     A
C621   C654    1.402   .     A
C621   H693    1.083   .     S
C621   C628    1.386   .     A
C622   C627    1.386   .     A
C622   H694    1.083   .     S
C622   C653    1.402   .     A
C623   C626    1.386   .     A
C623   C656    1.402   .     A
C623   H695    1.083   .     S
C624   C625    1.386   .     A
C624   C655    1.402   .     A
C624   H696    1.083   .     S
C625   C658    1.402   .     A
C625   H697    1.083   .     S
C626   H698    1.083   .     S
C626   C657    1.402   .     A
C627   H699    1.083   .     S
C627   C660    1.402   .     A
C628   C659    1.402   .     A
C628   H700    1.083   .     S
C629   C662    1.402   .     A
C629   H701    1.083   .     S
C630   C661    1.402   .     A
C630   H702    1.083   .     S
C631   C664    1.402   .     A
C631   H703    1.083   .     S
C632   H704    1.083   .     S
C632   C663    1.402   .     A
C633   C665    1.422   .     A
C633   C829    1.413   1_455 S
C634   C830    1.413   1_455 S
C634   C666    1.422   .     S
C635   C27     1.413   1_565 S
C635   C131    1.422   1_565 S
C636   C132    1.422   1_565 A
C636   C28     1.413   1_565 S
C637   C833    1.413   .     S
C637   C933    1.422   .     S
C638   C934    1.422   .     A
C638   C834    1.413   .     S
C639   C667    1.422   .     A
C640   C668    1.422   .     S
C641   C133    1.422   1_565 A
C642   C670    1.422   .     S
C643   C671    1.422   .     S
C644   C940    1.422   .     A
C645   C669    1.422   .     S
C646   C134    1.422   1_565 A
C647   C939    1.422   .     A
C648   C672    1.422   .     S
C665   C905    1.422   1_455 S
C665   C666    1.415   .     S
C666   C906    1.422   1_455 A
C667   C668    1.415   .     S
C669   C670    1.415   1_556 S
C670   C669    1.415   1_554 S
C671   C915    1.422   1_455 A
C671   C672    1.415   1_556 S
C672   C912    1.422   1_455 A
C672   C671    1.415   1_554 S
O705   Zn757   1.947   .     S
O705   Zn761   1.947   .     S
O705   Zn768   1.947   .     S
O706   Zn758   1.947   .     S
O706   Zn762   1.947   .     S
O706   Zn771   1.947   .     S
O707   Zn766   1.947   .     S
O707   Zn759   1.947   .     S
O707   Zn763   1.947   .     S
O707   Zn1038  1.947   1_455 S
O708   Zn769   1.947   .     S
O708   Zn760   1.947   .     S
O708   Zn764   1.947   .     S
O708   Zn1033  1.947   1_455 S
O709   Zn772   1.945   .     S
O709   C41     1.278   1_565 S
O710   Zn771   1.945   .     S
O711   Zn766   1.945   .     S
O712   C848    1.278   .     A
O712   Zn765   1.945   .     S
O713   Zn768   1.945   .     S
O714   Zn767   1.945   .     S
O714   C42     1.278   1_565 A
O715   Zn770   1.945   .     S
O715   C847    1.278   .     S
O716   Zn769   1.945   .     S
O717   Zn764   1.945   .     S
O718   Zn763   1.945   .     S
O719   Zn758   1.945   .     S
O720   Zn757   1.945   .     S
O721   Zn760   1.945   .     S
O722   Zn759   1.945   .     S
O723   Zn762   1.945   .     S
O724   Zn761   1.945   .     S
O725   Zn768   1.937   .     S
O726   Zn767   1.937   .     S
O727   Zn770   1.937   .     S
O728   Zn769   1.937   .     S
O729   Zn772   1.937   .     S
O730   Zn771   1.937   .     S
O731   Zn766   1.937   .     S
O732   Zn765   1.937   .     S
O733   Zn767   1.937   .     S
O734   Zn768   1.937   .     S
O735   Zn765   1.937   .     S
O736   Zn766   1.937   .     S
O737   Zn771   1.937   .     S
O738   Zn772   1.937   .     S
O739   Zn769   1.937   .     S
O740   Zn770   1.937   .     S
O741   Zn1028  1.937   .     S
O742   Zn759   1.937   .     S
O743   Zn226   1.937   1_565 S
O744   Zn761   1.937   .     S
O745   Zn764   1.937   .     S
O746   Zn1031  1.937   .     S
O747   Zn758   1.937   .     S
O748   Zn221   1.937   1_565 S
O749   Zn1027  1.937   .     S
O750   Zn760   1.937   .     S
O751   Zn757   1.937   .     S
O752   Zn222   1.937   1_565 S
O753   Zn763   1.937   .     S
O754   Zn1032  1.937   .     S
O755   Zn225   1.937   1_565 S
O756   Zn762   1.937   .     S
Zn759  O1017   1.937   1_455 S
Zn760  O1009   1.937   1_455 S
Zn763  O1014   1.937   1_455 S
Zn764  O1022   1.937   1_455 S
Zn765  O976    1.947   .     S
Zn767  O170    1.947   1_565 S
Zn770  O975    1.947   .     S
Zn772  O169    1.947   1_565 S
C805   I1057   2.158   .     S
C805   C905    1.413   .     A
C805   C553    1.401   1_655 A
C806   C554    1.401   1_655 A
C806   C906    1.413   .     A
C806   I1058   2.158   .     S
C807   C907    1.413   .     A
C807   C823    1.401   .     A
C807   I1059   2.158   .     S
C808   I1060   2.158   .     S
C808   C908    1.413   .     A
C808   C824    1.401   .     S
C809   I1061   2.158   .     S
C809   C901    1.413   .     A
C809   C821    1.401   .     S
C810   C902    1.413   .     A
C810   I1062   2.158   .     S
C810   C822    1.401   .     S
C811   I1063   2.158   .     S
C811   C903    1.413   .     A
C811   C287    1.401   1_565 S
C812   C288    1.401   1_565 A
C812   I1064   2.158   .     S
C812   C904    1.413   .     A
C813   I1065   2.158   .     S
C813   C913    1.413   .     A
C813   C825    1.401   .     S
C814   C290    1.401   1_565 A
C814   I1066   2.158   .     S
C814   C914    1.413   .     A
C815   I1067   2.158   .     S
C815   C559    1.401   1_655 A
C815   C915    1.413   .     A
C816   C916    1.413   .     A
C816   I1068   2.158   .     S
C816   C828    1.401   .     S
C817   C909    1.413   .     A
C817   I1069   2.158   .     S
C817   C289    1.401   1_565 A
C818   I1070   2.158   .     S
C818   C910    1.413   .     A
C818   C826    1.401   .     S
C819   I1071   2.158   .     S
C819   C911    1.413   .     A
C819   C827    1.401   .     S
C820   C560    1.401   1_655 A
C820   I1072   2.158   .     S
C820   C912    1.413   .     A
C821   C847    1.452   .     S
C822   C848    1.452   .     S
C823   C845    1.452   .     S
C824   C846    1.452   .     S
C825   C851    1.452   .     S
C826   C852    1.452   .     S
C827   C849    1.452   .     S
C828   C850    1.452   .     S
C829   Cl1041  1.771   .     S
C829   C566    1.396   1_655 S
C829   C633    1.413   1_655 S
C830   Cl1042  1.771   .     S
C830   C565    1.396   1_655 S
C830   C634    1.413   1_655 S
C831   Cl1043  1.771   .     S
C832   Cl1044  1.771   .     S
C833   Cl1045  1.771   .     S
C834   Cl1046  1.771   .     S
C835   Cl1047  1.771   .     S
C835   C296    1.396   1_565 S
C835   C371    1.413   1_565 S
C836   Cl1048  1.771   .     S
C836   C295    1.396   1_565 S
C836   C372    1.413   1_565 S
C837   Cl1049  1.771   .     S
C837   C909    1.413   .     A
C837   C842    1.396   1_556 S
C838   Cl1050  1.771   .     S
C838   C910    1.413   .     A
C838   C841    1.396   1_554 S
C839   Cl1051  1.771   .     S
C839   C911    1.413   .     A
C839   C844    1.396   1_556 S
C840   Cl1052  1.771   .     S
C840   C912    1.413   .     A
C840   C843    1.396   1_554 S
C841   C913    1.413   .     A
C841   Cl1053  1.771   .     S
C841   C838    1.396   1_556 S
C842   C914    1.413   .     A
C842   Cl1054  1.771   .     S
C842   C837    1.396   1_554 S
C843   Cl1055  1.771   .     S
C843   C915    1.413   .     A
C843   C840    1.396   1_556 S
C844   C916    1.413   .     A
C844   Cl1056  1.771   .     S
C844   C839    1.396   1_554 S
C845   O981    1.278   .     A
C846   O978    1.278   .     S
C847   O979    1.278   .     A
C848   O984    1.278   .     S
C849   O985    1.278   .     A
C849   O989    1.278   .     A
C850   O986    1.278   .     S
C850   O990    1.278   .     S
C851   O987    1.278   .     A
C851   O991    1.278   .     A
C852   O988    1.278   .     A
C852   O992    1.278   .     A
C853   O993    1.281   .     A
C853   C919    1.456   .     S
C853   O1019   1.281   .     A
C854   O1020   1.281   .     A
C854   C920    1.456   .     S
C854   O994    1.281   .     A
C855   O1017   1.281   .     A
C855   O995    1.281   .     A
C855   C921    1.456   .     S
C856   O996    1.281   .     A
C856   C922    1.456   .     S
C856   O1018   1.281   .     A
C857   O1023   1.281   .     A
C857   O997    1.281   .     A
C857   C923    1.456   .     S
C858   C924    1.456   .     S
C858   O998    1.281   .     A
C858   O1024   1.281   .     A
C859   O1021   1.281   .     A
C859   C917    1.456   .     S
C859   O999    1.281   .     A
C860   O1022   1.281   .     A
C860   O1000   1.281   .     A
C860   C918    1.456   .     S
C861   C927    1.456   .     S
C861   O1001   1.281   .     A
C861   O1011   1.281   .     A
C862   O1002   1.281   .     A
C862   C928    1.456   .     S
C862   O1012   1.281   .     A
C863   O1003   1.281   .     A
C863   O1009   1.281   .     A
C863   C929    1.456   .     S
C864   O1004   1.281   .     A
C864   C930    1.456   .     S
C864   O1010   1.281   .     A
C865   O1015   1.281   .     A
C865   O1005   1.281   .     A
C865   C931    1.456   .     S
C866   O1006   1.281   .     A
C866   O1016   1.281   .     A
C866   C932    1.456   .     S
C867   O1013   1.281   .     A
C867   C925    1.456   .     S
C867   O1007   1.281   .     A
C868   O1008   1.281   .     A
C868   O1014   1.281   .     A
C868   C926    1.456   .     S
C869   H941    1.083   .     S
C869   C932    1.402   .     A
C869   C884    1.386   .     A
C870   C931    1.402   .     A
C870   C883    1.386   .     A
C870   H942    1.083   .     S
C871   C882    1.386   .     A
C871   H943    1.083   .     S
C871   C930    1.402   .     A
C872   C881    1.386   .     A
C872   H944    1.083   .     S
C872   C929    1.402   .     A
C873   H945    1.083   .     S
C873   C880    1.386   .     A
C873   C928    1.402   .     A
C874   C927    1.402   .     A
C874   H946    1.083   .     S
C874   C879    1.386   .     A
C875   C926    1.402   .     A
C875   C878    1.386   .     A
C875   H947    1.083   .     S
C876   C925    1.402   .     A
C876   H948    1.083   .     S
C876   C877    1.386   .     A
C877   H949    1.083   .     S
C877   C924    1.402   .     A
C878   C923    1.402   .     A
C878   H950    1.083   .     S
C879   C922    1.402   .     A
C879   H951    1.083   .     S
C880   H952    1.083   .     S
C880   C921    1.402   .     A
C881   C920    1.402   .     A
C881   H953    1.083   .     S
C882   C919    1.402   .     A
C882   H954    1.083   .     S
C883   H955    1.083   .     S
C883   C918    1.402   .     A
C884   H956    1.083   .     S
C884   C917    1.402   .     A
C885   H957    1.083   .     S
C885   C918    1.402   .     A
C885   C900    1.386   .     A
C886   H958    1.083   .     S
C886   C899    1.386   .     A
C886   C917    1.402   .     A
C887   C920    1.402   .     A
C887   C898    1.386   .     A
C887   H959    1.083   .     S
C888   H960    1.083   .     S
C888   C919    1.402   .     A
C888   C897    1.386   .     A
C889   C922    1.402   .     A
C889   H961    1.083   .     S
C889   C896    1.386   .     A
C890   C895    1.386   .     A
C890   H962    1.083   .     S
C890   C921    1.402   .     A
C891   C894    1.386   .     A
C891   C924    1.402   .     A
C891   H963    1.083   .     S
C892   C893    1.386   .     A
C892   C923    1.402   .     A
C892   H964    1.083   .     S
C893   C926    1.402   .     A
C893   H965    1.083   .     S
C894   H966    1.083   .     S
C894   C925    1.402   .     A
C895   H967    1.083   .     S
C895   C928    1.402   .     A
C896   C927    1.402   .     A
C896   H968    1.083   .     S
C897   C930    1.402   .     A
C897   H969    1.083   .     S
C898   C929    1.402   .     A
C898   H970    1.083   .     S
C899   C932    1.402   .     A
C899   H971    1.083   .     S
C900   H972    1.083   .     S
C900   C931    1.402   .     A
C901   C933    1.422   .     A
C902   C934    1.422   .     S
C903   C295    1.413   1_565 S
C903   C399    1.422   1_565 S
C904   C400    1.422   1_565 A
C904   C296    1.413   1_565 S
C905   C565    1.413   1_655 S
C905   C665    1.422   1_655 S
C906   C666    1.422   1_655 A
C906   C566    1.413   1_655 S
C907   C935    1.422   .     A
C908   C936    1.422   .     S
C909   C401    1.422   1_565 A
C910   C938    1.422   .     S
C911   C939    1.422   .     S
C912   C672    1.422   1_655 A
C913   C937    1.422   .     S
C914   C402    1.422   1_565 A
C915   C671    1.422   1_655 A
C916   C940    1.422   .     S
C933   C934    1.415   .     S
C935   C936    1.415   .     S
C937   C938    1.415   1_556 S
C938   C937    1.415   1_554 S
C939   C940    1.415   1_556 S
C940   C939    1.415   1_554 S
O973   Zn1025  1.947   .     S
O973   Zn1029  1.947   .     S
O973   Zn1036  1.947   .     S
O974   Zn1026  1.947   .     S
O974   Zn1030  1.947   .     S
O974   Zn1039  1.947   .     S
O975   Zn1034  1.947   .     S
O975   Zn1027  1.947   .     S
O975   Zn1031  1.947   .     S
O976   Zn1037  1.947   .     S
O976   Zn1028  1.947   .     S
O976   Zn1032  1.947   .     S
O977   Zn1040  1.945   .     S
O977   C309    1.278   1_565 S
O978   Zn1039  1.945   .     S
O979   Zn1034  1.945   .     S
O980   C580    1.278   1_655 A
O980   Zn1033  1.945   .     S
O981   Zn1036  1.945   .     S
O982   Zn1035  1.945   .     S
O982   C310    1.278   1_565 A
O983   Zn1038  1.945   .     S
O983   C579    1.278   1_655 S
O984   Zn1037  1.945   .     S
O985   Zn1032  1.945   .     S
O986   Zn1031  1.945   .     S
O987   Zn1026  1.945   .     S
O988   Zn1025  1.945   .     S
O989   Zn1028  1.945   .     S
O990   Zn1027  1.945   .     S
O991   Zn1030  1.945   .     S
O992   Zn1029  1.945   .     S
O993   Zn1036  1.937   .     S
O994   Zn1035  1.937   .     S
O995   Zn1038  1.937   .     S
O996   Zn1037  1.937   .     S
O997   Zn1040  1.937   .     S
O998   Zn1039  1.937   .     S
O999   Zn1034  1.937   .     S
O1000  Zn1033  1.937   .     S
O1001  Zn1035  1.937   .     S
O1002  Zn1036  1.937   .     S
O1003  Zn1033  1.937   .     S
O1004  Zn1034  1.937   .     S
O1005  Zn1039  1.937   .     S
O1006  Zn1040  1.937   .     S
O1007  Zn1037  1.937   .     S
O1008  Zn1038  1.937   .     S
O1009  Zn760   1.937   1_655 S
O1010  Zn1027  1.937   .     S
O1011  Zn494   1.937   1_565 S
O1012  Zn1029  1.937   .     S
O1013  Zn1032  1.937   .     S
O1014  Zn763   1.937   1_655 S
O1015  Zn1026  1.937   .     S
O1016  Zn489   1.937   1_565 S
O1017  Zn759   1.937   1_655 S
O1018  Zn1028  1.937   .     S
O1019  Zn1025  1.937   .     S
O1020  Zn490   1.937   1_565 S
O1021  Zn1031  1.937   .     S
O1022  Zn764   1.937   1_655 S
O1023  Zn493   1.937   1_565 S
O1024  Zn1030  1.937   .     S
Zn1033 O708    1.947   1_655 S
Zn1035 O438    1.947   1_565 S
Zn1038 O707    1.947   1_655 S
Zn1040 O437    1.947   1_565 S
