data_str_m1_o5_o17_pcu_sym.94
_audit_creation_date              2020-01-03
_audit_creation_method            'Materials Studio'
_symmetry_space_group_name_H-M    'P1'
_symmetry_Int_Tables_number       1
_symmetry_cell_setting            triclinic
loop_
_symmetry_equiv_pos_as_xyz
  x,y,z
_cell_length_a                    31.7523
_cell_length_b                    31.7525
_cell_length_c                    34.5219
_cell_angle_alpha                 90.0301
_cell_angle_beta                  90.0370
_cell_angle_gamma                 90.1454
loop_
_atom_site_label
_atom_site_type_symbol
_atom_site_fract_x
_atom_site_fract_y
_atom_site_fract_z
_atom_site_U_iso_or_equiv
_atom_site_adp_type
_atom_site_occupancy
C1     C     0.25007   0.00001   0.35588   0.00000  Uiso   1.00
C2     C     0.33003   0.41997   0.75000   0.00000  Uiso   1.00
C3     C     0.43335   0.21096   0.02036   0.00000  Uiso   1.00
C4     C     0.27630   0.07262   0.97999   0.00000  Uiso   1.00
C5     C     0.23057   0.42526   0.01977   0.00000  Uiso   1.00
C6     C     0.42925   0.21868   0.98050   0.00000  Uiso   1.00
C7     C     0.06734   0.28783   0.02040   0.00000  Uiso   1.00
C8     C     0.01195   0.32798   0.39766   0.00000  Uiso   1.00
C9     C     0.44775   0.19098   0.60242   0.00000  Uiso   1.00
C10    C     0.18414   0.45706   0.39736   0.00000  Uiso   1.00
C11    C     0.32871   0.49995   0.60272   0.00000  Uiso   1.00
C12    C     0.48806   0.17206   0.39759   0.00000  Uiso   1.00
C13    C     0.42000   0.16999   0.24999   0.00000  Uiso   1.00
C14    C     0.05189   0.30938   0.60262   0.00000  Uiso   1.00
C15    C     0.31655   0.04283   0.39750   0.00000  Uiso   1.00
C16    C     0.17133   0.00018   0.60262   0.00000  Uiso   1.00
C17    C     0.25044   0.07871   0.89726   0.00000  Uiso   1.00
C18    C     0.20620   0.43442   0.10268   0.00000  Uiso   1.00
C19    C     0.44077   0.19793   0.89734   0.00000  Uiso   1.00
C20    C     0.07803   0.26158   0.10253   0.00000  Uiso   1.00
C21    C     0.24967   0.42132   0.89740   0.00000  Uiso   1.00
C22    C     0.29290   0.06624   0.10242   0.00000  Uiso   1.00
C23    C     0.05905   0.30224   0.89763   0.00000  Uiso   1.00
C24    C     0.08001   0.33001   0.75001   0.00000  Uiso   1.00
C25    C     0.42212   0.23754   0.10222   0.00000  Uiso   1.00
C26    C     0.42558   0.15727   0.46207   0.00000  Uiso   1.00
C27    C     0.39184   0.18538   0.44396   0.00000  Uiso   1.00
C28    C     0.02940   0.36562   0.53651   0.00000  Uiso   1.00
C29    C     0.48617   0.37607   0.55349   0.00000  Uiso   1.00
C30    C     0.36865   0.00944   0.46319   0.00000  Uiso   1.00
C31    C     0.37112   0.46526   0.44562   0.00000  Uiso   1.00
C32    C     0.14567   0.44279   0.53711   0.00000  Uiso   1.00
C33    C     0.16739   0.40425   0.55447   0.00000  Uiso   1.00
C34    C     0.07441   0.34308   0.46213   0.00000  Uiso   1.00
C35    C     0.33002   0.41998   0.25000   0.00000  Uiso   1.00
C36    C     0.10821   0.31531   0.44369   0.00000  Uiso   1.00
C37    C     0.47078   0.13452   0.53641   0.00000  Uiso   1.00
C38    C     0.01389   0.12422   0.55374   0.00000  Uiso   1.00
C39    C     0.13163   0.49112   0.46261   0.00000  Uiso   1.00
C40    C     0.12924   0.03508   0.44462   0.00000  Uiso   1.00
C41    C     0.35448   0.05779   0.53768   0.00000  Uiso   1.00
C42    C     0.33299   0.09620   0.55558   0.00000  Uiso   1.00
C43    C     0.19139   0.39611   0.96227   0.00000  Uiso   1.00
C44    C     0.15324   0.41787   0.94416   0.00000  Uiso   1.00
C45    C     0.25901   0.11857   0.03709   0.00000  Uiso   1.00
C46    C     0.16998   0.08002   0.75000   0.00000  Uiso   1.00
C47    C     0.21492   0.12106   0.05480   0.00000  Uiso   1.00
C48    C     0.11564   0.27862   0.96342   0.00000  Uiso   1.00
C49    C     0.12562   0.23550   0.94593   0.00000  Uiso   1.00
C50    C     0.40794   0.17459   0.03787   0.00000  Uiso   1.00
C51    C     0.43633   0.14116   0.05610   0.00000  Uiso   1.00
C52    C     0.30778   0.10414   0.96289   0.00000  Uiso   1.00
C53    C     0.34628   0.08219   0.94569   0.00000  Uiso   1.00
C54    C     0.23902   0.38168   0.03709   0.00000  Uiso   1.00
C55    C     0.28303   0.37868   0.05495   0.00000  Uiso   1.00
C56    C     0.38461   0.21966   0.96367   0.00000  Uiso   1.00
C57    C     0.08001   0.33000   0.25001   0.00000  Uiso   1.00
C58    C     0.37372   0.26285   0.94684   0.00000  Uiso   1.00
C59    C     0.09360   0.32361   0.03797   0.00000  Uiso   1.00
C60    C     0.06607   0.35766   0.05635   0.00000  Uiso   1.00
C61    C     0.41999   0.16999   0.74999   0.00000  Uiso   1.00
C62    C     0.17000   0.41998   0.75000   0.00000  Uiso   1.00
C63    C     0.33000   0.08001   0.25000   0.00000  Uiso   1.00
C64    C     0.41997   0.33003   0.75000   0.00000  Uiso   1.00
C65    C     0.25001  -0.00000   0.64420   0.00000  Uiso   1.00
C66    C     0.08003   0.16997   0.25000   0.00000  Uiso   1.00
C67    C     0.33001   0.08000   0.75000   0.00000  Uiso   1.00
C68    C     0.16999   0.42000   0.25000   0.00000  Uiso   1.00
C69    C     0.08002   0.16998   0.75000   0.00000  Uiso   1.00
C70    C     0.41998   0.33002   0.25000   0.00000  Uiso   1.00
C71    C     0.13834   0.38835   0.24999   0.00000  Uiso   1.00
C72    C     0.36167   0.11165   0.75000   0.00000  Uiso   1.00
C73    C     0.11167   0.13833   0.25000   0.00000  Uiso   1.00
C74    C     0.38833   0.36167   0.75000   0.00000  Uiso   1.00
C75    C     0.36165   0.11166   0.25001   0.00000  Uiso   1.00
C76    C     0.00001   0.25002   0.35578   0.00000  Uiso   1.00
C77    C     0.13835   0.38833   0.75000   0.00000  Uiso   1.00
C78    C     0.38833   0.36167   0.25000   0.00000  Uiso   1.00
C79    C     0.11167   0.13833   0.75000   0.00000  Uiso   1.00
C80    C     0.13833   0.11167   0.75000   0.00000  Uiso   1.00
C81    C     0.36167   0.38833   0.25000   0.00000  Uiso   1.00
C82    C     0.11166   0.36165   0.75002   0.00000  Uiso   1.00
C83    C     0.38835   0.13834   0.24999   0.00000  Uiso   1.00
C84    C     0.36167   0.38833   0.75000   0.00000  Uiso   1.00
C85    C     0.13833   0.11167   0.25000   0.00000  Uiso   1.00
C86    C     0.38834   0.13834   0.74998   0.00000  Uiso   1.00
C87    C     0.49998   0.24996   0.64408   0.00000  Uiso   1.00
C88    C     0.11167   0.36165   0.25001   0.00000  Uiso   1.00
C89    C     0.01174   0.28675   0.41816   0.00000  Uiso   1.00
C90    C     0.47796   0.21838   0.58128   0.00000  Uiso   1.00
C91    C     0.21554   0.48323   0.41849   0.00000  Uiso   1.00
C92    C     0.28814   0.00573   0.58184   0.00000  Uiso   1.00
C93    C     0.48840   0.21330   0.41812   0.00000  Uiso   1.00
C94    C     0.02180   0.28188   0.58139   0.00000  Uiso   1.00
C95    C     0.28491   0.01689   0.41851   0.00000  Uiso   1.00
C96    C     0.21190   0.49456   0.58175   0.00000  Uiso   1.00
C97    C     0.25574   0.03813   0.91821   0.00000  Uiso   1.00
C98    C     0.00004   0.25002   0.85593   0.00000  Uiso   1.00
C99    C     0.23251   0.46559   0.08149   0.00000  Uiso   1.00
C100   C     0.46822   0.22804   0.91861   0.00000  Uiso   1.00
C101   C     0.03684   0.26142   0.08192   0.00000  Uiso   1.00
C102   C     0.24406   0.46197   0.91820   0.00000  Uiso   1.00
C103   C     0.26666   0.03472   0.08149   0.00000  Uiso   1.00
C104   C     0.03166   0.27198   0.91873   0.00000  Uiso   1.00
C105   C     0.46341   0.23801   0.08181   0.00000  Uiso   1.00
C106   C     0.00005   0.25002   0.39800   0.00000  Uiso   1.00
C107   C     0.49992   0.25007   0.60158   0.00000  Uiso   1.00
C108   C     0.25019   0.00004   0.39828   0.00000  Uiso   1.00
C109   C     0.49999   0.24998   0.14422   0.00000  Uiso   1.00
C110   C     0.25002   0.00003   0.60191   0.00000  Uiso   1.00
C111   C     0.25000   0.00002   0.89808   0.00000  Uiso   1.00
C112   C     0.24983   0.00005   0.10171   0.00000  Uiso   1.00
C113   C     0.49996   0.25005   0.89842   0.00000  Uiso   1.00
C114   C     0.00005   0.24989   0.10201   0.00000  Uiso   1.00
C115   C     0.48292   0.21524   0.45871   0.00000  Uiso   1.00
C116   C     0.01745   0.28487   0.54067   0.00000  Uiso   1.00
C117   C     0.28721   0.01182   0.45922   0.00000  Uiso   1.00
C118   C     0.21279   0.48920   0.54105   0.00000  Uiso   1.00
C119   C     0.01731   0.28482   0.45875   0.00000  Uiso   1.00
C120   C     0.25001   0.49999   0.85580   0.00000  Uiso   1.00
C121   C     0.48260   0.21530   0.54060   0.00000  Uiso   1.00
C122   C     0.21307   0.48873   0.45912   0.00000  Uiso   1.00
C123   C     0.28725   0.01144   0.54119   0.00000  Uiso   1.00
C124   C     0.23827   0.46295   0.95884   0.00000  Uiso   1.00
C125   C     0.26126   0.03713   0.04085   0.00000  Uiso   1.00
C126   C     0.03482   0.26720   0.95939   0.00000  Uiso   1.00
C127   C     0.46545   0.23236   0.04125   0.00000  Uiso   1.00
C128   C     0.26102   0.03726   0.95890   0.00000  Uiso   1.00
C129   C     0.23765   0.46316   0.04080   0.00000  Uiso   1.00
C130   C     0.46530   0.23226   0.95934   0.00000  Uiso   1.00
C131   C     0.24997   0.49997   0.14412   0.00000  Uiso   1.00
C132   C     0.03500   0.26683   0.04130   0.00000  Uiso   1.00
C133   C     0.00012   0.25003   0.47923   0.00000  Uiso   1.00
C134   C     0.00007   0.25006   0.52019   0.00000  Uiso   1.00
C135   C     0.25010   0.00034   0.47965   0.00000  Uiso   1.00
C136   C     0.25004   0.00036   0.52064   0.00000  Uiso   1.00
C137   C     0.24957   0.00012   0.97935   0.00000  Uiso   1.00
C138   C     0.24949   0.00013   0.02034   0.00000  Uiso   1.00
C139   C     0.00011   0.24969   0.97981   0.00000  Uiso   1.00
C140   C     0.00019   0.24963   0.02078   0.00000  Uiso   1.00
C141   C     0.46176   0.18300   0.47958   0.00000  Uiso   1.00
C142   C     0.16997   0.08003   0.25000   0.00000  Uiso   1.00
C143   C     0.03075   0.32104   0.51956   0.00000  Uiso   1.00
C144   C     0.32512   0.01858   0.48030   0.00000  Uiso   1.00
C145   C     0.17738   0.47405   0.51995   0.00000  Uiso   1.00
C146   C     0.03845   0.31709   0.47967   0.00000  Uiso   1.00
C147   C     0.46942   0.17908   0.51946   0.00000  Uiso   1.00
C148   C     0.17507   0.48216   0.48002   0.00000  Uiso   1.00
C149   C     0.32266   0.02675   0.52024   0.00000  Uiso   1.00
C150   C     0.22260   0.42770   0.97979   0.00000  Uiso   1.00
C151   C     0.26804   0.07505   0.01988   0.00000  Uiso   1.00
C152   C     0.07114   0.28021   0.98049   0.00000  Uiso   1.00
H153   H     0.49115   0.38796   0.39668   0.00000  Uiso   1.00
H154   H     0.20124   0.39324   0.14693   0.00000  Uiso   1.00
H155   H     0.42111   0.13791   0.89132   0.00000  Uiso   1.00
H156   H     0.13790   0.24049   0.10378   0.00000  Uiso   1.00
H157   H     0.27924   0.36520   0.89559   0.00000  Uiso   1.00
H158   H     0.34821   0.09747   0.10519   0.00000  Uiso   1.00
H159   H     0.10073   0.31227   0.85451   0.00000  Uiso   1.00
H160   H     0.36192   0.25770   0.10290   0.00000  Uiso   1.00
H161   H     0.38098   0.20917   0.46532   0.00000  Uiso   1.00
H162   H     0.40388   0.20175   0.41785   0.00000  Uiso   1.00
H163   H     0.36443   0.16582   0.43516   0.00000  Uiso   1.00
H164   H     0.43786   0.14919   0.64548   0.00000  Uiso   1.00
H165   H     0.43672   0.13359   0.44096   0.00000  Uiso   1.00
H166   H     0.40900   0.13901   0.48491   0.00000  Uiso   1.00
H167   H     0.46138   0.37182   0.53109   0.00000  Uiso   1.00
H168   H     0.47862   0.35585   0.57871   0.00000  Uiso   1.00
H169   H     0.48582   0.40938   0.56327   0.00000  Uiso   1.00
H170   H     0.05470   0.37129   0.55792   0.00000  Uiso   1.00
H171   H     0.03468   0.38957   0.51356   0.00000  Uiso   1.00
H172   H     0.36188   0.44133   0.46751   0.00000  Uiso   1.00
H173   H     0.35038   0.46211   0.41995   0.00000  Uiso   1.00
H174   H     0.40395   0.45882   0.43630   0.00000  Uiso   1.00
H175   H     0.14301   0.45214   0.35302   0.00000  Uiso   1.00
H176   H     0.37864   0.03353   0.44198   0.00000  Uiso   1.00
H177   H     0.39317   0.01006   0.48615   0.00000  Uiso   1.00
H178   H     0.18855   0.38959   0.53271   0.00000  Uiso   1.00
H179   H     0.18594   0.41270   0.58056   0.00000  Uiso   1.00
H180   H     0.14324   0.38073   0.56304   0.00000  Uiso   1.00
H181   H     0.12446   0.45758   0.55851   0.00000  Uiso   1.00
H182   H     0.12456   0.43012   0.51421   0.00000  Uiso   1.00
H183   H     0.11969   0.29176   0.46499   0.00000  Uiso   1.00
H184   H     0.09602   0.29866   0.41777   0.00000  Uiso   1.00
H185   H     0.13522   0.33522   0.43451   0.00000  Uiso   1.00
H186   H     0.38462   0.47001   0.60474   0.00000  Uiso   1.00
H187   H     0.06298   0.36682   0.44122   0.00000  Uiso   1.00
H188   H     0.09107   0.36128   0.48499   0.00000  Uiso   1.00
H189   H     0.03888   0.12864   0.53158   0.00000  Uiso   1.00
H190   H     0.02109   0.14439   0.57910   0.00000  Uiso   1.00
H191   H     0.01430   0.09088   0.56342   0.00000  Uiso   1.00
H192   H     0.44536   0.12878   0.55765   0.00000  Uiso   1.00
H193   H     0.46571   0.11057   0.51339   0.00000  Uiso   1.00
H194   H     0.13844   0.05928   0.46632   0.00000  Uiso   1.00
H195   H     0.15006   0.03790   0.41900   0.00000  Uiso   1.00
H196   H     0.09644   0.04143   0.43513   0.00000  Uiso   1.00
H197   H     0.00863   0.11201   0.39660   0.00000  Uiso   1.00
H198   H     0.12175   0.46677   0.44155   0.00000  Uiso   1.00
H199   H     0.10703   0.49076   0.48548   0.00000  Uiso   1.00
H200   H     0.31226   0.11156   0.53387   0.00000  Uiso   1.00
H201   H     0.31400   0.08739   0.58127   0.00000  Uiso   1.00
H202   H     0.35728   0.11928   0.56496   0.00000  Uiso   1.00
H203   H     0.37574   0.04267   0.55884   0.00000  Uiso   1.00
H204   H     0.37550   0.07069   0.51485   0.00000  Uiso   1.00
H205   H     0.13796   0.43881   0.96574   0.00000  Uiso   1.00
H206   H     0.16232   0.43669   0.91844   0.00000  Uiso   1.00
H207   H     0.13000   0.39374   0.93476   0.00000  Uiso   1.00
H208   H     0.11186   0.32928   0.60846   0.00000  Uiso   1.00
H209   H     0.20643   0.37467   0.94121   0.00000  Uiso   1.00
H210   H     0.17818   0.37524   0.98507   0.00000  Uiso   1.00
H211   H     0.19087   0.11183   0.03298   0.00000  Uiso   1.00
H212   H     0.21190   0.10032   0.08046   0.00000  Uiso   1.00
H213   H     0.20854   0.15390   0.06417   0.00000  Uiso   1.00
H214   H     0.28321   0.12851   0.05827   0.00000  Uiso   1.00
H215   H     0.25957   0.14309   0.01415   0.00000  Uiso   1.00
H216   H     0.12104   0.21045   0.96800   0.00000  Uiso   1.00
H217   H     0.10538   0.22856   0.92055   0.00000  Uiso   1.00
H218   H     0.15895   0.23491   0.93623   0.00000  Uiso   1.00
H219   H     0.34794   0.09801   0.39441   0.00000  Uiso   1.00
H220   H     0.12146   0.30408   0.94224   0.00000  Uiso   1.00
H221   H     0.13970   0.28343   0.98638   0.00000  Uiso   1.00
H222   H     0.46025   0.13045   0.03482   0.00000  Uiso   1.00
H223   H     0.45254   0.15343   0.08224   0.00000  Uiso   1.00
H224   H     0.41700   0.11360   0.06490   0.00000  Uiso   1.00
H225   H     0.38414   0.18558   0.05891   0.00000  Uiso   1.00
H226   H     0.38988   0.15776   0.01500   0.00000  Uiso   1.00
H227   H     0.36076   0.06101   0.96753   0.00000  Uiso   1.00
H228   H     0.33781   0.06362   0.91961   0.00000  Uiso   1.00
H229   H     0.36994   0.10621   0.93714   0.00000  Uiso   1.00
H230   H     0.11539   0.03007   0.60478   0.00000  Uiso   1.00
H231   H     0.29319   0.12539   0.94142   0.00000  Uiso   1.00
H232   H     0.32047   0.12522   0.98582   0.00000  Uiso   1.00
H233   H     0.30725   0.38750   0.03318   0.00000  Uiso   1.00
H234   H     0.28628   0.39949   0.08056   0.00000  Uiso   1.00
H235   H     0.28895   0.34581   0.06444   0.00000  Uiso   1.00
H236   H     0.21463   0.37209   0.05817   0.00000  Uiso   1.00
H237   H     0.23827   0.35708   0.01420   0.00000  Uiso   1.00
H238   H     0.37772   0.28759   0.96932   0.00000  Uiso   1.00
H239   H     0.39386   0.27071   0.92164   0.00000  Uiso   1.00
H240   H     0.34039   0.26290   0.93706   0.00000  Uiso   1.00
H241   H     0.22092   0.13484   0.89496   0.00000  Uiso   1.00
H242   H     0.37910   0.19439   0.94221   0.00000  Uiso   1.00
H243   H     0.36079   0.21406   0.98666   0.00000  Uiso   1.00
H244   H     0.04268   0.36933   0.03498   0.00000  Uiso   1.00
H245   H     0.04925   0.34562   0.08221   0.00000  Uiso   1.00
H246   H     0.08619   0.38450   0.06562   0.00000  Uiso   1.00
H247   H     0.11726   0.31205   0.05891   0.00000  Uiso   1.00
H248   H     0.11194   0.34010   0.01514   0.00000  Uiso   1.00
O249   O     0.25000  -0.00000   0.25000   0.00000  Uiso   1.00
O250   O     0.25000   0.46538   0.66251   0.00000  Uiso   1.00
O251   O     0.46538   0.25000   0.33749   0.00000  Uiso   1.00
O252   O     0.03461   0.25000   0.66251   0.00000  Uiso   1.00
O253   O     0.00000   0.21538   0.83749   0.00000  Uiso   1.00
O254   O    -0.00000   0.28461   0.16251   0.00000  Uiso   1.00
O255   O     0.28461  -0.00000   0.83749   0.00000  Uiso   1.00
O256   O     0.21538  -0.00000   0.16251   0.00000  Uiso   1.00
O257   O     0.00000   0.28461   0.83749   0.00000  Uiso   1.00
O258   O     0.00000   0.21538   0.16251   0.00000  Uiso   1.00
O259   O     0.21538  -0.00000   0.83749   0.00000  Uiso   1.00
O260   O     0.25000  -0.00000   0.75000   0.00000  Uiso   1.00
O261   O     0.28461  -0.00000   0.16251   0.00000  Uiso   1.00
O262   O     0.20126   0.08332   0.27298   0.00000  Uiso   1.00
O263   O     0.29873   0.41668   0.72702   0.00000  Uiso   1.00
O264   O     0.41668   0.20126   0.27298   0.00000  Uiso   1.00
O265   O     0.08332   0.29873   0.72702   0.00000  Uiso   1.00
O266   O     0.29873   0.41668   0.27298   0.00000  Uiso   1.00
O267   O     0.20126   0.08332   0.72702   0.00000  Uiso   1.00
O268   O     0.08332   0.29873   0.27298   0.00000  Uiso   1.00
O269   O     0.41668   0.20126   0.72702   0.00000  Uiso   1.00
O270   O     0.20126   0.41668   0.72702   0.00000  Uiso   1.00
O271   O     0.00000   0.25000   0.25000   0.00000  Uiso   1.00
O272   O     0.29873   0.08332   0.27298   0.00000  Uiso   1.00
O273   O     0.41668   0.29873   0.72702   0.00000  Uiso   1.00
O274   O     0.08332   0.20126   0.27298   0.00000  Uiso   1.00
O275   O     0.29873   0.08332   0.72702   0.00000  Uiso   1.00
O276   O     0.20126   0.41668   0.27298   0.00000  Uiso   1.00
O277   O     0.08332   0.20126   0.72702   0.00000  Uiso   1.00
O278   O     0.41668   0.29873   0.27298   0.00000  Uiso   1.00
O279   O     0.45126   0.33332   0.77298   0.00000  Uiso   1.00
O280   O     0.04873   0.16668   0.22702   0.00000  Uiso   1.00
O281   O     0.16668   0.45126   0.77298   0.00000  Uiso   1.00
O282   O     0.00000   0.25000   0.75000   0.00000  Uiso   1.00
O283   O     0.33332   0.04873   0.22702   0.00000  Uiso   1.00
O284   O     0.04873   0.16668   0.77298   0.00000  Uiso   1.00
O285   O     0.45126   0.33332   0.22702   0.00000  Uiso   1.00
O286   O     0.33332   0.04873   0.77298   0.00000  Uiso   1.00
O287   O     0.16668   0.45126   0.22702   0.00000  Uiso   1.00
O288   O     0.45126   0.16668   0.22702   0.00000  Uiso   1.00
O289   O     0.04873   0.33332   0.77298   0.00000  Uiso   1.00
O290   O     0.16668   0.04873   0.22702   0.00000  Uiso   1.00
O291   O     0.33332   0.45126   0.77298   0.00000  Uiso   1.00
O292   O     0.04873   0.33332   0.22702   0.00000  Uiso   1.00
O293   O     0.25000   0.46538   0.33749   0.00000  Uiso   1.00
O294   O     0.45126   0.16668   0.77298   0.00000  Uiso   1.00
O295   O     0.33332   0.45126   0.22702   0.00000  Uiso   1.00
O296   O     0.16668   0.04873   0.77298   0.00000  Uiso   1.00
O297   O     0.03228   0.33281   0.36791   0.00000  Uiso   1.00
O298   O     0.48861   0.36143   0.41284   0.00000  Uiso   1.00
O299   O     0.41075   0.19021   0.59256   0.00000  Uiso   1.00
O300   O     0.46148   0.16631   0.63350   0.00000  Uiso   1.00
O301   O     0.17664   0.42126   0.40851   0.00000  Uiso   1.00
O302   O     0.16341   0.47314   0.36484   0.00000  Uiso   1.00
O303   O     0.33631   0.01985   0.63226   0.00000  Uiso   1.00
O304   O     0.25000   0.03461   0.66251   0.00000  Uiso   1.00
O305   O     0.35820   0.47133   0.58829   0.00000  Uiso   1.00
O306   O     0.46770   0.16728   0.36782   0.00000  Uiso   1.00
O307   O     0.01127   0.13854   0.41278   0.00000  Uiso   1.00
O308   O     0.03987   0.33111   0.62970   0.00000  Uiso   1.00
O309   O     0.09419   0.31010   0.59145   0.00000  Uiso   1.00
O310   O     0.33443   0.02888   0.36887   0.00000  Uiso   1.00
O311   O     0.32584   0.08340   0.41082   0.00000  Uiso   1.00
O312   O     0.16375   0.48008   0.63203   0.00000  Uiso   1.00
O313   O     0.14181   0.02887   0.58834   0.00000  Uiso   1.00
O314   O     0.27069   0.08613   0.86791   0.00000  Uiso   1.00
O315   O     0.03461   0.25000   0.33749   0.00000  Uiso   1.00
O316   O     0.22189   0.10843   0.91142   0.00000  Uiso   1.00
O317   O     0.17021   0.42736   0.09175   0.00000  Uiso   1.00
O318   O     0.22235   0.41344   0.13503   0.00000  Uiso   1.00
O319   O     0.41890   0.21000   0.87038   0.00000  Uiso   1.00
O320   O     0.44030   0.15557   0.90832   0.00000  Uiso   1.00
O321   O     0.08288   0.28206   0.13221   0.00000  Uiso   1.00
O322   O     0.11140   0.23798   0.08754   0.00000  Uiso   1.00
O323   O     0.22986   0.41381   0.86778   0.00000  Uiso   1.00
O324   O     0.27802   0.39166   0.91199   0.00000  Uiso   1.00
O325   O     0.27926   0.08416   0.13116   0.00000  Uiso   1.00
O326   O     0.46538   0.25000   0.66251   0.00000  Uiso   1.00
O327   O     0.33338   0.07541   0.08885   0.00000  Uiso   1.00
O328   O     0.05994   0.33918   0.90766   0.00000  Uiso   1.00
O329   O     0.08360   0.28862   0.86644   0.00000  Uiso   1.00
O330   O     0.41740   0.21737   0.13208   0.00000  Uiso   1.00
O331   O     0.38847   0.26041   0.08680   0.00000  Uiso   1.00
O332   O     0.25000   0.03461   0.33749   0.00000  Uiso   1.00
Zn333  Zn    0.20052  -0.00000   0.21730   0.00000  Uiso   1.00
Zn334  Zn    0.04947   0.25000   0.28270   0.00000  Uiso   1.00
Zn335  Zn    0.25000   0.45052   0.71730   0.00000  Uiso   1.00
Zn336  Zn    0.25000   0.04947   0.28270   0.00000  Uiso   1.00
Zn337  Zn    0.04947   0.25000   0.71730   0.00000  Uiso   1.00
Zn338  Zn    0.45052   0.25000   0.28270   0.00000  Uiso   1.00
Zn339  Zn    0.25000   0.04947   0.71730   0.00000  Uiso   1.00
Zn340  Zn    0.25000   0.45052   0.28270   0.00000  Uiso   1.00
Zn341  Zn    0.29947  -0.00000   0.78270   0.00000  Uiso   1.00
Zn342  Zn    0.00000   0.20052   0.21730   0.00000  Uiso   1.00
Zn343  Zn    0.00000   0.29947   0.78270   0.00000  Uiso   1.00
Zn344  Zn    0.29947  -0.00000   0.21730   0.00000  Uiso   1.00
Zn345  Zn    0.20052  -0.00000   0.78270   0.00000  Uiso   1.00
Zn346  Zn    0.00000   0.29947   0.21730   0.00000  Uiso   1.00
Zn347  Zn    0.00000   0.20052   0.78270   0.00000  Uiso   1.00
Zn348  Zn    0.45052   0.25000   0.71730   0.00000  Uiso   1.00
C349   C     0.75007   0.00001   0.35588   0.00000  Uiso   1.00
C350   C     0.83003   0.41997   0.75000   0.00000  Uiso   1.00
C351   C     0.93335   0.21096   0.02036   0.00000  Uiso   1.00
C352   C     0.77630   0.07262   0.97999   0.00000  Uiso   1.00
C353   C     0.73057   0.42526   0.01977   0.00000  Uiso   1.00
C354   C     0.92925   0.21868   0.98050   0.00000  Uiso   1.00
C355   C     0.56734   0.28783   0.02040   0.00000  Uiso   1.00
C356   C     0.51195   0.32798   0.39766   0.00000  Uiso   1.00
C357   C     0.94775   0.19098   0.60242   0.00000  Uiso   1.00
C358   C     0.68414   0.45706   0.39736   0.00000  Uiso   1.00
C359   C     0.82871   0.49995   0.60272   0.00000  Uiso   1.00
C360   C     0.98806   0.17206   0.39759   0.00000  Uiso   1.00
C361   C     0.92000   0.16999   0.24999   0.00000  Uiso   1.00
C362   C     0.55189   0.30938   0.60262   0.00000  Uiso   1.00
C363   C     0.81655   0.04283   0.39750   0.00000  Uiso   1.00
C364   C     0.67133   0.00018   0.60262   0.00000  Uiso   1.00
C365   C     0.75044   0.07871   0.89726   0.00000  Uiso   1.00
C366   C     0.70620   0.43442   0.10268   0.00000  Uiso   1.00
C367   C     0.94077   0.19793   0.89734   0.00000  Uiso   1.00
C368   C     0.57803   0.26158   0.10253   0.00000  Uiso   1.00
C369   C     0.74967   0.42132   0.89740   0.00000  Uiso   1.00
C370   C     0.79290   0.06624   0.10242   0.00000  Uiso   1.00
C371   C     0.55905   0.30224   0.89763   0.00000  Uiso   1.00
C372   C     0.58001   0.33001   0.75001   0.00000  Uiso   1.00
C373   C     0.92212   0.23754   0.10222   0.00000  Uiso   1.00
C374   C     0.92558   0.15727   0.46207   0.00000  Uiso   1.00
C375   C     0.89184   0.18538   0.44396   0.00000  Uiso   1.00
C376   C     0.52940   0.36562   0.53651   0.00000  Uiso   1.00
C377   C     0.98617   0.37607   0.55349   0.00000  Uiso   1.00
C378   C     0.86865   0.00944   0.46319   0.00000  Uiso   1.00
C379   C     0.87112   0.46526   0.44562   0.00000  Uiso   1.00
C380   C     0.64567   0.44279   0.53711   0.00000  Uiso   1.00
C381   C     0.66739   0.40425   0.55447   0.00000  Uiso   1.00
C382   C     0.57441   0.34308   0.46213   0.00000  Uiso   1.00
C383   C     0.83002   0.41998   0.25000   0.00000  Uiso   1.00
C384   C     0.60821   0.31531   0.44369   0.00000  Uiso   1.00
C385   C     0.97078   0.13452   0.53641   0.00000  Uiso   1.00
C386   C     0.51389   0.12422   0.55374   0.00000  Uiso   1.00
C387   C     0.63163   0.49112   0.46261   0.00000  Uiso   1.00
C388   C     0.62924   0.03508   0.44462   0.00000  Uiso   1.00
C389   C     0.85448   0.05779   0.53768   0.00000  Uiso   1.00
C390   C     0.83299   0.09620   0.55558   0.00000  Uiso   1.00
C391   C     0.69139   0.39611   0.96227   0.00000  Uiso   1.00
C392   C     0.65324   0.41787   0.94416   0.00000  Uiso   1.00
C393   C     0.75901   0.11857   0.03709   0.00000  Uiso   1.00
C394   C     0.66998   0.08002   0.75000   0.00000  Uiso   1.00
C395   C     0.71492   0.12106   0.05480   0.00000  Uiso   1.00
C396   C     0.61564   0.27862   0.96342   0.00000  Uiso   1.00
C397   C     0.62562   0.23550   0.94593   0.00000  Uiso   1.00
C398   C     0.90794   0.17459   0.03787   0.00000  Uiso   1.00
C399   C     0.93633   0.14116   0.05610   0.00000  Uiso   1.00
C400   C     0.80778   0.10414   0.96289   0.00000  Uiso   1.00
C401   C     0.84628   0.08219   0.94569   0.00000  Uiso   1.00
C402   C     0.73902   0.38168   0.03709   0.00000  Uiso   1.00
C403   C     0.78303   0.37868   0.05495   0.00000  Uiso   1.00
C404   C     0.88461   0.21966   0.96367   0.00000  Uiso   1.00
C405   C     0.58001   0.33000   0.25001   0.00000  Uiso   1.00
C406   C     0.87372   0.26285   0.94684   0.00000  Uiso   1.00
C407   C     0.59360   0.32361   0.03797   0.00000  Uiso   1.00
C408   C     0.56607   0.35766   0.05635   0.00000  Uiso   1.00
C409   C     0.91999   0.16999   0.74999   0.00000  Uiso   1.00
C410   C     0.67000   0.41998   0.75000   0.00000  Uiso   1.00
C411   C     0.83000   0.08001   0.25000   0.00000  Uiso   1.00
C412   C     0.91997   0.33003   0.75000   0.00000  Uiso   1.00
C413   C     0.75001  -0.00000   0.64420   0.00000  Uiso   1.00
C414   C     0.58003   0.16997   0.25000   0.00000  Uiso   1.00
C415   C     0.83001   0.08000   0.75000   0.00000  Uiso   1.00
C416   C     0.66999   0.42000   0.25000   0.00000  Uiso   1.00
C417   C     0.58002   0.16998   0.75000   0.00000  Uiso   1.00
C418   C     0.91998   0.33002   0.25000   0.00000  Uiso   1.00
C419   C     0.63834   0.38835   0.24999   0.00000  Uiso   1.00
C420   C     0.86167   0.11165   0.75000   0.00000  Uiso   1.00
C421   C     0.61167   0.13833   0.25000   0.00000  Uiso   1.00
C422   C     0.88833   0.36167   0.75000   0.00000  Uiso   1.00
C423   C     0.86165   0.11166   0.25001   0.00000  Uiso   1.00
C424   C     0.50001   0.25002   0.35578   0.00000  Uiso   1.00
C425   C     0.63835   0.38833   0.75000   0.00000  Uiso   1.00
C426   C     0.88833   0.36167   0.25000   0.00000  Uiso   1.00
C427   C     0.61167   0.13833   0.75000   0.00000  Uiso   1.00
C428   C     0.63833   0.11167   0.75000   0.00000  Uiso   1.00
C429   C     0.86167   0.38833   0.25000   0.00000  Uiso   1.00
C430   C     0.61166   0.36165   0.75002   0.00000  Uiso   1.00
C431   C     0.88835   0.13834   0.24999   0.00000  Uiso   1.00
C432   C     0.86167   0.38833   0.75000   0.00000  Uiso   1.00
C433   C     0.63833   0.11167   0.25000   0.00000  Uiso   1.00
C434   C     0.88834   0.13834   0.74998   0.00000  Uiso   1.00
C435   C     0.99998   0.24996   0.64408   0.00000  Uiso   1.00
C436   C     0.61167   0.36165   0.25001   0.00000  Uiso   1.00
C437   C     0.51174   0.28675   0.41816   0.00000  Uiso   1.00
C438   C     0.97796   0.21838   0.58128   0.00000  Uiso   1.00
C439   C     0.71554   0.48323   0.41849   0.00000  Uiso   1.00
C440   C     0.78814   0.00573   0.58184   0.00000  Uiso   1.00
C441   C     0.98840   0.21330   0.41812   0.00000  Uiso   1.00
C442   C     0.52180   0.28188   0.58139   0.00000  Uiso   1.00
C443   C     0.78491   0.01689   0.41851   0.00000  Uiso   1.00
C444   C     0.71190   0.49456   0.58175   0.00000  Uiso   1.00
C445   C     0.75574   0.03813   0.91821   0.00000  Uiso   1.00
C446   C     0.50004   0.25002   0.85593   0.00000  Uiso   1.00
C447   C     0.73251   0.46559   0.08149   0.00000  Uiso   1.00
C448   C     0.96822   0.22804   0.91861   0.00000  Uiso   1.00
C449   C     0.53684   0.26142   0.08192   0.00000  Uiso   1.00
C450   C     0.74406   0.46197   0.91820   0.00000  Uiso   1.00
C451   C     0.76666   0.03472   0.08149   0.00000  Uiso   1.00
C452   C     0.53166   0.27198   0.91873   0.00000  Uiso   1.00
C453   C     0.96341   0.23801   0.08181   0.00000  Uiso   1.00
C454   C     0.50005   0.25002   0.39800   0.00000  Uiso   1.00
C455   C     0.99992   0.25007   0.60158   0.00000  Uiso   1.00
C456   C     0.75019   0.00004   0.39828   0.00000  Uiso   1.00
C457   C     0.99999   0.24998   0.14422   0.00000  Uiso   1.00
C458   C     0.75002   0.00003   0.60191   0.00000  Uiso   1.00
C459   C     0.75000   0.00002   0.89808   0.00000  Uiso   1.00
C460   C     0.74983   0.00005   0.10171   0.00000  Uiso   1.00
C461   C     0.99996   0.25005   0.89842   0.00000  Uiso   1.00
C462   C     0.50005   0.24989   0.10201   0.00000  Uiso   1.00
C463   C     0.98292   0.21524   0.45871   0.00000  Uiso   1.00
C464   C     0.51745   0.28487   0.54067   0.00000  Uiso   1.00
C465   C     0.78721   0.01182   0.45922   0.00000  Uiso   1.00
C466   C     0.71279   0.48920   0.54105   0.00000  Uiso   1.00
C467   C     0.51731   0.28482   0.45875   0.00000  Uiso   1.00
C468   C     0.75001   0.49999   0.85580   0.00000  Uiso   1.00
C469   C     0.98260   0.21530   0.54060   0.00000  Uiso   1.00
C470   C     0.71307   0.48873   0.45912   0.00000  Uiso   1.00
C471   C     0.78725   0.01144   0.54119   0.00000  Uiso   1.00
C472   C     0.73827   0.46295   0.95884   0.00000  Uiso   1.00
C473   C     0.76126   0.03713   0.04085   0.00000  Uiso   1.00
C474   C     0.53482   0.26720   0.95939   0.00000  Uiso   1.00
C475   C     0.96545   0.23236   0.04125   0.00000  Uiso   1.00
C476   C     0.76102   0.03726   0.95890   0.00000  Uiso   1.00
C477   C     0.73765   0.46316   0.04080   0.00000  Uiso   1.00
C478   C     0.96530   0.23226   0.95934   0.00000  Uiso   1.00
C479   C     0.74997   0.49997   0.14412   0.00000  Uiso   1.00
C480   C     0.53500   0.26683   0.04130   0.00000  Uiso   1.00
C481   C     0.50012   0.25003   0.47923   0.00000  Uiso   1.00
C482   C     0.50007   0.25006   0.52019   0.00000  Uiso   1.00
C483   C     0.75010   0.00034   0.47965   0.00000  Uiso   1.00
C484   C     0.75004   0.00036   0.52064   0.00000  Uiso   1.00
C485   C     0.74957   0.00012   0.97935   0.00000  Uiso   1.00
C486   C     0.74949   0.00013   0.02034   0.00000  Uiso   1.00
C487   C     0.50011   0.24969   0.97981   0.00000  Uiso   1.00
C488   C     0.50019   0.24963   0.02078   0.00000  Uiso   1.00
C489   C     0.96176   0.18300   0.47958   0.00000  Uiso   1.00
C490   C     0.66997   0.08003   0.25000   0.00000  Uiso   1.00
C491   C     0.53075   0.32104   0.51956   0.00000  Uiso   1.00
C492   C     0.82512   0.01858   0.48030   0.00000  Uiso   1.00
C493   C     0.67738   0.47405   0.51995   0.00000  Uiso   1.00
C494   C     0.53845   0.31709   0.47967   0.00000  Uiso   1.00
C495   C     0.96942   0.17908   0.51946   0.00000  Uiso   1.00
C496   C     0.67507   0.48216   0.48002   0.00000  Uiso   1.00
C497   C     0.82266   0.02675   0.52024   0.00000  Uiso   1.00
C498   C     0.72260   0.42770   0.97979   0.00000  Uiso   1.00
C499   C     0.76804   0.07505   0.01988   0.00000  Uiso   1.00
C500   C     0.57114   0.28021   0.98049   0.00000  Uiso   1.00
H501   H     0.99115   0.38796   0.39668   0.00000  Uiso   1.00
H502   H     0.70124   0.39324   0.14693   0.00000  Uiso   1.00
H503   H     0.92111   0.13791   0.89132   0.00000  Uiso   1.00
H504   H     0.63790   0.24049   0.10378   0.00000  Uiso   1.00
H505   H     0.77924   0.36520   0.89559   0.00000  Uiso   1.00
H506   H     0.84821   0.09747   0.10519   0.00000  Uiso   1.00
H507   H     0.60073   0.31227   0.85451   0.00000  Uiso   1.00
H508   H     0.86192   0.25770   0.10290   0.00000  Uiso   1.00
H509   H     0.88098   0.20917   0.46532   0.00000  Uiso   1.00
H510   H     0.90388   0.20175   0.41785   0.00000  Uiso   1.00
H511   H     0.86443   0.16582   0.43516   0.00000  Uiso   1.00
H512   H     0.93786   0.14919   0.64548   0.00000  Uiso   1.00
H513   H     0.93672   0.13359   0.44096   0.00000  Uiso   1.00
H514   H     0.90900   0.13901   0.48491   0.00000  Uiso   1.00
H515   H     0.96138   0.37182   0.53109   0.00000  Uiso   1.00
H516   H     0.97862   0.35585   0.57871   0.00000  Uiso   1.00
H517   H     0.98582   0.40938   0.56327   0.00000  Uiso   1.00
H518   H     0.55470   0.37129   0.55792   0.00000  Uiso   1.00
H519   H     0.53468   0.38957   0.51356   0.00000  Uiso   1.00
H520   H     0.86188   0.44133   0.46751   0.00000  Uiso   1.00
H521   H     0.85038   0.46211   0.41995   0.00000  Uiso   1.00
H522   H     0.90395   0.45882   0.43630   0.00000  Uiso   1.00
H523   H     0.64301   0.45214   0.35302   0.00000  Uiso   1.00
H524   H     0.87864   0.03353   0.44198   0.00000  Uiso   1.00
H525   H     0.89317   0.01006   0.48615   0.00000  Uiso   1.00
H526   H     0.68855   0.38959   0.53271   0.00000  Uiso   1.00
H527   H     0.68594   0.41270   0.58056   0.00000  Uiso   1.00
H528   H     0.64324   0.38073   0.56304   0.00000  Uiso   1.00
H529   H     0.62446   0.45758   0.55851   0.00000  Uiso   1.00
H530   H     0.62456   0.43012   0.51421   0.00000  Uiso   1.00
H531   H     0.61969   0.29176   0.46499   0.00000  Uiso   1.00
H532   H     0.59602   0.29866   0.41777   0.00000  Uiso   1.00
H533   H     0.63522   0.33522   0.43451   0.00000  Uiso   1.00
H534   H     0.88462   0.47001   0.60474   0.00000  Uiso   1.00
H535   H     0.56298   0.36682   0.44122   0.00000  Uiso   1.00
H536   H     0.59107   0.36128   0.48499   0.00000  Uiso   1.00
H537   H     0.53888   0.12864   0.53158   0.00000  Uiso   1.00
H538   H     0.52109   0.14439   0.57910   0.00000  Uiso   1.00
H539   H     0.51430   0.09088   0.56342   0.00000  Uiso   1.00
H540   H     0.94536   0.12878   0.55765   0.00000  Uiso   1.00
H541   H     0.96571   0.11057   0.51339   0.00000  Uiso   1.00
H542   H     0.63844   0.05928   0.46632   0.00000  Uiso   1.00
H543   H     0.65006   0.03790   0.41900   0.00000  Uiso   1.00
H544   H     0.59644   0.04143   0.43513   0.00000  Uiso   1.00
H545   H     0.50863   0.11201   0.39660   0.00000  Uiso   1.00
H546   H     0.62175   0.46677   0.44155   0.00000  Uiso   1.00
H547   H     0.60703   0.49076   0.48548   0.00000  Uiso   1.00
H548   H     0.81226   0.11156   0.53387   0.00000  Uiso   1.00
H549   H     0.81400   0.08739   0.58127   0.00000  Uiso   1.00
H550   H     0.85728   0.11928   0.56496   0.00000  Uiso   1.00
H551   H     0.87574   0.04267   0.55884   0.00000  Uiso   1.00
H552   H     0.87550   0.07069   0.51485   0.00000  Uiso   1.00
H553   H     0.63796   0.43881   0.96574   0.00000  Uiso   1.00
H554   H     0.66232   0.43669   0.91844   0.00000  Uiso   1.00
H555   H     0.63000   0.39374   0.93476   0.00000  Uiso   1.00
H556   H     0.61186   0.32928   0.60846   0.00000  Uiso   1.00
H557   H     0.70643   0.37467   0.94121   0.00000  Uiso   1.00
H558   H     0.67818   0.37524   0.98507   0.00000  Uiso   1.00
H559   H     0.69087   0.11183   0.03298   0.00000  Uiso   1.00
H560   H     0.71190   0.10032   0.08046   0.00000  Uiso   1.00
H561   H     0.70854   0.15390   0.06417   0.00000  Uiso   1.00
H562   H     0.78321   0.12851   0.05827   0.00000  Uiso   1.00
H563   H     0.75957   0.14309   0.01415   0.00000  Uiso   1.00
H564   H     0.62104   0.21045   0.96800   0.00000  Uiso   1.00
H565   H     0.60538   0.22856   0.92055   0.00000  Uiso   1.00
H566   H     0.65895   0.23491   0.93623   0.00000  Uiso   1.00
H567   H     0.84794   0.09801   0.39441   0.00000  Uiso   1.00
H568   H     0.62146   0.30408   0.94224   0.00000  Uiso   1.00
H569   H     0.63970   0.28343   0.98638   0.00000  Uiso   1.00
H570   H     0.96025   0.13045   0.03482   0.00000  Uiso   1.00
H571   H     0.95254   0.15343   0.08224   0.00000  Uiso   1.00
H572   H     0.91700   0.11360   0.06490   0.00000  Uiso   1.00
H573   H     0.88414   0.18558   0.05891   0.00000  Uiso   1.00
H574   H     0.88988   0.15776   0.01500   0.00000  Uiso   1.00
H575   H     0.86076   0.06101   0.96753   0.00000  Uiso   1.00
H576   H     0.83781   0.06362   0.91961   0.00000  Uiso   1.00
H577   H     0.86994   0.10621   0.93714   0.00000  Uiso   1.00
H578   H     0.61539   0.03007   0.60478   0.00000  Uiso   1.00
H579   H     0.79319   0.12539   0.94142   0.00000  Uiso   1.00
H580   H     0.82047   0.12522   0.98582   0.00000  Uiso   1.00
H581   H     0.80725   0.38750   0.03318   0.00000  Uiso   1.00
H582   H     0.78628   0.39949   0.08056   0.00000  Uiso   1.00
H583   H     0.78895   0.34581   0.06444   0.00000  Uiso   1.00
H584   H     0.71463   0.37209   0.05817   0.00000  Uiso   1.00
H585   H     0.73827   0.35708   0.01420   0.00000  Uiso   1.00
H586   H     0.87772   0.28759   0.96932   0.00000  Uiso   1.00
H587   H     0.89386   0.27071   0.92164   0.00000  Uiso   1.00
H588   H     0.84039   0.26290   0.93706   0.00000  Uiso   1.00
H589   H     0.72092   0.13484   0.89496   0.00000  Uiso   1.00
H590   H     0.87910   0.19439   0.94221   0.00000  Uiso   1.00
H591   H     0.86079   0.21406   0.98666   0.00000  Uiso   1.00
H592   H     0.54268   0.36933   0.03498   0.00000  Uiso   1.00
H593   H     0.54925   0.34562   0.08221   0.00000  Uiso   1.00
H594   H     0.58619   0.38450   0.06562   0.00000  Uiso   1.00
H595   H     0.61726   0.31205   0.05891   0.00000  Uiso   1.00
H596   H     0.61194   0.34010   0.01514   0.00000  Uiso   1.00
O597   O     0.75000  -0.00000   0.25000   0.00000  Uiso   1.00
O598   O     0.75000   0.46538   0.66251   0.00000  Uiso   1.00
O599   O     0.96538   0.25000   0.33749   0.00000  Uiso   1.00
O600   O     0.53461   0.25000   0.66251   0.00000  Uiso   1.00
O601   O     0.50000   0.21538   0.83749   0.00000  Uiso   1.00
O602   O     0.50000   0.28461   0.16251   0.00000  Uiso   1.00
O603   O     0.78461  -0.00000   0.83749   0.00000  Uiso   1.00
O604   O     0.71538  -0.00000   0.16251   0.00000  Uiso   1.00
O605   O     0.50000   0.28461   0.83749   0.00000  Uiso   1.00
O606   O     0.50000   0.21538   0.16251   0.00000  Uiso   1.00
O607   O     0.71538  -0.00000   0.83749   0.00000  Uiso   1.00
O608   O     0.75000  -0.00000   0.75000   0.00000  Uiso   1.00
O609   O     0.78461  -0.00000   0.16251   0.00000  Uiso   1.00
O610   O     0.70126   0.08332   0.27298   0.00000  Uiso   1.00
O611   O     0.79873   0.41668   0.72702   0.00000  Uiso   1.00
O612   O     0.91668   0.20126   0.27298   0.00000  Uiso   1.00
O613   O     0.58332   0.29873   0.72702   0.00000  Uiso   1.00
O614   O     0.79873   0.41668   0.27298   0.00000  Uiso   1.00
O615   O     0.70126   0.08332   0.72702   0.00000  Uiso   1.00
O616   O     0.58332   0.29873   0.27298   0.00000  Uiso   1.00
O617   O     0.91668   0.20126   0.72702   0.00000  Uiso   1.00
O618   O     0.70126   0.41668   0.72702   0.00000  Uiso   1.00
O619   O     0.50000   0.25000   0.25000   0.00000  Uiso   1.00
O620   O     0.79873   0.08332   0.27298   0.00000  Uiso   1.00
O621   O     0.91668   0.29873   0.72702   0.00000  Uiso   1.00
O622   O     0.58332   0.20126   0.27298   0.00000  Uiso   1.00
O623   O     0.79873   0.08332   0.72702   0.00000  Uiso   1.00
O624   O     0.70126   0.41668   0.27298   0.00000  Uiso   1.00
O625   O     0.58332   0.20126   0.72702   0.00000  Uiso   1.00
O626   O     0.91668   0.29873   0.27298   0.00000  Uiso   1.00
O627   O     0.95126   0.33332   0.77298   0.00000  Uiso   1.00
O628   O     0.54873   0.16668   0.22702   0.00000  Uiso   1.00
O629   O     0.66668   0.45126   0.77298   0.00000  Uiso   1.00
O630   O     0.50000   0.25000   0.75000   0.00000  Uiso   1.00
O631   O     0.83332   0.04873   0.22702   0.00000  Uiso   1.00
O632   O     0.54873   0.16668   0.77298   0.00000  Uiso   1.00
O633   O     0.95126   0.33332   0.22702   0.00000  Uiso   1.00
O634   O     0.83332   0.04873   0.77298   0.00000  Uiso   1.00
O635   O     0.66668   0.45126   0.22702   0.00000  Uiso   1.00
O636   O     0.95126   0.16668   0.22702   0.00000  Uiso   1.00
O637   O     0.54873   0.33332   0.77298   0.00000  Uiso   1.00
O638   O     0.66668   0.04873   0.22702   0.00000  Uiso   1.00
O639   O     0.83332   0.45126   0.77298   0.00000  Uiso   1.00
O640   O     0.54873   0.33332   0.22702   0.00000  Uiso   1.00
O641   O     0.75000   0.46538   0.33749   0.00000  Uiso   1.00
O642   O     0.95126   0.16668   0.77298   0.00000  Uiso   1.00
O643   O     0.83332   0.45126   0.22702   0.00000  Uiso   1.00
O644   O     0.66668   0.04873   0.77298   0.00000  Uiso   1.00
O645   O     0.53228   0.33281   0.36791   0.00000  Uiso   1.00
O646   O     0.98861   0.36143   0.41284   0.00000  Uiso   1.00
O647   O     0.91075   0.19021   0.59256   0.00000  Uiso   1.00
O648   O     0.96148   0.16631   0.63350   0.00000  Uiso   1.00
O649   O     0.67664   0.42126   0.40851   0.00000  Uiso   1.00
O650   O     0.66341   0.47314   0.36484   0.00000  Uiso   1.00
O651   O     0.83631   0.01985   0.63226   0.00000  Uiso   1.00
O652   O     0.75000   0.03461   0.66251   0.00000  Uiso   1.00
O653   O     0.85820   0.47133   0.58829   0.00000  Uiso   1.00
O654   O     0.96770   0.16728   0.36782   0.00000  Uiso   1.00
O655   O     0.51127   0.13854   0.41278   0.00000  Uiso   1.00
O656   O     0.53987   0.33111   0.62970   0.00000  Uiso   1.00
O657   O     0.59419   0.31010   0.59145   0.00000  Uiso   1.00
O658   O     0.83443   0.02888   0.36887   0.00000  Uiso   1.00
O659   O     0.82584   0.08340   0.41082   0.00000  Uiso   1.00
O660   O     0.66375   0.48008   0.63203   0.00000  Uiso   1.00
O661   O     0.64181   0.02887   0.58834   0.00000  Uiso   1.00
O662   O     0.77069   0.08613   0.86791   0.00000  Uiso   1.00
O663   O     0.53461   0.25000   0.33749   0.00000  Uiso   1.00
O664   O     0.72189   0.10843   0.91142   0.00000  Uiso   1.00
O665   O     0.67021   0.42736   0.09175   0.00000  Uiso   1.00
O666   O     0.72235   0.41344   0.13503   0.00000  Uiso   1.00
O667   O     0.91890   0.21000   0.87038   0.00000  Uiso   1.00
O668   O     0.94030   0.15557   0.90832   0.00000  Uiso   1.00
O669   O     0.58288   0.28206   0.13221   0.00000  Uiso   1.00
O670   O     0.61140   0.23798   0.08754   0.00000  Uiso   1.00
O671   O     0.72986   0.41381   0.86778   0.00000  Uiso   1.00
O672   O     0.77802   0.39166   0.91199   0.00000  Uiso   1.00
O673   O     0.77926   0.08416   0.13116   0.00000  Uiso   1.00
O674   O     0.96538   0.25000   0.66251   0.00000  Uiso   1.00
O675   O     0.83338   0.07541   0.08885   0.00000  Uiso   1.00
O676   O     0.55994   0.33918   0.90766   0.00000  Uiso   1.00
O677   O     0.58360   0.28862   0.86644   0.00000  Uiso   1.00
O678   O     0.91740   0.21737   0.13208   0.00000  Uiso   1.00
O679   O     0.88847   0.26041   0.08680   0.00000  Uiso   1.00
O680   O     0.75000   0.03461   0.33749   0.00000  Uiso   1.00
Zn681  Zn    0.70052  -0.00000   0.21730   0.00000  Uiso   1.00
Zn682  Zn    0.54947   0.25000   0.28270   0.00000  Uiso   1.00
Zn683  Zn    0.75000   0.45052   0.71730   0.00000  Uiso   1.00
Zn684  Zn    0.75000   0.04947   0.28270   0.00000  Uiso   1.00
Zn685  Zn    0.54947   0.25000   0.71730   0.00000  Uiso   1.00
Zn686  Zn    0.95052   0.25000   0.28270   0.00000  Uiso   1.00
Zn687  Zn    0.75000   0.04947   0.71730   0.00000  Uiso   1.00
Zn688  Zn    0.75000   0.45052   0.28270   0.00000  Uiso   1.00
Zn689  Zn    0.79947  -0.00000   0.78270   0.00000  Uiso   1.00
Zn690  Zn    0.50000   0.20052   0.21730   0.00000  Uiso   1.00
Zn691  Zn    0.50000   0.29947   0.78270   0.00000  Uiso   1.00
Zn692  Zn    0.79947  -0.00000   0.21730   0.00000  Uiso   1.00
Zn693  Zn    0.70052  -0.00000   0.78270   0.00000  Uiso   1.00
Zn694  Zn    0.50000   0.29947   0.21730   0.00000  Uiso   1.00
Zn695  Zn    0.50000   0.20052   0.78270   0.00000  Uiso   1.00
Zn696  Zn    0.95052   0.25000   0.71730   0.00000  Uiso   1.00
C697   C     0.25007   0.50001   0.35588   0.00000  Uiso   1.00
C698   C     0.33003   0.91997   0.75000   0.00000  Uiso   1.00
C699   C     0.43335   0.71096   0.02036   0.00000  Uiso   1.00
C700   C     0.27630   0.57262   0.97999   0.00000  Uiso   1.00
C701   C     0.23057   0.92526   0.01977   0.00000  Uiso   1.00
C702   C     0.42925   0.71868   0.98050   0.00000  Uiso   1.00
C703   C     0.06734   0.78783   0.02040   0.00000  Uiso   1.00
C704   C     0.01195   0.82798   0.39766   0.00000  Uiso   1.00
C705   C     0.44775   0.69098   0.60242   0.00000  Uiso   1.00
C706   C     0.18414   0.95706   0.39736   0.00000  Uiso   1.00
C707   C     0.32871   0.99995   0.60272   0.00000  Uiso   1.00
C708   C     0.48806   0.67206   0.39759   0.00000  Uiso   1.00
C709   C     0.42000   0.66999   0.24999   0.00000  Uiso   1.00
C710   C     0.05189   0.80938   0.60262   0.00000  Uiso   1.00
C711   C     0.31655   0.54283   0.39750   0.00000  Uiso   1.00
C712   C     0.17133   0.50018   0.60262   0.00000  Uiso   1.00
C713   C     0.25044   0.57871   0.89726   0.00000  Uiso   1.00
C714   C     0.20620   0.93442   0.10268   0.00000  Uiso   1.00
C715   C     0.44077   0.69793   0.89734   0.00000  Uiso   1.00
C716   C     0.07803   0.76158   0.10253   0.00000  Uiso   1.00
C717   C     0.24967   0.92132   0.89740   0.00000  Uiso   1.00
C718   C     0.29290   0.56624   0.10242   0.00000  Uiso   1.00
C719   C     0.05905   0.80224   0.89763   0.00000  Uiso   1.00
C720   C     0.08001   0.83001   0.75001   0.00000  Uiso   1.00
C721   C     0.42212   0.73754   0.10222   0.00000  Uiso   1.00
C722   C     0.42558   0.65727   0.46207   0.00000  Uiso   1.00
C723   C     0.39184   0.68538   0.44396   0.00000  Uiso   1.00
C724   C     0.02940   0.86562   0.53651   0.00000  Uiso   1.00
C725   C     0.48617   0.87607   0.55349   0.00000  Uiso   1.00
C726   C     0.36865   0.50944   0.46319   0.00000  Uiso   1.00
C727   C     0.37112   0.96526   0.44562   0.00000  Uiso   1.00
C728   C     0.14567   0.94279   0.53711   0.00000  Uiso   1.00
C729   C     0.16739   0.90425   0.55447   0.00000  Uiso   1.00
C730   C     0.07441   0.84308   0.46213   0.00000  Uiso   1.00
C731   C     0.33002   0.91998   0.25000   0.00000  Uiso   1.00
C732   C     0.10821   0.81531   0.44369   0.00000  Uiso   1.00
C733   C     0.47078   0.63452   0.53641   0.00000  Uiso   1.00
C734   C     0.01389   0.62422   0.55374   0.00000  Uiso   1.00
C735   C     0.13163   0.99112   0.46261   0.00000  Uiso   1.00
C736   C     0.12924   0.53508   0.44462   0.00000  Uiso   1.00
C737   C     0.35448   0.55779   0.53768   0.00000  Uiso   1.00
C738   C     0.33299   0.59620   0.55558   0.00000  Uiso   1.00
C739   C     0.19139   0.89611   0.96227   0.00000  Uiso   1.00
C740   C     0.15324   0.91787   0.94416   0.00000  Uiso   1.00
C741   C     0.25901   0.61857   0.03709   0.00000  Uiso   1.00
C742   C     0.16998   0.58002   0.75000   0.00000  Uiso   1.00
C743   C     0.21492   0.62106   0.05480   0.00000  Uiso   1.00
C744   C     0.11564   0.77862   0.96342   0.00000  Uiso   1.00
C745   C     0.12562   0.73550   0.94593   0.00000  Uiso   1.00
C746   C     0.40794   0.67459   0.03787   0.00000  Uiso   1.00
C747   C     0.43633   0.64116   0.05610   0.00000  Uiso   1.00
C748   C     0.30778   0.60414   0.96289   0.00000  Uiso   1.00
C749   C     0.34628   0.58219   0.94569   0.00000  Uiso   1.00
C750   C     0.23902   0.88168   0.03709   0.00000  Uiso   1.00
C751   C     0.28303   0.87868   0.05495   0.00000  Uiso   1.00
C752   C     0.38461   0.71966   0.96367   0.00000  Uiso   1.00
C753   C     0.08001   0.83000   0.25001   0.00000  Uiso   1.00
C754   C     0.37372   0.76285   0.94684   0.00000  Uiso   1.00
C755   C     0.09360   0.82361   0.03797   0.00000  Uiso   1.00
C756   C     0.06607   0.85766   0.05635   0.00000  Uiso   1.00
C757   C     0.41999   0.66999   0.74999   0.00000  Uiso   1.00
C758   C     0.17000   0.91998   0.75000   0.00000  Uiso   1.00
C759   C     0.33000   0.58001   0.25000   0.00000  Uiso   1.00
C760   C     0.41997   0.83003   0.75000   0.00000  Uiso   1.00
C761   C     0.25001   0.50000   0.64420   0.00000  Uiso   1.00
C762   C     0.08003   0.66997   0.25000   0.00000  Uiso   1.00
C763   C     0.33001   0.58000   0.75000   0.00000  Uiso   1.00
C764   C     0.16999   0.92000   0.25000   0.00000  Uiso   1.00
C765   C     0.08002   0.66998   0.75000   0.00000  Uiso   1.00
C766   C     0.41998   0.83002   0.25000   0.00000  Uiso   1.00
C767   C     0.13834   0.88835   0.24999   0.00000  Uiso   1.00
C768   C     0.36167   0.61165   0.75000   0.00000  Uiso   1.00
C769   C     0.11167   0.63833   0.25000   0.00000  Uiso   1.00
C770   C     0.38833   0.86167   0.75000   0.00000  Uiso   1.00
C771   C     0.36165   0.61166   0.25001   0.00000  Uiso   1.00
C772   C     0.00001   0.75002   0.35578   0.00000  Uiso   1.00
C773   C     0.13835   0.88833   0.75000   0.00000  Uiso   1.00
C774   C     0.38833   0.86167   0.25000   0.00000  Uiso   1.00
C775   C     0.11167   0.63833   0.75000   0.00000  Uiso   1.00
C776   C     0.13833   0.61167   0.75000   0.00000  Uiso   1.00
C777   C     0.36167   0.88833   0.25000   0.00000  Uiso   1.00
C778   C     0.11166   0.86165   0.75002   0.00000  Uiso   1.00
C779   C     0.38835   0.63834   0.24999   0.00000  Uiso   1.00
C780   C     0.36167   0.88833   0.75000   0.00000  Uiso   1.00
C781   C     0.13833   0.61167   0.25000   0.00000  Uiso   1.00
C782   C     0.38834   0.63834   0.74998   0.00000  Uiso   1.00
C783   C     0.49998   0.74996   0.64408   0.00000  Uiso   1.00
C784   C     0.11167   0.86165   0.25001   0.00000  Uiso   1.00
C785   C     0.01174   0.78675   0.41816   0.00000  Uiso   1.00
C786   C     0.47796   0.71838   0.58128   0.00000  Uiso   1.00
C787   C     0.21554   0.98323   0.41849   0.00000  Uiso   1.00
C788   C     0.28814   0.50573   0.58184   0.00000  Uiso   1.00
C789   C     0.48840   0.71330   0.41812   0.00000  Uiso   1.00
C790   C     0.02180   0.78188   0.58139   0.00000  Uiso   1.00
C791   C     0.28491   0.51689   0.41851   0.00000  Uiso   1.00
C792   C     0.21190   0.99456   0.58175   0.00000  Uiso   1.00
C793   C     0.25574   0.53813   0.91821   0.00000  Uiso   1.00
C794   C     0.00004   0.75002   0.85593   0.00000  Uiso   1.00
C795   C     0.23251   0.96559   0.08149   0.00000  Uiso   1.00
C796   C     0.46822   0.72804   0.91861   0.00000  Uiso   1.00
C797   C     0.03684   0.76142   0.08192   0.00000  Uiso   1.00
C798   C     0.24406   0.96197   0.91820   0.00000  Uiso   1.00
C799   C     0.26666   0.53472   0.08149   0.00000  Uiso   1.00
C800   C     0.03166   0.77198   0.91873   0.00000  Uiso   1.00
C801   C     0.46341   0.73801   0.08181   0.00000  Uiso   1.00
C802   C     0.00005   0.75002   0.39800   0.00000  Uiso   1.00
C803   C     0.49992   0.75007   0.60158   0.00000  Uiso   1.00
C804   C     0.25019   0.50004   0.39828   0.00000  Uiso   1.00
C805   C     0.49999   0.74998   0.14422   0.00000  Uiso   1.00
C806   C     0.25002   0.50003   0.60191   0.00000  Uiso   1.00
C807   C     0.25000   0.50002   0.89808   0.00000  Uiso   1.00
C808   C     0.24983   0.50005   0.10171   0.00000  Uiso   1.00
C809   C     0.49996   0.75005   0.89842   0.00000  Uiso   1.00
C810   C     0.00005   0.74989   0.10201   0.00000  Uiso   1.00
C811   C     0.48292   0.71524   0.45871   0.00000  Uiso   1.00
C812   C     0.01745   0.78487   0.54067   0.00000  Uiso   1.00
C813   C     0.28721   0.51182   0.45922   0.00000  Uiso   1.00
C814   C     0.21279   0.98920   0.54105   0.00000  Uiso   1.00
C815   C     0.01731   0.78482   0.45875   0.00000  Uiso   1.00
C816   C     0.25001   0.99999   0.85580   0.00000  Uiso   1.00
C817   C     0.48260   0.71530   0.54060   0.00000  Uiso   1.00
C818   C     0.21307   0.98873   0.45912   0.00000  Uiso   1.00
C819   C     0.28725   0.51144   0.54119   0.00000  Uiso   1.00
C820   C     0.23827   0.96295   0.95884   0.00000  Uiso   1.00
C821   C     0.26126   0.53713   0.04085   0.00000  Uiso   1.00
C822   C     0.03482   0.76720   0.95939   0.00000  Uiso   1.00
C823   C     0.46545   0.73236   0.04125   0.00000  Uiso   1.00
C824   C     0.26102   0.53726   0.95890   0.00000  Uiso   1.00
C825   C     0.23765   0.96316   0.04080   0.00000  Uiso   1.00
C826   C     0.46530   0.73226   0.95934   0.00000  Uiso   1.00
C827   C     0.24997   0.99997   0.14412   0.00000  Uiso   1.00
C828   C     0.03500   0.76683   0.04130   0.00000  Uiso   1.00
C829   C     0.00012   0.75003   0.47923   0.00000  Uiso   1.00
C830   C     0.00007   0.75006   0.52019   0.00000  Uiso   1.00
C831   C     0.25010   0.50034   0.47965   0.00000  Uiso   1.00
C832   C     0.25004   0.50036   0.52064   0.00000  Uiso   1.00
C833   C     0.24957   0.50012   0.97935   0.00000  Uiso   1.00
C834   C     0.24949   0.50013   0.02034   0.00000  Uiso   1.00
C835   C     0.00011   0.74969   0.97981   0.00000  Uiso   1.00
C836   C     0.00019   0.74963   0.02078   0.00000  Uiso   1.00
C837   C     0.46176   0.68300   0.47958   0.00000  Uiso   1.00
C838   C     0.16997   0.58003   0.25000   0.00000  Uiso   1.00
C839   C     0.03075   0.82104   0.51956   0.00000  Uiso   1.00
C840   C     0.32512   0.51858   0.48030   0.00000  Uiso   1.00
C841   C     0.17738   0.97405   0.51995   0.00000  Uiso   1.00
C842   C     0.03845   0.81709   0.47967   0.00000  Uiso   1.00
C843   C     0.46942   0.67908   0.51946   0.00000  Uiso   1.00
C844   C     0.17507   0.98216   0.48002   0.00000  Uiso   1.00
C845   C     0.32266   0.52675   0.52024   0.00000  Uiso   1.00
C846   C     0.22260   0.92770   0.97979   0.00000  Uiso   1.00
C847   C     0.26804   0.57505   0.01988   0.00000  Uiso   1.00
C848   C     0.07114   0.78021   0.98049   0.00000  Uiso   1.00
H849   H     0.49115   0.88796   0.39668   0.00000  Uiso   1.00
H850   H     0.20124   0.89324   0.14693   0.00000  Uiso   1.00
H851   H     0.42111   0.63791   0.89132   0.00000  Uiso   1.00
H852   H     0.13790   0.74049   0.10378   0.00000  Uiso   1.00
H853   H     0.27924   0.86520   0.89559   0.00000  Uiso   1.00
H854   H     0.34821   0.59747   0.10519   0.00000  Uiso   1.00
H855   H     0.10073   0.81227   0.85451   0.00000  Uiso   1.00
H856   H     0.36192   0.75770   0.10290   0.00000  Uiso   1.00
H857   H     0.38098   0.70917   0.46532   0.00000  Uiso   1.00
H858   H     0.40388   0.70175   0.41785   0.00000  Uiso   1.00
H859   H     0.36443   0.66582   0.43516   0.00000  Uiso   1.00
H860   H     0.43786   0.64919   0.64548   0.00000  Uiso   1.00
H861   H     0.43672   0.63359   0.44096   0.00000  Uiso   1.00
H862   H     0.40900   0.63901   0.48491   0.00000  Uiso   1.00
H863   H     0.46138   0.87182   0.53109   0.00000  Uiso   1.00
H864   H     0.47862   0.85585   0.57871   0.00000  Uiso   1.00
H865   H     0.48582   0.90938   0.56327   0.00000  Uiso   1.00
H866   H     0.05470   0.87129   0.55792   0.00000  Uiso   1.00
H867   H     0.03468   0.88957   0.51356   0.00000  Uiso   1.00
H868   H     0.36188   0.94133   0.46751   0.00000  Uiso   1.00
H869   H     0.35038   0.96211   0.41995   0.00000  Uiso   1.00
H870   H     0.40395   0.95882   0.43630   0.00000  Uiso   1.00
H871   H     0.14301   0.95214   0.35302   0.00000  Uiso   1.00
H872   H     0.37864   0.53353   0.44198   0.00000  Uiso   1.00
H873   H     0.39317   0.51006   0.48615   0.00000  Uiso   1.00
H874   H     0.18855   0.88959   0.53271   0.00000  Uiso   1.00
H875   H     0.18594   0.91270   0.58056   0.00000  Uiso   1.00
H876   H     0.14324   0.88073   0.56304   0.00000  Uiso   1.00
H877   H     0.12446   0.95758   0.55851   0.00000  Uiso   1.00
H878   H     0.12456   0.93012   0.51421   0.00000  Uiso   1.00
H879   H     0.11969   0.79176   0.46499   0.00000  Uiso   1.00
H880   H     0.09602   0.79866   0.41777   0.00000  Uiso   1.00
H881   H     0.13522   0.83522   0.43451   0.00000  Uiso   1.00
H882   H     0.38462   0.97001   0.60474   0.00000  Uiso   1.00
H883   H     0.06298   0.86682   0.44122   0.00000  Uiso   1.00
H884   H     0.09107   0.86128   0.48499   0.00000  Uiso   1.00
H885   H     0.03888   0.62864   0.53158   0.00000  Uiso   1.00
H886   H     0.02109   0.64439   0.57910   0.00000  Uiso   1.00
H887   H     0.01430   0.59088   0.56342   0.00000  Uiso   1.00
H888   H     0.44536   0.62878   0.55765   0.00000  Uiso   1.00
H889   H     0.46571   0.61057   0.51339   0.00000  Uiso   1.00
H890   H     0.13844   0.55928   0.46632   0.00000  Uiso   1.00
H891   H     0.15006   0.53790   0.41900   0.00000  Uiso   1.00
H892   H     0.09644   0.54143   0.43513   0.00000  Uiso   1.00
H893   H     0.00863   0.61201   0.39660   0.00000  Uiso   1.00
H894   H     0.12175   0.96677   0.44155   0.00000  Uiso   1.00
H895   H     0.10703   0.99076   0.48548   0.00000  Uiso   1.00
H896   H     0.31226   0.61156   0.53387   0.00000  Uiso   1.00
H897   H     0.31400   0.58739   0.58127   0.00000  Uiso   1.00
H898   H     0.35728   0.61928   0.56496   0.00000  Uiso   1.00
H899   H     0.37574   0.54267   0.55884   0.00000  Uiso   1.00
H900   H     0.37550   0.57069   0.51485   0.00000  Uiso   1.00
H901   H     0.13796   0.93881   0.96574   0.00000  Uiso   1.00
H902   H     0.16232   0.93669   0.91844   0.00000  Uiso   1.00
H903   H     0.13000   0.89374   0.93476   0.00000  Uiso   1.00
H904   H     0.11186   0.82928   0.60846   0.00000  Uiso   1.00
H905   H     0.20643   0.87467   0.94121   0.00000  Uiso   1.00
H906   H     0.17818   0.87524   0.98507   0.00000  Uiso   1.00
H907   H     0.19087   0.61183   0.03298   0.00000  Uiso   1.00
H908   H     0.21190   0.60032   0.08046   0.00000  Uiso   1.00
H909   H     0.20854   0.65390   0.06417   0.00000  Uiso   1.00
H910   H     0.28321   0.62851   0.05827   0.00000  Uiso   1.00
H911   H     0.25957   0.64309   0.01415   0.00000  Uiso   1.00
H912   H     0.12104   0.71045   0.96800   0.00000  Uiso   1.00
H913   H     0.10538   0.72856   0.92055   0.00000  Uiso   1.00
H914   H     0.15895   0.73491   0.93623   0.00000  Uiso   1.00
H915   H     0.34794   0.59801   0.39441   0.00000  Uiso   1.00
H916   H     0.12146   0.80408   0.94224   0.00000  Uiso   1.00
H917   H     0.13970   0.78343   0.98638   0.00000  Uiso   1.00
H918   H     0.46025   0.63045   0.03482   0.00000  Uiso   1.00
H919   H     0.45254   0.65343   0.08224   0.00000  Uiso   1.00
H920   H     0.41700   0.61360   0.06490   0.00000  Uiso   1.00
H921   H     0.38414   0.68558   0.05891   0.00000  Uiso   1.00
H922   H     0.38988   0.65776   0.01500   0.00000  Uiso   1.00
H923   H     0.36076   0.56101   0.96753   0.00000  Uiso   1.00
H924   H     0.33781   0.56362   0.91961   0.00000  Uiso   1.00
H925   H     0.36994   0.60621   0.93714   0.00000  Uiso   1.00
H926   H     0.11539   0.53007   0.60478   0.00000  Uiso   1.00
H927   H     0.29319   0.62539   0.94142   0.00000  Uiso   1.00
H928   H     0.32047   0.62522   0.98582   0.00000  Uiso   1.00
H929   H     0.30725   0.88750   0.03318   0.00000  Uiso   1.00
H930   H     0.28628   0.89949   0.08056   0.00000  Uiso   1.00
H931   H     0.28895   0.84581   0.06444   0.00000  Uiso   1.00
H932   H     0.21463   0.87209   0.05817   0.00000  Uiso   1.00
H933   H     0.23827   0.85708   0.01420   0.00000  Uiso   1.00
H934   H     0.37772   0.78759   0.96932   0.00000  Uiso   1.00
H935   H     0.39386   0.77071   0.92164   0.00000  Uiso   1.00
H936   H     0.34039   0.76290   0.93706   0.00000  Uiso   1.00
H937   H     0.22092   0.63484   0.89496   0.00000  Uiso   1.00
H938   H     0.37910   0.69439   0.94221   0.00000  Uiso   1.00
H939   H     0.36079   0.71406   0.98666   0.00000  Uiso   1.00
H940   H     0.04268   0.86933   0.03498   0.00000  Uiso   1.00
H941   H     0.04925   0.84562   0.08221   0.00000  Uiso   1.00
H942   H     0.08619   0.88450   0.06562   0.00000  Uiso   1.00
H943   H     0.11726   0.81205   0.05891   0.00000  Uiso   1.00
H944   H     0.11194   0.84010   0.01514   0.00000  Uiso   1.00
O945   O     0.25000   0.50000   0.25000   0.00000  Uiso   1.00
O946   O     0.25000   0.96538   0.66251   0.00000  Uiso   1.00
O947   O     0.46538   0.75000   0.33749   0.00000  Uiso   1.00
O948   O     0.03461   0.75000   0.66251   0.00000  Uiso   1.00
O949   O     0.00000   0.71538   0.83749   0.00000  Uiso   1.00
O950   O    -0.00000   0.78461   0.16251   0.00000  Uiso   1.00
O951   O     0.28461   0.50000   0.83749   0.00000  Uiso   1.00
O952   O     0.21538   0.50000   0.16251   0.00000  Uiso   1.00
O953   O     0.00000   0.78461   0.83749   0.00000  Uiso   1.00
O954   O     0.00000   0.71538   0.16251   0.00000  Uiso   1.00
O955   O     0.21538   0.50000   0.83749   0.00000  Uiso   1.00
O956   O     0.25000   0.50000   0.75000   0.00000  Uiso   1.00
O957   O     0.28461   0.50000   0.16251   0.00000  Uiso   1.00
O958   O     0.20126   0.58332   0.27298   0.00000  Uiso   1.00
O959   O     0.29873   0.91668   0.72702   0.00000  Uiso   1.00
O960   O     0.41668   0.70126   0.27298   0.00000  Uiso   1.00
O961   O     0.08332   0.79873   0.72702   0.00000  Uiso   1.00
O962   O     0.29873   0.91668   0.27298   0.00000  Uiso   1.00
O963   O     0.20126   0.58332   0.72702   0.00000  Uiso   1.00
O964   O     0.08332   0.79873   0.27298   0.00000  Uiso   1.00
O965   O     0.41668   0.70126   0.72702   0.00000  Uiso   1.00
O966   O     0.20126   0.91668   0.72702   0.00000  Uiso   1.00
O967   O     0.00000   0.75000   0.25000   0.00000  Uiso   1.00
O968   O     0.29873   0.58332   0.27298   0.00000  Uiso   1.00
O969   O     0.41668   0.79873   0.72702   0.00000  Uiso   1.00
O970   O     0.08332   0.70126   0.27298   0.00000  Uiso   1.00
O971   O     0.29873   0.58332   0.72702   0.00000  Uiso   1.00
O972   O     0.20126   0.91668   0.27298   0.00000  Uiso   1.00
O973   O     0.08332   0.70126   0.72702   0.00000  Uiso   1.00
O974   O     0.41668   0.79873   0.27298   0.00000  Uiso   1.00
O975   O     0.45126   0.83332   0.77298   0.00000  Uiso   1.00
O976   O     0.04873   0.66668   0.22702   0.00000  Uiso   1.00
O977   O     0.16668   0.95126   0.77298   0.00000  Uiso   1.00
O978   O     0.00000   0.75000   0.75000   0.00000  Uiso   1.00
O979   O     0.33332   0.54873   0.22702   0.00000  Uiso   1.00
O980   O     0.04873   0.66668   0.77298   0.00000  Uiso   1.00
O981   O     0.45126   0.83332   0.22702   0.00000  Uiso   1.00
O982   O     0.33332   0.54873   0.77298   0.00000  Uiso   1.00
O983   O     0.16668   0.95126   0.22702   0.00000  Uiso   1.00
O984   O     0.45126   0.66668   0.22702   0.00000  Uiso   1.00
O985   O     0.04873   0.83332   0.77298   0.00000  Uiso   1.00
O986   O     0.16668   0.54873   0.22702   0.00000  Uiso   1.00
O987   O     0.33332   0.95126   0.77298   0.00000  Uiso   1.00
O988   O     0.04873   0.83332   0.22702   0.00000  Uiso   1.00
O989   O     0.25000   0.96538   0.33749   0.00000  Uiso   1.00
O990   O     0.45126   0.66668   0.77298   0.00000  Uiso   1.00
O991   O     0.33332   0.95126   0.22702   0.00000  Uiso   1.00
O992   O     0.16668   0.54873   0.77298   0.00000  Uiso   1.00
O993   O     0.03228   0.83281   0.36791   0.00000  Uiso   1.00
O994   O     0.48861   0.86143   0.41284   0.00000  Uiso   1.00
O995   O     0.41075   0.69021   0.59256   0.00000  Uiso   1.00
O996   O     0.46148   0.66631   0.63350   0.00000  Uiso   1.00
O997   O     0.17664   0.92126   0.40851   0.00000  Uiso   1.00
O998   O     0.16341   0.97314   0.36484   0.00000  Uiso   1.00
O999   O     0.33631   0.51985   0.63226   0.00000  Uiso   1.00
O1000  O     0.25000   0.53461   0.66251   0.00000  Uiso   1.00
O1001  O     0.35820   0.97133   0.58829   0.00000  Uiso   1.00
O1002  O     0.46770   0.66728   0.36782   0.00000  Uiso   1.00
O1003  O     0.01127   0.63854   0.41278   0.00000  Uiso   1.00
O1004  O     0.03987   0.83111   0.62970   0.00000  Uiso   1.00
O1005  O     0.09419   0.81010   0.59145   0.00000  Uiso   1.00
O1006  O     0.33443   0.52888   0.36887   0.00000  Uiso   1.00
O1007  O     0.32584   0.58340   0.41082   0.00000  Uiso   1.00
O1008  O     0.16375   0.98008   0.63203   0.00000  Uiso   1.00
O1009  O     0.14181   0.52887   0.58834   0.00000  Uiso   1.00
O1010  O     0.27069   0.58613   0.86791   0.00000  Uiso   1.00
O1011  O     0.03461   0.75000   0.33749   0.00000  Uiso   1.00
O1012  O     0.22189   0.60843   0.91142   0.00000  Uiso   1.00
O1013  O     0.17021   0.92736   0.09175   0.00000  Uiso   1.00
O1014  O     0.22235   0.91344   0.13503   0.00000  Uiso   1.00
O1015  O     0.41890   0.71000   0.87038   0.00000  Uiso   1.00
O1016  O     0.44030   0.65557   0.90832   0.00000  Uiso   1.00
O1017  O     0.08288   0.78206   0.13221   0.00000  Uiso   1.00
O1018  O     0.11140   0.73798   0.08754   0.00000  Uiso   1.00
O1019  O     0.22986   0.91381   0.86778   0.00000  Uiso   1.00
O1020  O     0.27802   0.89166   0.91199   0.00000  Uiso   1.00
O1021  O     0.27926   0.58416   0.13116   0.00000  Uiso   1.00
O1022  O     0.46538   0.75000   0.66251   0.00000  Uiso   1.00
O1023  O     0.33338   0.57541   0.08885   0.00000  Uiso   1.00
O1024  O     0.05994   0.83918   0.90766   0.00000  Uiso   1.00
O1025  O     0.08360   0.78862   0.86644   0.00000  Uiso   1.00
O1026  O     0.41740   0.71737   0.13208   0.00000  Uiso   1.00
O1027  O     0.38847   0.76041   0.08680   0.00000  Uiso   1.00
O1028  O     0.25000   0.53461   0.33749   0.00000  Uiso   1.00
Zn1029 Zn    0.20052   0.50000   0.21730   0.00000  Uiso   1.00
Zn1030 Zn    0.04947   0.75000   0.28270   0.00000  Uiso   1.00
Zn1031 Zn    0.25000   0.95052   0.71730   0.00000  Uiso   1.00
Zn1032 Zn    0.25000   0.54947   0.28270   0.00000  Uiso   1.00
Zn1033 Zn    0.04947   0.75000   0.71730   0.00000  Uiso   1.00
Zn1034 Zn    0.45052   0.75000   0.28270   0.00000  Uiso   1.00
Zn1035 Zn    0.25000   0.54947   0.71730   0.00000  Uiso   1.00
Zn1036 Zn    0.25000   0.95052   0.28270   0.00000  Uiso   1.00
Zn1037 Zn    0.29947   0.50000   0.78270   0.00000  Uiso   1.00
Zn1038 Zn    0.00000   0.70052   0.21730   0.00000  Uiso   1.00
Zn1039 Zn    0.00000   0.79947   0.78270   0.00000  Uiso   1.00
Zn1040 Zn    0.29947   0.50000   0.21730   0.00000  Uiso   1.00
Zn1041 Zn    0.20052   0.50000   0.78270   0.00000  Uiso   1.00
Zn1042 Zn    0.00000   0.79947   0.21730   0.00000  Uiso   1.00
Zn1043 Zn    0.00000   0.70052   0.78270   0.00000  Uiso   1.00
Zn1044 Zn    0.45052   0.75000   0.71730   0.00000  Uiso   1.00
C1045  C     0.75007   0.50001   0.35588   0.00000  Uiso   1.00
C1046  C     0.83003   0.91997   0.75000   0.00000  Uiso   1.00
C1047  C     0.93335   0.71096   0.02036   0.00000  Uiso   1.00
C1048  C     0.77630   0.57262   0.97999   0.00000  Uiso   1.00
C1049  C     0.73057   0.92526   0.01977   0.00000  Uiso   1.00
C1050  C     0.92925   0.71868   0.98050   0.00000  Uiso   1.00
C1051  C     0.56734   0.78783   0.02040   0.00000  Uiso   1.00
C1052  C     0.51195   0.82798   0.39766   0.00000  Uiso   1.00
C1053  C     0.94775   0.69098   0.60242   0.00000  Uiso   1.00
C1054  C     0.68414   0.95706   0.39736   0.00000  Uiso   1.00
C1055  C     0.82871   0.99995   0.60272   0.00000  Uiso   1.00
C1056  C     0.98806   0.67206   0.39759   0.00000  Uiso   1.00
C1057  C     0.92000   0.66999   0.24999   0.00000  Uiso   1.00
C1058  C     0.55189   0.80938   0.60262   0.00000  Uiso   1.00
C1059  C     0.81655   0.54283   0.39750   0.00000  Uiso   1.00
C1060  C     0.67133   0.50018   0.60262   0.00000  Uiso   1.00
C1061  C     0.75044   0.57871   0.89726   0.00000  Uiso   1.00
C1062  C     0.70620   0.93442   0.10268   0.00000  Uiso   1.00
C1063  C     0.94077   0.69793   0.89734   0.00000  Uiso   1.00
C1064  C     0.57803   0.76158   0.10253   0.00000  Uiso   1.00
C1065  C     0.74967   0.92132   0.89740   0.00000  Uiso   1.00
C1066  C     0.79290   0.56624   0.10242   0.00000  Uiso   1.00
C1067  C     0.55905   0.80224   0.89763   0.00000  Uiso   1.00
C1068  C     0.58001   0.83001   0.75001   0.00000  Uiso   1.00
C1069  C     0.92212   0.73754   0.10222   0.00000  Uiso   1.00
C1070  C     0.92558   0.65727   0.46207   0.00000  Uiso   1.00
C1071  C     0.89184   0.68538   0.44396   0.00000  Uiso   1.00
C1072  C     0.52940   0.86562   0.53651   0.00000  Uiso   1.00
C1073  C     0.98617   0.87607   0.55349   0.00000  Uiso   1.00
C1074  C     0.86865   0.50944   0.46319   0.00000  Uiso   1.00
C1075  C     0.87112   0.96526   0.44562   0.00000  Uiso   1.00
C1076  C     0.64567   0.94279   0.53711   0.00000  Uiso   1.00
C1077  C     0.66739   0.90425   0.55447   0.00000  Uiso   1.00
C1078  C     0.57441   0.84308   0.46213   0.00000  Uiso   1.00
C1079  C     0.83002   0.91998   0.25000   0.00000  Uiso   1.00
C1080  C     0.60821   0.81531   0.44369   0.00000  Uiso   1.00
C1081  C     0.97078   0.63452   0.53641   0.00000  Uiso   1.00
C1082  C     0.51389   0.62422   0.55374   0.00000  Uiso   1.00
C1083  C     0.63163   0.99112   0.46261   0.00000  Uiso   1.00
C1084  C     0.62924   0.53508   0.44462   0.00000  Uiso   1.00
C1085  C     0.85448   0.55779   0.53768   0.00000  Uiso   1.00
C1086  C     0.83299   0.59620   0.55558   0.00000  Uiso   1.00
C1087  C     0.69139   0.89611   0.96227   0.00000  Uiso   1.00
C1088  C     0.65324   0.91787   0.94416   0.00000  Uiso   1.00
C1089  C     0.75901   0.61857   0.03709   0.00000  Uiso   1.00
C1090  C     0.66998   0.58002   0.75000   0.00000  Uiso   1.00
C1091  C     0.71492   0.62106   0.05480   0.00000  Uiso   1.00
C1092  C     0.61564   0.77862   0.96342   0.00000  Uiso   1.00
C1093  C     0.62562   0.73550   0.94593   0.00000  Uiso   1.00
C1094  C     0.90794   0.67459   0.03787   0.00000  Uiso   1.00
C1095  C     0.93633   0.64116   0.05610   0.00000  Uiso   1.00
C1096  C     0.80778   0.60414   0.96289   0.00000  Uiso   1.00
C1097  C     0.84628   0.58219   0.94569   0.00000  Uiso   1.00
C1098  C     0.73902   0.88168   0.03709   0.00000  Uiso   1.00
C1099  C     0.78303   0.87868   0.05495   0.00000  Uiso   1.00
C1100  C     0.88461   0.71966   0.96367   0.00000  Uiso   1.00
C1101  C     0.58001   0.83000   0.25001   0.00000  Uiso   1.00
C1102  C     0.87372   0.76285   0.94684   0.00000  Uiso   1.00
C1103  C     0.59360   0.82361   0.03797   0.00000  Uiso   1.00
C1104  C     0.56607   0.85766   0.05635   0.00000  Uiso   1.00
C1105  C     0.91999   0.66999   0.74999   0.00000  Uiso   1.00
C1106  C     0.67000   0.91998   0.75000   0.00000  Uiso   1.00
C1107  C     0.83000   0.58001   0.25000   0.00000  Uiso   1.00
C1108  C     0.91997   0.83003   0.75000   0.00000  Uiso   1.00
C1109  C     0.75001   0.50000   0.64420   0.00000  Uiso   1.00
C1110  C     0.58003   0.66997   0.25000   0.00000  Uiso   1.00
C1111  C     0.83001   0.58000   0.75000   0.00000  Uiso   1.00
C1112  C     0.66999   0.92000   0.25000   0.00000  Uiso   1.00
C1113  C     0.58002   0.66998   0.75000   0.00000  Uiso   1.00
C1114  C     0.91998   0.83002   0.25000   0.00000  Uiso   1.00
C1115  C     0.63834   0.88835   0.24999   0.00000  Uiso   1.00
C1116  C     0.86167   0.61165   0.75000   0.00000  Uiso   1.00
C1117  C     0.61167   0.63833   0.25000   0.00000  Uiso   1.00
C1118  C     0.88833   0.86167   0.75000   0.00000  Uiso   1.00
C1119  C     0.86165   0.61166   0.25001   0.00000  Uiso   1.00
C1120  C     0.50001   0.75002   0.35578   0.00000  Uiso   1.00
C1121  C     0.63835   0.88833   0.75000   0.00000  Uiso   1.00
C1122  C     0.88833   0.86167   0.25000   0.00000  Uiso   1.00
C1123  C     0.61167   0.63833   0.75000   0.00000  Uiso   1.00
C1124  C     0.63833   0.61167   0.75000   0.00000  Uiso   1.00
C1125  C     0.86167   0.88833   0.25000   0.00000  Uiso   1.00
C1126  C     0.61166   0.86165   0.75002   0.00000  Uiso   1.00
C1127  C     0.88835   0.63834   0.24999   0.00000  Uiso   1.00
C1128  C     0.86167   0.88833   0.75000   0.00000  Uiso   1.00
C1129  C     0.63833   0.61167   0.25000   0.00000  Uiso   1.00
C1130  C     0.88834   0.63834   0.74998   0.00000  Uiso   1.00
C1131  C     0.99998   0.74996   0.64408   0.00000  Uiso   1.00
C1132  C     0.61167   0.86165   0.25001   0.00000  Uiso   1.00
C1133  C     0.51174   0.78675   0.41816   0.00000  Uiso   1.00
C1134  C     0.97796   0.71838   0.58128   0.00000  Uiso   1.00
C1135  C     0.71554   0.98323   0.41849   0.00000  Uiso   1.00
C1136  C     0.78814   0.50573   0.58184   0.00000  Uiso   1.00
C1137  C     0.98840   0.71330   0.41812   0.00000  Uiso   1.00
C1138  C     0.52180   0.78188   0.58139   0.00000  Uiso   1.00
C1139  C     0.78491   0.51689   0.41851   0.00000  Uiso   1.00
C1140  C     0.71190   0.99456   0.58175   0.00000  Uiso   1.00
C1141  C     0.75574   0.53813   0.91821   0.00000  Uiso   1.00
C1142  C     0.50004   0.75002   0.85593   0.00000  Uiso   1.00
C1143  C     0.73251   0.96559   0.08149   0.00000  Uiso   1.00
C1144  C     0.96822   0.72804   0.91861   0.00000  Uiso   1.00
C1145  C     0.53684   0.76142   0.08192   0.00000  Uiso   1.00
C1146  C     0.74406   0.96197   0.91820   0.00000  Uiso   1.00
C1147  C     0.76666   0.53472   0.08149   0.00000  Uiso   1.00
C1148  C     0.53166   0.77198   0.91873   0.00000  Uiso   1.00
C1149  C     0.96341   0.73801   0.08181   0.00000  Uiso   1.00
C1150  C     0.50005   0.75002   0.39800   0.00000  Uiso   1.00
C1151  C     0.99992   0.75007   0.60158   0.00000  Uiso   1.00
C1152  C     0.75019   0.50004   0.39828   0.00000  Uiso   1.00
C1153  C     0.99999   0.74998   0.14422   0.00000  Uiso   1.00
C1154  C     0.75002   0.50003   0.60191   0.00000  Uiso   1.00
C1155  C     0.75000   0.50002   0.89808   0.00000  Uiso   1.00
C1156  C     0.74983   0.50005   0.10171   0.00000  Uiso   1.00
C1157  C     0.99996   0.75005   0.89842   0.00000  Uiso   1.00
C1158  C     0.50005   0.74989   0.10201   0.00000  Uiso   1.00
C1159  C     0.98292   0.71524   0.45871   0.00000  Uiso   1.00
C1160  C     0.51745   0.78487   0.54067   0.00000  Uiso   1.00
C1161  C     0.78721   0.51182   0.45922   0.00000  Uiso   1.00
C1162  C     0.71279   0.98920   0.54105   0.00000  Uiso   1.00
C1163  C     0.51731   0.78482   0.45875   0.00000  Uiso   1.00
C1164  C     0.75001   0.99999   0.85580   0.00000  Uiso   1.00
C1165  C     0.98260   0.71530   0.54060   0.00000  Uiso   1.00
C1166  C     0.71307   0.98873   0.45912   0.00000  Uiso   1.00
C1167  C     0.78725   0.51144   0.54119   0.00000  Uiso   1.00
C1168  C     0.73827   0.96295   0.95884   0.00000  Uiso   1.00
C1169  C     0.76126   0.53713   0.04085   0.00000  Uiso   1.00
C1170  C     0.53482   0.76720   0.95939   0.00000  Uiso   1.00
C1171  C     0.96545   0.73236   0.04125   0.00000  Uiso   1.00
C1172  C     0.76102   0.53726   0.95890   0.00000  Uiso   1.00
C1173  C     0.73765   0.96316   0.04080   0.00000  Uiso   1.00
C1174  C     0.96530   0.73226   0.95934   0.00000  Uiso   1.00
C1175  C     0.74997   0.99997   0.14412   0.00000  Uiso   1.00
C1176  C     0.53500   0.76683   0.04130   0.00000  Uiso   1.00
C1177  C     0.50012   0.75003   0.47923   0.00000  Uiso   1.00
C1178  C     0.50007   0.75006   0.52019   0.00000  Uiso   1.00
C1179  C     0.75010   0.50034   0.47965   0.00000  Uiso   1.00
C1180  C     0.75004   0.50036   0.52064   0.00000  Uiso   1.00
C1181  C     0.74957   0.50012   0.97935   0.00000  Uiso   1.00
C1182  C     0.74949   0.50013   0.02034   0.00000  Uiso   1.00
C1183  C     0.50011   0.74969   0.97981   0.00000  Uiso   1.00
C1184  C     0.50019   0.74963   0.02078   0.00000  Uiso   1.00
C1185  C     0.96176   0.68300   0.47958   0.00000  Uiso   1.00
C1186  C     0.66997   0.58003   0.25000   0.00000  Uiso   1.00
C1187  C     0.53075   0.82104   0.51956   0.00000  Uiso   1.00
C1188  C     0.82512   0.51858   0.48030   0.00000  Uiso   1.00
C1189  C     0.67738   0.97405   0.51995   0.00000  Uiso   1.00
C1190  C     0.53845   0.81709   0.47967   0.00000  Uiso   1.00
C1191  C     0.96942   0.67908   0.51946   0.00000  Uiso   1.00
C1192  C     0.67507   0.98216   0.48002   0.00000  Uiso   1.00
C1193  C     0.82266   0.52675   0.52024   0.00000  Uiso   1.00
C1194  C     0.72260   0.92770   0.97979   0.00000  Uiso   1.00
C1195  C     0.76804   0.57505   0.01988   0.00000  Uiso   1.00
C1196  C     0.57114   0.78021   0.98049   0.00000  Uiso   1.00
H1197  H     0.99115   0.88796   0.39668   0.00000  Uiso   1.00
H1198  H     0.70124   0.89324   0.14693   0.00000  Uiso   1.00
H1199  H     0.92111   0.63791   0.89132   0.00000  Uiso   1.00
H1200  H     0.63790   0.74049   0.10378   0.00000  Uiso   1.00
H1201  H     0.77924   0.86520   0.89559   0.00000  Uiso   1.00
H1202  H     0.84821   0.59747   0.10519   0.00000  Uiso   1.00
H1203  H     0.60073   0.81227   0.85451   0.00000  Uiso   1.00
H1204  H     0.86192   0.75770   0.10290   0.00000  Uiso   1.00
H1205  H     0.88098   0.70917   0.46532   0.00000  Uiso   1.00
H1206  H     0.90388   0.70175   0.41785   0.00000  Uiso   1.00
H1207  H     0.86443   0.66582   0.43516   0.00000  Uiso   1.00
H1208  H     0.93786   0.64919   0.64548   0.00000  Uiso   1.00
H1209  H     0.93672   0.63359   0.44096   0.00000  Uiso   1.00
H1210  H     0.90900   0.63901   0.48491   0.00000  Uiso   1.00
H1211  H     0.96138   0.87182   0.53109   0.00000  Uiso   1.00
H1212  H     0.97862   0.85585   0.57871   0.00000  Uiso   1.00
H1213  H     0.98582   0.90938   0.56327   0.00000  Uiso   1.00
H1214  H     0.55470   0.87129   0.55792   0.00000  Uiso   1.00
H1215  H     0.53468   0.88957   0.51356   0.00000  Uiso   1.00
H1216  H     0.86188   0.94133   0.46751   0.00000  Uiso   1.00
H1217  H     0.85038   0.96211   0.41995   0.00000  Uiso   1.00
H1218  H     0.90395   0.95882   0.43630   0.00000  Uiso   1.00
H1219  H     0.64301   0.95214   0.35302   0.00000  Uiso   1.00
H1220  H     0.87864   0.53353   0.44198   0.00000  Uiso   1.00
H1221  H     0.89317   0.51006   0.48615   0.00000  Uiso   1.00
H1222  H     0.68855   0.88959   0.53271   0.00000  Uiso   1.00
H1223  H     0.68594   0.91270   0.58056   0.00000  Uiso   1.00
H1224  H     0.64324   0.88073   0.56304   0.00000  Uiso   1.00
H1225  H     0.62446   0.95758   0.55851   0.00000  Uiso   1.00
H1226  H     0.62456   0.93012   0.51421   0.00000  Uiso   1.00
H1227  H     0.61969   0.79176   0.46499   0.00000  Uiso   1.00
H1228  H     0.59602   0.79866   0.41777   0.00000  Uiso   1.00
H1229  H     0.63522   0.83522   0.43451   0.00000  Uiso   1.00
H1230  H     0.88462   0.97001   0.60474   0.00000  Uiso   1.00
H1231  H     0.56298   0.86682   0.44122   0.00000  Uiso   1.00
H1232  H     0.59107   0.86128   0.48499   0.00000  Uiso   1.00
H1233  H     0.53888   0.62864   0.53158   0.00000  Uiso   1.00
H1234  H     0.52109   0.64439   0.57910   0.00000  Uiso   1.00
H1235  H     0.51430   0.59088   0.56342   0.00000  Uiso   1.00
H1236  H     0.94536   0.62878   0.55765   0.00000  Uiso   1.00
H1237  H     0.96571   0.61057   0.51339   0.00000  Uiso   1.00
H1238  H     0.63844   0.55928   0.46632   0.00000  Uiso   1.00
H1239  H     0.65006   0.53790   0.41900   0.00000  Uiso   1.00
H1240  H     0.59644   0.54143   0.43513   0.00000  Uiso   1.00
H1241  H     0.50863   0.61201   0.39660   0.00000  Uiso   1.00
H1242  H     0.62175   0.96677   0.44155   0.00000  Uiso   1.00
H1243  H     0.60703   0.99076   0.48548   0.00000  Uiso   1.00
H1244  H     0.81226   0.61156   0.53387   0.00000  Uiso   1.00
H1245  H     0.81400   0.58739   0.58127   0.00000  Uiso   1.00
H1246  H     0.85728   0.61928   0.56496   0.00000  Uiso   1.00
H1247  H     0.87574   0.54267   0.55884   0.00000  Uiso   1.00
H1248  H     0.87550   0.57069   0.51485   0.00000  Uiso   1.00
H1249  H     0.63796   0.93881   0.96574   0.00000  Uiso   1.00
H1250  H     0.66232   0.93669   0.91844   0.00000  Uiso   1.00
H1251  H     0.63000   0.89374   0.93476   0.00000  Uiso   1.00
H1252  H     0.61186   0.82928   0.60846   0.00000  Uiso   1.00
H1253  H     0.70643   0.87467   0.94121   0.00000  Uiso   1.00
H1254  H     0.67818   0.87524   0.98507   0.00000  Uiso   1.00
H1255  H     0.69087   0.61183   0.03298   0.00000  Uiso   1.00
H1256  H     0.71190   0.60032   0.08046   0.00000  Uiso   1.00
H1257  H     0.70854   0.65390   0.06417   0.00000  Uiso   1.00
H1258  H     0.78321   0.62851   0.05827   0.00000  Uiso   1.00
H1259  H     0.75957   0.64309   0.01415   0.00000  Uiso   1.00
H1260  H     0.62104   0.71045   0.96800   0.00000  Uiso   1.00
H1261  H     0.60538   0.72856   0.92055   0.00000  Uiso   1.00
H1262  H     0.65895   0.73491   0.93623   0.00000  Uiso   1.00
H1263  H     0.84794   0.59801   0.39441   0.00000  Uiso   1.00
H1264  H     0.62146   0.80408   0.94224   0.00000  Uiso   1.00
H1265  H     0.63970   0.78343   0.98638   0.00000  Uiso   1.00
H1266  H     0.96025   0.63045   0.03482   0.00000  Uiso   1.00
H1267  H     0.95254   0.65343   0.08224   0.00000  Uiso   1.00
H1268  H     0.91700   0.61360   0.06490   0.00000  Uiso   1.00
H1269  H     0.88414   0.68558   0.05891   0.00000  Uiso   1.00
H1270  H     0.88988   0.65776   0.01500   0.00000  Uiso   1.00
H1271  H     0.86076   0.56101   0.96753   0.00000  Uiso   1.00
H1272  H     0.83781   0.56362   0.91961   0.00000  Uiso   1.00
H1273  H     0.86994   0.60621   0.93714   0.00000  Uiso   1.00
H1274  H     0.61539   0.53007   0.60478   0.00000  Uiso   1.00
H1275  H     0.79319   0.62539   0.94142   0.00000  Uiso   1.00
H1276  H     0.82047   0.62522   0.98582   0.00000  Uiso   1.00
H1277  H     0.80725   0.88750   0.03318   0.00000  Uiso   1.00
H1278  H     0.78628   0.89949   0.08056   0.00000  Uiso   1.00
H1279  H     0.78895   0.84581   0.06444   0.00000  Uiso   1.00
H1280  H     0.71463   0.87209   0.05817   0.00000  Uiso   1.00
H1281  H     0.73827   0.85708   0.01420   0.00000  Uiso   1.00
H1282  H     0.87772   0.78759   0.96932   0.00000  Uiso   1.00
H1283  H     0.89386   0.77071   0.92164   0.00000  Uiso   1.00
H1284  H     0.84039   0.76290   0.93706   0.00000  Uiso   1.00
H1285  H     0.72092   0.63484   0.89496   0.00000  Uiso   1.00
H1286  H     0.87910   0.69439   0.94221   0.00000  Uiso   1.00
H1287  H     0.86079   0.71406   0.98666   0.00000  Uiso   1.00
H1288  H     0.54268   0.86933   0.03498   0.00000  Uiso   1.00
H1289  H     0.54925   0.84562   0.08221   0.00000  Uiso   1.00
H1290  H     0.58619   0.88450   0.06562   0.00000  Uiso   1.00
H1291  H     0.61726   0.81205   0.05891   0.00000  Uiso   1.00
H1292  H     0.61194   0.84010   0.01514   0.00000  Uiso   1.00
O1293  O     0.75000   0.50000   0.25000   0.00000  Uiso   1.00
O1294  O     0.75000   0.96538   0.66251   0.00000  Uiso   1.00
O1295  O     0.96538   0.75000   0.33749   0.00000  Uiso   1.00
O1296  O     0.53461   0.75000   0.66251   0.00000  Uiso   1.00
O1297  O     0.50000   0.71538   0.83749   0.00000  Uiso   1.00
O1298  O     0.50000   0.78461   0.16251   0.00000  Uiso   1.00
O1299  O     0.78461   0.50000   0.83749   0.00000  Uiso   1.00
O1300  O     0.71538   0.50000   0.16251   0.00000  Uiso   1.00
O1301  O     0.50000   0.78461   0.83749   0.00000  Uiso   1.00
O1302  O     0.50000   0.71538   0.16251   0.00000  Uiso   1.00
O1303  O     0.71538   0.50000   0.83749   0.00000  Uiso   1.00
O1304  O     0.75000   0.50000   0.75000   0.00000  Uiso   1.00
O1305  O     0.78461   0.50000   0.16251   0.00000  Uiso   1.00
O1306  O     0.70126   0.58332   0.27298   0.00000  Uiso   1.00
O1307  O     0.79873   0.91668   0.72702   0.00000  Uiso   1.00
O1308  O     0.91668   0.70126   0.27298   0.00000  Uiso   1.00
O1309  O     0.58332   0.79873   0.72702   0.00000  Uiso   1.00
O1310  O     0.79873   0.91668   0.27298   0.00000  Uiso   1.00
O1311  O     0.70126   0.58332   0.72702   0.00000  Uiso   1.00
O1312  O     0.58332   0.79873   0.27298   0.00000  Uiso   1.00
O1313  O     0.91668   0.70126   0.72702   0.00000  Uiso   1.00
O1314  O     0.70126   0.91668   0.72702   0.00000  Uiso   1.00
O1315  O     0.50000   0.75000   0.25000   0.00000  Uiso   1.00
O1316  O     0.79873   0.58332   0.27298   0.00000  Uiso   1.00
O1317  O     0.91668   0.79873   0.72702   0.00000  Uiso   1.00
O1318  O     0.58332   0.70126   0.27298   0.00000  Uiso   1.00
O1319  O     0.79873   0.58332   0.72702   0.00000  Uiso   1.00
O1320  O     0.70126   0.91668   0.27298   0.00000  Uiso   1.00
O1321  O     0.58332   0.70126   0.72702   0.00000  Uiso   1.00
O1322  O     0.91668   0.79873   0.27298   0.00000  Uiso   1.00
O1323  O     0.95126   0.83332   0.77298   0.00000  Uiso   1.00
O1324  O     0.54873   0.66668   0.22702   0.00000  Uiso   1.00
O1325  O     0.66668   0.95126   0.77298   0.00000  Uiso   1.00
O1326  O     0.50000   0.75000   0.75000   0.00000  Uiso   1.00
O1327  O     0.83332   0.54873   0.22702   0.00000  Uiso   1.00
O1328  O     0.54873   0.66668   0.77298   0.00000  Uiso   1.00
O1329  O     0.95126   0.83332   0.22702   0.00000  Uiso   1.00
O1330  O     0.83332   0.54873   0.77298   0.00000  Uiso   1.00
O1331  O     0.66668   0.95126   0.22702   0.00000  Uiso   1.00
O1332  O     0.95126   0.66668   0.22702   0.00000  Uiso   1.00
O1333  O     0.54873   0.83332   0.77298   0.00000  Uiso   1.00
O1334  O     0.66668   0.54873   0.22702   0.00000  Uiso   1.00
O1335  O     0.83332   0.95126   0.77298   0.00000  Uiso   1.00
O1336  O     0.54873   0.83332   0.22702   0.00000  Uiso   1.00
O1337  O     0.75000   0.96538   0.33749   0.00000  Uiso   1.00
O1338  O     0.95126   0.66668   0.77298   0.00000  Uiso   1.00
O1339  O     0.83332   0.95126   0.22702   0.00000  Uiso   1.00
O1340  O     0.66668   0.54873   0.77298   0.00000  Uiso   1.00
O1341  O     0.53228   0.83281   0.36791   0.00000  Uiso   1.00
O1342  O     0.98861   0.86143   0.41284   0.00000  Uiso   1.00
O1343  O     0.91075   0.69021   0.59256   0.00000  Uiso   1.00
O1344  O     0.96148   0.66631   0.63350   0.00000  Uiso   1.00
O1345  O     0.67664   0.92126   0.40851   0.00000  Uiso   1.00
O1346  O     0.66341   0.97314   0.36484   0.00000  Uiso   1.00
O1347  O     0.83631   0.51985   0.63226   0.00000  Uiso   1.00
O1348  O     0.75000   0.53461   0.66251   0.00000  Uiso   1.00
O1349  O     0.85820   0.97133   0.58829   0.00000  Uiso   1.00
O1350  O     0.96770   0.66728   0.36782   0.00000  Uiso   1.00
O1351  O     0.51127   0.63854   0.41278   0.00000  Uiso   1.00
O1352  O     0.53987   0.83111   0.62970   0.00000  Uiso   1.00
O1353  O     0.59419   0.81010   0.59145   0.00000  Uiso   1.00
O1354  O     0.83443   0.52888   0.36887   0.00000  Uiso   1.00
O1355  O     0.82584   0.58340   0.41082   0.00000  Uiso   1.00
O1356  O     0.66375   0.98008   0.63203   0.00000  Uiso   1.00
O1357  O     0.64181   0.52887   0.58834   0.00000  Uiso   1.00
O1358  O     0.77069   0.58613   0.86791   0.00000  Uiso   1.00
O1359  O     0.53461   0.75000   0.33749   0.00000  Uiso   1.00
O1360  O     0.72189   0.60843   0.91142   0.00000  Uiso   1.00
O1361  O     0.67021   0.92736   0.09175   0.00000  Uiso   1.00
O1362  O     0.72235   0.91344   0.13503   0.00000  Uiso   1.00
O1363  O     0.91890   0.71000   0.87038   0.00000  Uiso   1.00
O1364  O     0.94030   0.65557   0.90832   0.00000  Uiso   1.00
O1365  O     0.58288   0.78206   0.13221   0.00000  Uiso   1.00
O1366  O     0.61140   0.73798   0.08754   0.00000  Uiso   1.00
O1367  O     0.72986   0.91381   0.86778   0.00000  Uiso   1.00
O1368  O     0.77802   0.89166   0.91199   0.00000  Uiso   1.00
O1369  O     0.77926   0.58416   0.13116   0.00000  Uiso   1.00
O1370  O     0.96538   0.75000   0.66251   0.00000  Uiso   1.00
O1371  O     0.83338   0.57541   0.08885   0.00000  Uiso   1.00
O1372  O     0.55994   0.83918   0.90766   0.00000  Uiso   1.00
O1373  O     0.58360   0.78862   0.86644   0.00000  Uiso   1.00
O1374  O     0.91740   0.71737   0.13208   0.00000  Uiso   1.00
O1375  O     0.88847   0.76041   0.08680   0.00000  Uiso   1.00
O1376  O     0.75000   0.53461   0.33749   0.00000  Uiso   1.00
Zn1377 Zn    0.70052   0.50000   0.21730   0.00000  Uiso   1.00
Zn1378 Zn    0.54947   0.75000   0.28270   0.00000  Uiso   1.00
Zn1379 Zn    0.75000   0.95052   0.71730   0.00000  Uiso   1.00
Zn1380 Zn    0.75000   0.54947   0.28270   0.00000  Uiso   1.00
Zn1381 Zn    0.54947   0.75000   0.71730   0.00000  Uiso   1.00
Zn1382 Zn    0.95052   0.75000   0.28270   0.00000  Uiso   1.00
Zn1383 Zn    0.75000   0.54947   0.71730   0.00000  Uiso   1.00
Zn1384 Zn    0.75000   0.95052   0.28270   0.00000  Uiso   1.00
Zn1385 Zn    0.79947   0.50000   0.78270   0.00000  Uiso   1.00
Zn1386 Zn    0.50000   0.70052   0.21730   0.00000  Uiso   1.00
Zn1387 Zn    0.50000   0.79947   0.78270   0.00000  Uiso   1.00
Zn1388 Zn    0.79947   0.50000   0.21730   0.00000  Uiso   1.00
Zn1389 Zn    0.70052   0.50000   0.78270   0.00000  Uiso   1.00
Zn1390 Zn    0.50000   0.79947   0.21730   0.00000  Uiso   1.00
Zn1391 Zn    0.50000   0.70052   0.78270   0.00000  Uiso   1.00
Zn1392 Zn    0.95052   0.75000   0.71730   0.00000  Uiso   1.00
loop_
_geom_bond_atom_site_label_1
_geom_bond_atom_site_label_2
_geom_bond_distance
_geom_bond_site_symmetry_2
_ccdc_geom_bond_type
C1     O332    1.269   .     A
C1     C108    1.464   .     S
C1     O989    1.269   1_545 S
C2     C84     1.423   .     S
C2     O263    1.275   .     A
C2     O291    1.275   .     A
C3     C50     1.532   .     S
C3     C127    1.420   .     A
C3     C6      1.404   1_554 S
C4     C128    1.422   .     A
C4     C52     1.532   .     S
C4     C151    1.404   1_556 S
C5     C54     1.532   .     S
C5     C129    1.422   .     A
C5     C150    1.405   1_554 S
C6     C130    1.424   .     A
C6     C56     1.532   .     S
C6     C3      1.404   1_556 S
C7     C132    1.421   .     A
C7     C59     1.532   .     S
C7     C152    1.404   1_554 S
C8     C89     1.489   .     S
C8     O297    1.223   .     D
C8     O646    1.399   1_455 S
C9     C90     1.486   .     S
C9     O300    1.399   .     S
C9     O299    1.223   .     D
C10    C91     1.487   .     S
C10    O302    1.399   .     S
C10    O301    1.223   .     D
C11    O305    1.398   .     S
C11    C788    1.488   .     S
C11    O999    1.223   .     S
C12    O306    1.223   .     D
C12    C93     1.489   .     S
C12    O655    1.399   .     S
C13    C83     1.419   .     S
C13    O264    1.275   .     A
C13    O288    1.276   .     A
C14    O309    1.398   .     S
C14    O308    1.223   .     D
C14    C94     1.485   .     S
C15    C95     1.487   .     S
C15    O310    1.223   .     D
C15    O311    1.398   .     S
C16    O313    1.398   .     S
C16    C792    1.488   1_545 S
C16    O1008   1.223   1_545 S
C17    O314    1.223   .     D
C17    C97     1.488   .     S
C17    O316    1.399   .     S
C18    O317    1.223   .     D
C18    C99     1.487   .     S
C18    O318    1.399   .     S
C19    O320    1.398   .     S
C19    O319    1.223   .     D
C19    C100    1.485   .     S
C20    O321    1.223   .     D
C20    C101    1.489   .     S
C20    O322    1.399   .     S
C21    O324    1.398   .     S
C21    C102    1.488   .     S
C21    O323    1.223   .     D
C22    C103    1.487   .     S
C22    O327    1.398   .     S
C22    O325    1.223   .     D
C23    O329    1.399   .     S
C23    C104    1.486   .     S
C23    O328    1.223   .     D
C24    O265    1.275   .     A
C24    O289    1.276   .     A
C24    C82     1.419   .     S
C25    C105    1.489   .     S
C25    O330    1.223   .     D
C25    O331    1.399   .     S
C26    H165    1.106   .     S
C26    C27     1.530   .     S
C26    C141    1.532   .     S
C26    H166    1.111   .     S
C27    H163    1.110   .     S
C27    H161    1.111   .     S
C27    H162    1.108   .     S
C28    H170    1.105   .     S
C28    C143    1.532   .     S
C28    H171    1.111   .     S
C28    C377    1.530   1_455 S
C29    H169    1.111   .     S
C29    H168    1.108   .     S
C29    H167    1.111   .     S
C29    C376    1.530   .     S
C30    H176    1.105   .     S
C30    C144    1.532   .     S
C30    H177    1.111   .     S
C30    C727    1.530   1_545 S
C31    H172    1.111   .     S
C31    H173    1.108   .     S
C31    H174    1.111   .     S
C31    C726    1.530   .     S
C32    C145    1.532   .     S
C32    H181    1.105   .     S
C32    H182    1.111   .     S
C32    C33     1.529   .     S
C33    H180    1.109   .     S
C33    H179    1.108   .     S
C33    H178    1.111   .     S
C34    C146    1.532   .     S
C34    C36     1.530   .     S
C34    H187    1.106   .     S
C34    H188    1.111   .     S
C35    O295    1.276   .     A
C35    C81     1.423   .     S
C35    O266    1.276   .     A
C36    H183    1.111   .     S
C36    H185    1.111   .     S
C36    H184    1.108   .     S
C37    H193    1.111   .     S
C37    C147    1.532   .     S
C37    H192    1.105   .     S
C37    C386    1.530   .     S
C38    H190    1.108   .     S
C38    H191    1.111   .     S
C38    H189    1.111   .     S
C38    C385    1.530   1_455 S
C39    H198    1.106   .     S
C39    H199    1.111   .     S
C39    C148    1.532   .     S
C39    C736    1.530   .     S
C40    H195    1.108   .     S
C40    H194    1.111   .     S
C40    H196    1.111   .     S
C40    C735    1.530   1_545 S
C41    C149    1.532   .     S
C41    H204    1.111   .     S
C41    C42     1.529   .     S
C41    H203    1.105   .     S
C42    H202    1.111   .     S
C42    H200    1.111   .     S
C42    H201    1.108   .     S
C43    C44     1.529   .     S
C43    H209    1.105   .     S
C43    C150    1.532   .     S
C43    H210    1.111   .     S
C44    H205    1.111   .     S
C44    H207    1.111   .     S
C44    H206    1.108   .     S
C45    C47     1.530   .     S
C45    C151    1.532   .     S
C45    H215    1.111   .     S
C45    H214    1.105   .     S
C46    O267    1.276   .     A
C46    O296    1.276   .     A
C46    C80     1.423   .     S
C47    H211    1.111   .     S
C47    H213    1.111   .     S
C47    H212    1.108   .     S
C48    C49     1.530   .     S
C48    C152    1.532   .     S
C48    H220    1.106   .     S
C48    H221    1.111   .     S
C49    H217    1.108   .     S
C49    H218    1.111   .     S
C49    H216    1.111   .     S
C50    H226    1.111   .     S
C50    H225    1.106   .     S
C50    C51     1.530   .     S
C51    H223    1.108   .     S
C51    H224    1.110   .     S
C51    H222    1.111   .     S
C52    C53     1.529   .     S
C52    H231    1.105   .     S
C52    H232    1.111   .     S
C53    H227    1.111   .     S
C53    H229    1.109   .     S
C53    H228    1.108   .     S
C54    H236    1.105   .     S
C54    C55     1.530   .     S
C54    H237    1.111   .     S
C55    H234    1.108   .     S
C55    H235    1.111   .     S
C55    H233    1.111   .     S
C56    H242    1.105   .     S
C56    C58     1.530   .     S
C56    H243    1.111   .     S
C57    O292    1.275   .     A
C57    O268    1.276   .     A
C57    C88     1.419   .     S
C58    H239    1.108   .     S
C58    H240    1.111   .     S
C58    H238    1.111   .     S
C59    H248    1.111   .     S
C59    C60     1.530   .     S
C59    H247    1.106   .     S
C60    H245    1.108   .     S
C60    H244    1.111   .     S
C60    H246    1.111   .     S
C61    O294    1.275   .     A
C61    O269    1.276   .     A
C61    C86     1.419   .     S
C62    C77     1.419   .     S
C62    O270    1.276   .     A
C62    O281    1.275   .     A
C63    C75     1.419   .     S
C63    O283    1.275   .     A
C63    O272    1.276   .     A
C64    O279    1.275   .     A
C64    O273    1.275   .     A
C64    C74     1.423   .     S
C65    O946    1.268   1_545 A
C65    C110    1.460   .     S
C65    O304    1.268   .     S
C66    O274    1.275   .     A
C66    O280    1.275   .     A
C66    C73     1.423   .     S
C67    C72     1.419   .     S
C67    O286    1.276   .     A
C67    O275    1.275   .     A
C68    O287    1.276   .     A
C68    C71     1.419   .     S
C68    O276    1.275   .     A
C69    C79     1.423   .     S
C69    O284    1.276   .     A
C69    O277    1.276   .     A
C70    O278    1.276   .     A
C70    O285    1.276   .     A
C70    C78     1.423   .     S
C71    C88     1.197   .     T
C72    C86     1.197   .     T
C73    C85     1.199   .     T
C74    C84     1.199   .     T
C75    C83     1.197   .     T
C76    O315    1.267   .     A
C76    C106    1.457   .     S
C76    O599    1.268   1_455 S
C77    C82     1.197   .     T
C78    C81     1.199   .     T
C79    C80     1.199   .     T
C85    C142    1.423   .     S
C87    O326    1.270   .     A
C87    C107    1.467   .     S
C87    O600    1.270   .     S
C89    C106    1.407   .     A
C89    C119    1.414   .     A
C90    C107    1.409   .     A
C90    C121    1.415   .     A
C91    C122    1.416   .     A
C91    C804    1.407   .     S
C92    C123    1.415   .     A
C92    C110    1.406   .     A
C92    C707    1.488   1_545 S
C93    C115    1.414   .     A
C93    C454    1.406   .     S
C94    C116    1.416   .     A
C94    C455    1.410   1_455 S
C95    C108    1.409   .     A
C95    C117    1.416   .     A
C96    C118    1.415   .     A
C96    C712    1.488   .     S
C96    C806    1.406   .     S
C97    C128    1.415   .     A
C97    C111    1.406   .     A
C98    O253    1.270   .     A
C98    O257    1.270   .     A
C98    C461    1.467   1_455 S
C99    C129    1.416   .     A
C99    C808    1.408   .     S
C100   C130    1.416   .     A
C100   C113    1.410   .     A
C101   C132    1.414   .     A
C101   C114    1.407   .     A
C102   C124    1.415   .     A
C102   C807    1.406   .     S
C103   C112    1.408   .     A
C103   C125    1.416   .     A
C104   C126    1.415   .     A
C104   C461    1.409   1_455 S
C105   C127    1.413   .     A
C105   C462    1.407   .     S
C106   C441    1.406   1_455 S
C107   C442    1.410   .     S
C108   C787    1.407   1_545 S
C109   O602    1.268   .     A
C109   C462    1.457   .     S
C109   O606    1.267   .     S
C110   C792    1.406   1_545 S
C111   C798    1.406   1_545 S
C111   C816    1.460   1_545 S
C112   C795    1.408   1_545 S
C112   C827    1.464   1_545 S
C113   C452    1.409   .     S
C113   C446    1.467   .     S
C114   C453    1.407   1_455 S
C114   C457    1.457   1_455 S
C115   C141    1.420   .     A
C115   C481    1.420   .     S
C116   C134    1.422   .     A
C116   C143    1.424   .     A
C117   C135    1.421   .     A
C117   C144    1.422   .     A
C118   C145    1.422   .     A
C118   C832    1.421   .     S
C119   C146    1.420   .     A
C119   C133    1.420   .     A
C120   C807    1.460   .     S
C120   O951    1.268   .     S
C120   O955    1.268   .     S
C121   C147    1.424   .     A
C121   C482    1.421   .     S
C122   C148    1.421   .     A
C122   C831    1.420   .     S
C123   C149    1.422   .     A
C123   C136    1.421   .     A
C124   C150    1.422   .     A
C124   C833    1.421   .     S
C125   C138    1.420   .     A
C125   C151    1.421   .     A
C126   C152    1.424   .     A
C126   C139    1.421   .     A
C127   C488    1.419   .     S
C128   C137    1.421   .     A
C129   C834    1.420   .     S
C130   C487    1.422   .     S
C131   C808    1.464   .     S
C131   O952    1.269   .     S
C131   O957    1.270   .     S
C132   C140    1.420   .     A
C133   C134    1.414   .     A
C133   C463    1.420   1_455 S
C134   C469    1.421   1_455 S
C135   C136    1.415   .     A
C135   C818    1.420   1_545 S
C136   C814    1.421   1_545 S
C137   C820    1.421   1_545 S
C137   C138    1.415   1_556 S
C138   C825    1.420   1_545 S
C138   C137    1.415   1_554 S
C139   C478    1.422   1_455 S
C139   C140    1.414   1_556 S
C140   C475    1.419   1_455 S
C140   C139    1.414   1_554 S
C141   C147    1.404   .     A
C142   O290    1.275   .     A
C142   O262    1.275   .     A
C143   C146    1.404   .     A
C144   C149    1.405   .     A
C145   C148    1.404   .     A
C150   C5      1.405   1_556 S
C151   C4      1.404   1_554 S
C152   C7      1.404   1_556 S
H153   O298    1.014   .     S
H154   O318    1.014   .     S
H155   O320    1.014   .     S
H156   O322    1.014   .     S
H157   O324    1.014   .     S
H158   O327    1.014   .     S
H159   O329    1.014   .     S
H160   O331    1.014   .     S
H164   O300    1.014   .     S
H175   O302    1.014   .     S
H186   O305    1.014   .     S
H197   O307    1.014   .     S
H208   O309    1.014   .     S
H219   O311    1.014   .     S
H230   O313    1.014   .     S
H241   O316    1.014   .     S
O249   Zn336   1.934   .     S
O249   Zn333   1.934   .     S
O249   Zn344   1.935   .     S
O249   Zn1036  1.935   1_545 S
O250   C761    1.268   .     A
O250   Zn335   1.950   .     S
O251   Zn338   1.949   .     S
O251   C424    1.268   .     S
O252   Zn337   1.949   .     S
O252   C435    1.270   1_455 S
O253   Zn347   1.949   .     S
O254   C457    1.268   1_455 A
O254   Zn346   1.949   .     S
O255   Zn341   1.950   .     S
O255   C816    1.268   1_545 S
O256   Zn333   1.950   .     S
O256   C827    1.269   1_545 S
O257   Zn343   1.950   .     S
O258   Zn342   1.950   .     S
O258   C457    1.267   1_455 S
O259   Zn345   1.949   .     S
O259   C816    1.268   1_545 S
O260   Zn345   1.935   .     S
O260   Zn341   1.934   .     S
O260   Zn339   1.935   .     S
O260   Zn1031  1.934   1_545 S
O261   Zn344   1.949   .     S
O261   C827    1.270   1_545 S
O262   Zn336   1.916   .     S
O263   Zn335   1.916   .     S
O264   Zn338   1.911   .     S
O265   Zn337   1.911   .     S
O266   Zn340   1.916   .     S
O267   Zn339   1.916   .     S
O268   Zn334   1.912   .     S
O269   Zn348   1.912   .     S
O270   Zn335   1.912   .     S
O271   Zn346   1.935   .     S
O271   Zn334   1.934   .     S
O271   Zn342   1.934   .     S
O271   Zn686   1.935   1_455 S
O272   Zn336   1.912   .     S
O273   Zn348   1.916   .     S
O274   Zn334   1.916   .     S
O275   Zn339   1.911   .     S
O276   Zn340   1.911   .     S
O277   Zn337   1.916   .     S
O278   Zn338   1.916   .     S
O279   Zn691   1.916   .     S
O280   Zn342   1.916   .     S
O281   Zn1041  1.911   .     S
O282   Zn347   1.935   .     S
O282   Zn337   1.935   .     S
O282   Zn343   1.934   .     S
O282   Zn696   1.934   1_455 S
O283   Zn344   1.911   .     S
O284   Zn347   1.916   .     S
O285   Zn694   1.916   .     S
O286   Zn341   1.912   .     S
O287   Zn1029  1.912   .     S
O288   Zn690   1.912   .     S
O289   Zn343   1.912   .     S
O290   Zn333   1.916   .     S
O291   Zn1037  1.916   .     S
O292   Zn346   1.911   .     S
O293   Zn340   1.949   .     S
O293   C697    1.269   .     S
O294   Zn695   1.911   .     S
O295   Zn1040  1.916   .     S
O296   Zn345   1.916   .     S
O298   C356    1.399   .     S
O303   C707    1.223   1_545 S
O304   Zn339   1.949   .     S
O307   C360    1.399   1_455 S
O312   C712    1.223   .     S
O315   Zn334   1.950   .     S
O326   Zn348   1.950   .     S
O332   Zn336   1.950   .     S
Zn333  O983    1.912   1_545 S
Zn335  O956    1.934   .     S
Zn338  O619    1.935   .     S
Zn340  O945    1.935   .     S
Zn341  O987    1.916   1_545 S
Zn342  O636    1.912   1_455 S
Zn343  O627    1.916   1_455 S
Zn344  O991    1.916   1_545 S
Zn345  O977    1.911   1_545 S
Zn346  O633    1.916   1_455 S
Zn347  O642    1.911   1_455 S
Zn348  O630    1.934   .     S
C349   O680    1.269   .     A
C349   C456    1.464   .     S
C349   O1337   1.269   1_545 S
C350   C432    1.423   .     S
C350   O611    1.275   .     A
C350   O639    1.275   .     A
C351   C398    1.532   .     S
C351   C475    1.420   .     A
C351   C354    1.404   1_554 S
C352   C476    1.422   .     A
C352   C400    1.532   .     S
C352   C499    1.404   1_556 S
C353   C402    1.532   .     S
C353   C477    1.422   .     A
C353   C498    1.405   1_554 S
C354   C478    1.424   .     A
C354   C404    1.532   .     S
C354   C351    1.404   1_556 S
C355   C480    1.421   .     A
C355   C407    1.532   .     S
C355   C500    1.404   1_554 S
C356   C437    1.489   .     S
C356   O645    1.223   .     D
C357   C438    1.486   .     S
C357   O648    1.399   .     S
C357   O647    1.223   .     D
C358   C439    1.487   .     S
C358   O650    1.399   .     S
C358   O649    1.223   .     D
C359   O653    1.398   .     S
C359   C1136   1.488   .     S
C359   O1347   1.223   .     S
C360   O654    1.223   .     D
C360   C441    1.489   .     S
C360   O307    1.399   1_655 S
C361   C431    1.419   .     S
C361   O612    1.275   .     A
C361   O636    1.276   .     A
C362   O657    1.398   .     S
C362   O656    1.223   .     D
C362   C442    1.485   .     S
C363   C443    1.487   .     S
C363   O658    1.223   .     D
C363   O659    1.398   .     S
C364   O661    1.398   .     S
C364   C1140   1.488   1_545 S
C364   O1356   1.223   1_545 S
C365   O662    1.223   .     D
C365   C445    1.488   .     S
C365   O664    1.399   .     S
C366   O665    1.223   .     D
C366   C447    1.487   .     S
C366   O666    1.399   .     S
C367   O668    1.398   .     S
C367   O667    1.223   .     D
C367   C448    1.485   .     S
C368   O669    1.223   .     D
C368   C449    1.489   .     S
C368   O670    1.399   .     S
C369   O672    1.398   .     S
C369   C450    1.488   .     S
C369   O671    1.223   .     D
C370   C451    1.487   .     S
C370   O675    1.398   .     S
C370   O673    1.223   .     D
C371   O677    1.399   .     S
C371   C452    1.486   .     S
C371   O676    1.223   .     D
C372   O613    1.275   .     A
C372   O637    1.276   .     A
C372   C430    1.419   .     S
C373   C453    1.489   .     S
C373   O678    1.223   .     D
C373   O679    1.399   .     S
C374   H513    1.106   .     S
C374   C375    1.530   .     S
C374   C489    1.532   .     S
C374   H514    1.111   .     S
C375   H511    1.110   .     S
C375   H509    1.111   .     S
C375   H510    1.108   .     S
C376   H518    1.105   .     S
C376   C491    1.532   .     S
C376   H519    1.111   .     S
C377   H517    1.111   .     S
C377   H516    1.108   .     S
C377   H515    1.111   .     S
C377   C28     1.530   1_655 S
C378   H524    1.105   .     S
C378   C492    1.532   .     S
C378   H525    1.111   .     S
C378   C1075   1.530   1_545 S
C379   H520    1.111   .     S
C379   H521    1.108   .     S
C379   H522    1.111   .     S
C379   C1074   1.530   .     S
C380   C493    1.532   .     S
C380   H529    1.105   .     S
C380   H530    1.111   .     S
C380   C381    1.529   .     S
C381   H528    1.109   .     S
C381   H527    1.108   .     S
C381   H526    1.111   .     S
C382   C494    1.532   .     S
C382   C384    1.530   .     S
C382   H535    1.106   .     S
C382   H536    1.111   .     S
C383   O643    1.276   .     A
C383   C429    1.423   .     S
C383   O614    1.276   .     A
C384   H531    1.111   .     S
C384   H533    1.111   .     S
C384   H532    1.108   .     S
C385   H541    1.111   .     S
C385   C495    1.532   .     S
C385   H540    1.105   .     S
C385   C38     1.530   1_655 S
C386   H538    1.108   .     S
C386   H539    1.111   .     S
C386   H537    1.111   .     S
C387   H546    1.106   .     S
C387   H547    1.111   .     S
C387   C496    1.532   .     S
C387   C1084   1.530   .     S
C388   H543    1.108   .     S
C388   H542    1.111   .     S
C388   H544    1.111   .     S
C388   C1083   1.530   1_545 S
C389   C497    1.532   .     S
C389   H552    1.111   .     S
C389   C390    1.529   .     S
C389   H551    1.105   .     S
C390   H550    1.111   .     S
C390   H548    1.111   .     S
C390   H549    1.108   .     S
C391   C392    1.529   .     S
C391   H557    1.105   .     S
C391   C498    1.532   .     S
C391   H558    1.111   .     S
C392   H553    1.111   .     S
C392   H555    1.111   .     S
C392   H554    1.108   .     S
C393   C395    1.530   .     S
C393   C499    1.532   .     S
C393   H563    1.111   .     S
C393   H562    1.105   .     S
C394   O615    1.276   .     A
C394   O644    1.276   .     A
C394   C428    1.423   .     S
C395   H559    1.111   .     S
C395   H561    1.111   .     S
C395   H560    1.108   .     S
C396   C397    1.530   .     S
C396   C500    1.532   .     S
C396   H568    1.106   .     S
C396   H569    1.111   .     S
C397   H565    1.108   .     S
C397   H566    1.111   .     S
C397   H564    1.111   .     S
C398   H574    1.111   .     S
C398   H573    1.106   .     S
C398   C399    1.530   .     S
C399   H571    1.108   .     S
C399   H572    1.110   .     S
C399   H570    1.111   .     S
C400   C401    1.529   .     S
C400   H579    1.105   .     S
C400   H580    1.111   .     S
C401   H575    1.111   .     S
C401   H577    1.109   .     S
C401   H576    1.108   .     S
C402   H584    1.105   .     S
C402   C403    1.530   .     S
C402   H585    1.111   .     S
C403   H582    1.108   .     S
C403   H583    1.111   .     S
C403   H581    1.111   .     S
C404   H590    1.105   .     S
C404   C406    1.530   .     S
C404   H591    1.111   .     S
C405   O640    1.275   .     A
C405   O616    1.276   .     A
C405   C436    1.419   .     S
C406   H587    1.108   .     S
C406   H588    1.111   .     S
C406   H586    1.111   .     S
C407   H596    1.111   .     S
C407   C408    1.530   .     S
C407   H595    1.106   .     S
C408   H593    1.108   .     S
C408   H592    1.111   .     S
C408   H594    1.111   .     S
C409   O642    1.275   .     A
C409   O617    1.276   .     A
C409   C434    1.419   .     S
C410   C425    1.419   .     S
C410   O618    1.276   .     A
C410   O629    1.275   .     A
C411   C423    1.419   .     S
C411   O631    1.275   .     A
C411   O620    1.276   .     A
C412   O627    1.275   .     A
C412   O621    1.275   .     A
C412   C422    1.423   .     S
C413   O1294   1.268   1_545 A
C413   C458    1.460   .     S
C413   O652    1.268   .     S
C414   O622    1.275   .     A
C414   O628    1.275   .     A
C414   C421    1.423   .     S
C415   C420    1.419   .     S
C415   O634    1.276   .     A
C415   O623    1.275   .     A
C416   O635    1.276   .     A
C416   C419    1.419   .     S
C416   O624    1.275   .     A
C417   C427    1.423   .     S
C417   O632    1.276   .     A
C417   O625    1.276   .     A
C418   O626    1.276   .     A
C418   O633    1.276   .     A
C418   C426    1.423   .     S
C419   C436    1.197   .     T
C420   C434    1.197   .     T
C421   C433    1.199   .     T
C422   C432    1.199   .     T
C423   C431    1.197   .     T
C424   O663    1.267   .     A
C424   C454    1.457   .     S
C425   C430    1.197   .     T
C426   C429    1.199   .     T
C427   C428    1.199   .     T
C433   C490    1.423   .     S
C435   O674    1.270   .     A
C435   C455    1.467   .     S
C435   O252    1.270   1_655 S
C437   C454    1.407   .     A
C437   C467    1.414   .     A
C438   C455    1.409   .     A
C438   C469    1.415   .     A
C439   C470    1.416   .     A
C439   C1152   1.407   .     S
C440   C471    1.415   .     A
C440   C458    1.406   .     A
C440   C1055   1.488   1_545 S
C441   C463    1.414   .     A
C441   C106    1.406   1_655 S
C442   C464    1.416   .     A
C443   C456    1.409   .     A
C443   C465    1.416   .     A
C444   C466    1.415   .     A
C444   C1060   1.488   .     S
C444   C1154   1.406   .     S
C445   C476    1.415   .     A
C445   C459    1.406   .     A
C446   O601    1.270   .     A
C446   O605    1.270   .     A
C447   C477    1.416   .     A
C447   C1156   1.408   .     S
C448   C478    1.416   .     A
C448   C461    1.410   .     A
C449   C480    1.414   .     A
C449   C462    1.407   .     A
C450   C472    1.415   .     A
C450   C1155   1.406   .     S
C451   C460    1.408   .     A
C451   C473    1.416   .     A
C452   C474    1.415   .     A
C453   C475    1.413   .     A
C453   C114    1.407   1_655 S
C455   C94     1.410   1_655 S
C456   C1135   1.407   1_545 S
C457   O254    1.268   1_655 A
C457   C114    1.457   1_655 S
C457   O258    1.267   1_655 S
C458   C1140   1.406   1_545 S
C459   C1146   1.406   1_545 S
C459   C1164   1.460   1_545 S
C460   C1143   1.408   1_545 S
C460   C1175   1.464   1_545 S
C461   C104    1.409   1_655 S
C461   C98     1.467   1_655 S
C463   C489    1.420   .     A
C463   C133    1.420   1_655 S
C464   C482    1.422   .     A
C464   C491    1.424   .     A
C465   C483    1.421   .     A
C465   C492    1.422   .     A
C466   C493    1.422   .     A
C466   C1180   1.421   .     S
C467   C494    1.420   .     A
C467   C481    1.420   .     A
C468   C1155   1.460   .     S
C468   O1299   1.268   .     S
C468   O1303   1.268   .     S
C469   C495    1.424   .     A
C469   C134    1.421   1_655 S
C470   C496    1.421   .     A
C470   C1179   1.420   .     S
C471   C497    1.422   .     A
C471   C484    1.421   .     A
C472   C498    1.422   .     A
C472   C1181   1.421   .     S
C473   C486    1.420   .     A
C473   C499    1.421   .     A
C474   C500    1.424   .     A
C474   C487    1.421   .     A
C475   C140    1.419   1_655 S
C476   C485    1.421   .     A
C477   C1182   1.420   .     S
C478   C139    1.422   1_655 S
C479   C1156   1.464   .     S
C479   O1300   1.269   .     S
C479   O1305   1.270   .     S
C480   C488    1.420   .     A
C481   C482    1.414   .     A
C483   C484    1.415   .     A
C483   C1166   1.420   1_545 S
C484   C1162   1.421   1_545 S
C485   C1168   1.421   1_545 S
C485   C486    1.415   1_556 S
C486   C1173   1.420   1_545 S
C486   C485    1.415   1_554 S
C487   C488    1.414   1_556 S
C488   C487    1.414   1_554 S
C489   C495    1.404   .     A
C490   O638    1.275   .     A
C490   O610    1.275   .     A
C491   C494    1.404   .     A
C492   C497    1.405   .     A
C493   C496    1.404   .     A
C498   C353    1.405   1_556 S
C499   C352    1.404   1_554 S
C500   C355    1.404   1_556 S
H501   O646    1.014   .     S
H502   O666    1.014   .     S
H503   O668    1.014   .     S
H504   O670    1.014   .     S
H505   O672    1.014   .     S
H506   O675    1.014   .     S
H507   O677    1.014   .     S
H508   O679    1.014   .     S
H512   O648    1.014   .     S
H523   O650    1.014   .     S
H534   O653    1.014   .     S
H545   O655    1.014   .     S
H556   O657    1.014   .     S
H567   O659    1.014   .     S
H578   O661    1.014   .     S
H589   O664    1.014   .     S
O597   Zn684   1.934   .     S
O597   Zn681   1.934   .     S
O597   Zn692   1.935   .     S
O597   Zn1384  1.935   1_545 S
O598   C1109   1.268   .     A
O598   Zn683   1.950   .     S
O599   Zn686   1.949   .     S
O599   C76     1.268   1_655 S
O600   Zn685   1.949   .     S
O601   Zn695   1.949   .     S
O602   Zn694   1.949   .     S
O603   Zn689   1.950   .     S
O603   C1164   1.268   1_545 S
O604   Zn681   1.950   .     S
O604   C1175   1.269   1_545 S
O605   Zn691   1.950   .     S
O606   Zn690   1.950   .     S
O607   Zn693   1.949   .     S
O607   C1164   1.268   1_545 S
O608   Zn693   1.935   .     S
O608   Zn689   1.934   .     S
O608   Zn687   1.935   .     S
O608   Zn1379  1.934   1_545 S
O609   Zn692   1.949   .     S
O609   C1175   1.270   1_545 S
O610   Zn684   1.916   .     S
O611   Zn683   1.916   .     S
O612   Zn686   1.911   .     S
O613   Zn685   1.911   .     S
O614   Zn688   1.916   .     S
O615   Zn687   1.916   .     S
O616   Zn682   1.912   .     S
O617   Zn696   1.912   .     S
O618   Zn683   1.912   .     S
O619   Zn694   1.935   .     S
O619   Zn682   1.934   .     S
O619   Zn690   1.934   .     S
O620   Zn684   1.912   .     S
O621   Zn696   1.916   .     S
O622   Zn682   1.916   .     S
O623   Zn687   1.911   .     S
O624   Zn688   1.911   .     S
O625   Zn685   1.916   .     S
O626   Zn686   1.916   .     S
O627   Zn343   1.916   1_655 S
O628   Zn690   1.916   .     S
O629   Zn1389  1.911   .     S
O630   Zn695   1.935   .     S
O630   Zn685   1.935   .     S
O630   Zn691   1.934   .     S
O631   Zn692   1.911   .     S
O632   Zn695   1.916   .     S
O633   Zn346   1.916   1_655 S
O634   Zn689   1.912   .     S
O635   Zn1377  1.912   .     S
O636   Zn342   1.912   1_655 S
O637   Zn691   1.912   .     S
O638   Zn681   1.916   .     S
O639   Zn1385  1.916   .     S
O640   Zn694   1.911   .     S
O641   Zn688   1.949   .     S
O641   C1045   1.269   .     S
O642   Zn347   1.911   1_655 S
O643   Zn1388  1.916   .     S
O644   Zn693   1.916   .     S
O646   C8      1.399   1_655 S
O651   C1055   1.223   1_545 S
O652   Zn687   1.949   .     S
O660   C1060   1.223   .     S
O663   Zn682   1.950   .     S
O674   Zn696   1.950   .     S
O680   Zn684   1.950   .     S
Zn681  O1331   1.912   1_545 S
Zn683  O1304   1.934   .     S
Zn686  O271    1.935   1_655 S
Zn688  O1293   1.935   .     S
Zn689  O1335   1.916   1_545 S
Zn692  O1339   1.916   1_545 S
Zn693  O1325   1.911   1_545 S
Zn696  O282    1.934   1_655 S
C697   O1028   1.269   .     A
C697   C804    1.464   .     S
C698   C780    1.423   .     S
C698   O959    1.275   .     A
C698   O987    1.275   .     A
C699   C746    1.532   .     S
C699   C823    1.420   .     A
C699   C702    1.404   1_554 S
C700   C824    1.422   .     A
C700   C748    1.532   .     S
C700   C847    1.404   1_556 S
C701   C750    1.532   .     S
C701   C825    1.422   .     A
C701   C846    1.405   1_554 S
C702   C826    1.424   .     A
C702   C752    1.532   .     S
C702   C699    1.404   1_556 S
C703   C828    1.421   .     A
C703   C755    1.532   .     S
C703   C848    1.404   1_554 S
C704   C785    1.489   .     S
C704   O993    1.223   .     D
C704   O1342   1.399   1_455 S
C705   C786    1.486   .     S
C705   O996    1.399   .     S
C705   O995    1.223   .     D
C706   C787    1.487   .     S
C706   O998    1.399   .     S
C706   O997    1.223   .     D
C707   O1001   1.398   .     S
C707   C92     1.488   1_565 S
C707   O303    1.223   1_565 S
C708   O1002   1.223   .     D
C708   C789    1.489   .     S
C708   O1351   1.399   .     S
C709   C779    1.419   .     S
C709   O960    1.275   .     A
C709   O984    1.276   .     A
C710   O1005   1.398   .     S
C710   O1004   1.223   .     D
C710   C790    1.485   .     S
C711   C791    1.487   .     S
C711   O1006   1.223   .     D
C711   O1007   1.398   .     S
C712   O1009   1.398   .     S
C713   O1010   1.223   .     D
C713   C793    1.488   .     S
C713   O1012   1.399   .     S
C714   O1013   1.223   .     D
C714   C795    1.487   .     S
C714   O1014   1.399   .     S
C715   O1016   1.398   .     S
C715   O1015   1.223   .     D
C715   C796    1.485   .     S
C716   O1017   1.223   .     D
C716   C797    1.489   .     S
C716   O1018   1.399   .     S
C717   O1020   1.398   .     S
C717   C798    1.488   .     S
C717   O1019   1.223   .     D
C718   C799    1.487   .     S
C718   O1023   1.398   .     S
C718   O1021   1.223   .     D
C719   O1025   1.399   .     S
C719   C800    1.486   .     S
C719   O1024   1.223   .     D
C720   O961    1.275   .     A
C720   O985    1.276   .     A
C720   C778    1.419   .     S
C721   C801    1.489   .     S
C721   O1026   1.223   .     D
C721   O1027   1.399   .     S
C722   H861    1.106   .     S
C722   C723    1.530   .     S
C722   C837    1.532   .     S
C722   H862    1.111   .     S
C723   H859    1.110   .     S
C723   H857    1.111   .     S
C723   H858    1.108   .     S
C724   H866    1.105   .     S
C724   C839    1.532   .     S
C724   H867    1.111   .     S
C724   C1073   1.530   1_455 S
C725   H865    1.111   .     S
C725   H864    1.108   .     S
C725   H863    1.111   .     S
C725   C1072   1.530   .     S
C726   H872    1.105   .     S
C726   C840    1.532   .     S
C726   H873    1.111   .     S
C727   H868    1.111   .     S
C727   H869    1.108   .     S
C727   H870    1.111   .     S
C727   C30     1.530   1_565 S
C728   C841    1.532   .     S
C728   H877    1.105   .     S
C728   H878    1.111   .     S
C728   C729    1.529   .     S
C729   H876    1.109   .     S
C729   H875    1.108   .     S
C729   H874    1.111   .     S
C730   C842    1.532   .     S
C730   C732    1.530   .     S
C730   H883    1.106   .     S
C730   H884    1.111   .     S
C731   O991    1.276   .     A
C731   C777    1.423   .     S
C731   O962    1.276   .     A
C732   H879    1.111   .     S
C732   H881    1.111   .     S
C732   H880    1.108   .     S
C733   H889    1.111   .     S
C733   C843    1.532   .     S
C733   H888    1.105   .     S
C733   C1082   1.530   .     S
C734   H886    1.108   .     S
C734   H887    1.111   .     S
C734   H885    1.111   .     S
C734   C1081   1.530   1_455 S
C735   H894    1.106   .     S
C735   H895    1.111   .     S
C735   C844    1.532   .     S
C735   C40     1.530   1_565 S
C736   H891    1.108   .     S
C736   H890    1.111   .     S
C736   H892    1.111   .     S
C737   C845    1.532   .     S
C737   H900    1.111   .     S
C737   C738    1.529   .     S
C737   H899    1.105   .     S
C738   H898    1.111   .     S
C738   H896    1.111   .     S
C738   H897    1.108   .     S
C739   C740    1.529   .     S
C739   H905    1.105   .     S
C739   C846    1.532   .     S
C739   H906    1.111   .     S
C740   H901    1.111   .     S
C740   H903    1.111   .     S
C740   H902    1.108   .     S
C741   C743    1.530   .     S
C741   C847    1.532   .     S
C741   H911    1.111   .     S
C741   H910    1.105   .     S
C742   O963    1.276   .     A
C742   O992    1.276   .     A
C742   C776    1.423   .     S
C743   H907    1.111   .     S
C743   H909    1.111   .     S
C743   H908    1.108   .     S
C744   C745    1.530   .     S
C744   C848    1.532   .     S
C744   H916    1.106   .     S
C744   H917    1.111   .     S
C745   H913    1.108   .     S
C745   H914    1.111   .     S
C745   H912    1.111   .     S
C746   H922    1.111   .     S
C746   H921    1.106   .     S
C746   C747    1.530   .     S
C747   H919    1.108   .     S
C747   H920    1.110   .     S
C747   H918    1.111   .     S
C748   C749    1.529   .     S
C748   H927    1.105   .     S
C748   H928    1.111   .     S
C749   H923    1.111   .     S
C749   H925    1.109   .     S
C749   H924    1.108   .     S
C750   H932    1.105   .     S
C750   C751    1.530   .     S
C750   H933    1.111   .     S
C751   H930    1.108   .     S
C751   H931    1.111   .     S
C751   H929    1.111   .     S
C752   H938    1.105   .     S
C752   C754    1.530   .     S
C752   H939    1.111   .     S
C753   O988    1.275   .     A
C753   O964    1.276   .     A
C753   C784    1.419   .     S
C754   H935    1.108   .     S
C754   H936    1.111   .     S
C754   H934    1.111   .     S
C755   H944    1.111   .     S
C755   C756    1.530   .     S
C755   H943    1.106   .     S
C756   H941    1.108   .     S
C756   H940    1.111   .     S
C756   H942    1.111   .     S
C757   O990    1.275   .     A
C757   O965    1.276   .     A
C757   C782    1.419   .     S
C758   C773    1.419   .     S
C758   O966    1.276   .     A
C758   O977    1.275   .     A
C759   C771    1.419   .     S
C759   O979    1.275   .     A
C759   O968    1.276   .     A
C760   O975    1.275   .     A
C760   O969    1.275   .     A
C760   C770    1.423   .     S
C761   C806    1.460   .     S
C761   O1000   1.268   .     S
C762   O970    1.275   .     A
C762   O976    1.275   .     A
C762   C769    1.423   .     S
C763   C768    1.419   .     S
C763   O982    1.276   .     A
C763   O971    1.275   .     A
C764   O983    1.276   .     A
C764   C767    1.419   .     S
C764   O972    1.275   .     A
C765   C775    1.423   .     S
C765   O980    1.276   .     A
C765   O973    1.276   .     A
C766   O974    1.276   .     A
C766   O981    1.276   .     A
C766   C774    1.423   .     S
C767   C784    1.197   .     T
C768   C782    1.197   .     T
C769   C781    1.199   .     T
C770   C780    1.199   .     T
C771   C779    1.197   .     T
C772   O1011   1.267   .     A
C772   C802    1.457   .     S
C772   O1295   1.268   1_455 S
C773   C778    1.197   .     T
C774   C777    1.199   .     T
C775   C776    1.199   .     T
C781   C838    1.423   .     S
C783   O1022   1.270   .     A
C783   C803    1.467   .     S
C783   O1296   1.270   .     S
C785   C802    1.407   .     A
C785   C815    1.414   .     A
C786   C803    1.409   .     A
C786   C817    1.415   .     A
C787   C818    1.416   .     A
C787   C108    1.407   1_565 S
C788   C819    1.415   .     A
C788   C806    1.406   .     A
C789   C811    1.414   .     A
C789   C1150   1.406   .     S
C790   C812    1.416   .     A
C790   C1151   1.410   1_455 S
C791   C804    1.409   .     A
C791   C813    1.416   .     A
C792   C814    1.415   .     A
C792   C16     1.488   1_565 S
C792   C110    1.406   1_565 S
C793   C824    1.415   .     A
C793   C807    1.406   .     A
C794   O949    1.270   .     A
C794   O953    1.270   .     A
C794   C1157   1.467   1_455 S
C795   C825    1.416   .     A
C795   C112    1.408   1_565 S
C796   C826    1.416   .     A
C796   C809    1.410   .     A
C797   C828    1.414   .     A
C797   C810    1.407   .     A
C798   C820    1.415   .     A
C798   C111    1.406   1_565 S
C799   C808    1.408   .     A
C799   C821    1.416   .     A
C800   C822    1.415   .     A
C800   C1157   1.409   1_455 S
C801   C823    1.413   .     A
C801   C1158   1.407   .     S
C802   C1137   1.406   1_455 S
C803   C1138   1.410   .     S
C805   O1298   1.268   .     A
C805   C1158   1.457   .     S
C805   O1302   1.267   .     S
C809   C1148   1.409   .     S
C809   C1142   1.467   .     S
C810   C1149   1.407   1_455 S
C810   C1153   1.457   1_455 S
C811   C837    1.420   .     A
C811   C1177   1.420   .     S
C812   C830    1.422   .     A
C812   C839    1.424   .     A
C813   C831    1.421   .     A
C813   C840    1.422   .     A
C814   C841    1.422   .     A
C814   C136    1.421   1_565 S
C815   C842    1.420   .     A
C815   C829    1.420   .     A
C816   C111    1.460   1_565 S
C816   O255    1.268   1_565 S
C816   O259    1.268   1_565 S
C817   C843    1.424   .     A
C817   C1178   1.421   .     S
C818   C844    1.421   .     A
C818   C135    1.420   1_565 S
C819   C845    1.422   .     A
C819   C832    1.421   .     A
C820   C846    1.422   .     A
C820   C137    1.421   1_565 S
C821   C834    1.420   .     A
C821   C847    1.421   .     A
C822   C848    1.424   .     A
C822   C835    1.421   .     A
C823   C1184   1.419   .     S
C824   C833    1.421   .     A
C825   C138    1.420   1_565 S
C826   C1183   1.422   .     S
C827   C112    1.464   1_565 S
C827   O256    1.269   1_565 S
C827   O261    1.270   1_565 S
C828   C836    1.420   .     A
C829   C830    1.414   .     A
C829   C1159   1.420   1_455 S
C830   C1165   1.421   1_455 S
C831   C832    1.415   .     A
C833   C834    1.415   1_556 S
C834   C833    1.415   1_554 S
C835   C1174   1.422   1_455 S
C835   C836    1.414   1_556 S
C836   C1171   1.419   1_455 S
C836   C835    1.414   1_554 S
C837   C843    1.404   .     A
C838   O986    1.275   .     A
C838   O958    1.275   .     A
C839   C842    1.404   .     A
C840   C845    1.405   .     A
C841   C844    1.404   .     A
C846   C701    1.405   1_556 S
C847   C700    1.404   1_554 S
C848   C703    1.404   1_556 S
H849   O994    1.014   .     S
H850   O1014   1.014   .     S
H851   O1016   1.014   .     S
H852   O1018   1.014   .     S
H853   O1020   1.014   .     S
H854   O1023   1.014   .     S
H855   O1025   1.014   .     S
H856   O1027   1.014   .     S
H860   O996    1.014   .     S
H871   O998    1.014   .     S
H882   O1001   1.014   .     S
H893   O1003   1.014   .     S
H904   O1005   1.014   .     S
H915   O1007   1.014   .     S
H926   O1009   1.014   .     S
H937   O1012   1.014   .     S
O945   Zn1032  1.934   .     S
O945   Zn1029  1.934   .     S
O945   Zn1040  1.935   .     S
O946   C65     1.268   1_565 A
O946   Zn1031  1.950   .     S
O947   Zn1034  1.949   .     S
O947   C1120   1.268   .     S
O948   Zn1033  1.949   .     S
O948   C1131   1.270   1_455 S
O949   Zn1043  1.949   .     S
O950   C1153   1.268   1_455 A
O950   Zn1042  1.949   .     S
O951   Zn1037  1.950   .     S
O952   Zn1029  1.950   .     S
O953   Zn1039  1.950   .     S
O954   Zn1038  1.950   .     S
O954   C1153   1.267   1_455 S
O955   Zn1041  1.949   .     S
O956   Zn1041  1.935   .     S
O956   Zn1037  1.934   .     S
O956   Zn1035  1.935   .     S
O957   Zn1040  1.949   .     S
O958   Zn1032  1.916   .     S
O959   Zn1031  1.916   .     S
O960   Zn1034  1.911   .     S
O961   Zn1033  1.911   .     S
O962   Zn1036  1.916   .     S
O963   Zn1035  1.916   .     S
O964   Zn1030  1.912   .     S
O965   Zn1044  1.912   .     S
O966   Zn1031  1.912   .     S
O967   Zn1042  1.935   .     S
O967   Zn1030  1.934   .     S
O967   Zn1038  1.934   .     S
O967   Zn1382  1.935   1_455 S
O968   Zn1032  1.912   .     S
O969   Zn1044  1.916   .     S
O970   Zn1030  1.916   .     S
O971   Zn1035  1.911   .     S
O972   Zn1036  1.911   .     S
O973   Zn1033  1.916   .     S
O974   Zn1034  1.916   .     S
O975   Zn1387  1.916   .     S
O976   Zn1038  1.916   .     S
O977   Zn345   1.911   1_565 S
O978   Zn1043  1.935   .     S
O978   Zn1033  1.935   .     S
O978   Zn1039  1.934   .     S
O978   Zn1392  1.934   1_455 S
O979   Zn1040  1.911   .     S
O980   Zn1043  1.916   .     S
O981   Zn1390  1.916   .     S
O982   Zn1037  1.912   .     S
O983   Zn333   1.912   1_565 S
O984   Zn1386  1.912   .     S
O985   Zn1039  1.912   .     S
O986   Zn1029  1.916   .     S
O987   Zn341   1.916   1_565 S
O988   Zn1042  1.911   .     S
O989   Zn1036  1.949   .     S
O989   C1      1.269   1_565 S
O990   Zn1391  1.911   .     S
O991   Zn344   1.916   1_565 S
O992   Zn1041  1.916   .     S
O994   C1052   1.399   .     S
O1000  Zn1035  1.949   .     S
O1003  C1056   1.399   1_455 S
O1008  C16     1.223   1_565 S
O1011  Zn1030  1.950   .     S
O1022  Zn1044  1.950   .     S
O1028  Zn1032  1.950   .     S
Zn1031 O260    1.934   1_565 S
Zn1034 O1315   1.935   .     S
Zn1036 O249    1.935   1_565 S
Zn1038 O1332   1.912   1_455 S
Zn1039 O1323   1.916   1_455 S
Zn1042 O1329   1.916   1_455 S
Zn1043 O1338   1.911   1_455 S
Zn1044 O1326   1.934   .     S
C1045  O1376   1.269   .     A
C1045  C1152   1.464   .     S
C1046  C1128   1.423   .     S
C1046  O1307   1.275   .     A
C1046  O1335   1.275   .     A
C1047  C1094   1.532   .     S
C1047  C1171   1.420   .     A
C1047  C1050   1.404   1_554 S
C1048  C1172   1.422   .     A
C1048  C1096   1.532   .     S
C1048  C1195   1.404   1_556 S
C1049  C1098   1.532   .     S
C1049  C1173   1.422   .     A
C1049  C1194   1.405   1_554 S
C1050  C1174   1.424   .     A
C1050  C1100   1.532   .     S
C1050  C1047   1.404   1_556 S
C1051  C1176   1.421   .     A
C1051  C1103   1.532   .     S
C1051  C1196   1.404   1_554 S
C1052  C1133   1.489   .     S
C1052  O1341   1.223   .     D
C1053  C1134   1.486   .     S
C1053  O1344   1.399   .     S
C1053  O1343   1.223   .     D
C1054  C1135   1.487   .     S
C1054  O1346   1.399   .     S
C1054  O1345   1.223   .     D
C1055  O1349   1.398   .     S
C1055  C440    1.488   1_565 S
C1055  O651    1.223   1_565 S
C1056  O1350   1.223   .     D
C1056  C1137   1.489   .     S
C1056  O1003   1.399   1_655 S
C1057  C1127   1.419   .     S
C1057  O1308   1.275   .     A
C1057  O1332   1.276   .     A
C1058  O1353   1.398   .     S
C1058  O1352   1.223   .     D
C1058  C1138   1.485   .     S
C1059  C1139   1.487   .     S
C1059  O1354   1.223   .     D
C1059  O1355   1.398   .     S
C1060  O1357   1.398   .     S
C1061  O1358   1.223   .     D
C1061  C1141   1.488   .     S
C1061  O1360   1.399   .     S
C1062  O1361   1.223   .     D
C1062  C1143   1.487   .     S
C1062  O1362   1.399   .     S
C1063  O1364   1.398   .     S
C1063  O1363   1.223   .     D
C1063  C1144   1.485   .     S
C1064  O1365   1.223   .     D
C1064  C1145   1.489   .     S
C1064  O1366   1.399   .     S
C1065  O1368   1.398   .     S
C1065  C1146   1.488   .     S
C1065  O1367   1.223   .     D
C1066  C1147   1.487   .     S
C1066  O1371   1.398   .     S
C1066  O1369   1.223   .     D
C1067  O1373   1.399   .     S
C1067  C1148   1.486   .     S
C1067  O1372   1.223   .     D
C1068  O1309   1.275   .     A
C1068  O1333   1.276   .     A
C1068  C1126   1.419   .     S
C1069  C1149   1.489   .     S
C1069  O1374   1.223   .     D
C1069  O1375   1.399   .     S
C1070  H1209   1.106   .     S
C1070  C1071   1.530   .     S
C1070  C1185   1.532   .     S
C1070  H1210   1.111   .     S
C1071  H1207   1.110   .     S
C1071  H1205   1.111   .     S
C1071  H1206   1.108   .     S
C1072  H1214   1.105   .     S
C1072  C1187   1.532   .     S
C1072  H1215   1.111   .     S
C1073  H1213   1.111   .     S
C1073  H1212   1.108   .     S
C1073  H1211   1.111   .     S
C1073  C724    1.530   1_655 S
C1074  H1220   1.105   .     S
C1074  C1188   1.532   .     S
C1074  H1221   1.111   .     S
C1075  H1216   1.111   .     S
C1075  H1217   1.108   .     S
C1075  H1218   1.111   .     S
C1075  C378    1.530   1_565 S
C1076  C1189   1.532   .     S
C1076  H1225   1.105   .     S
C1076  H1226   1.111   .     S
C1076  C1077   1.529   .     S
C1077  H1224   1.109   .     S
C1077  H1223   1.108   .     S
C1077  H1222   1.111   .     S
C1078  C1190   1.532   .     S
C1078  C1080   1.530   .     S
C1078  H1231   1.106   .     S
C1078  H1232   1.111   .     S
C1079  O1339   1.276   .     A
C1079  C1125   1.423   .     S
C1079  O1310   1.276   .     A
C1080  H1227   1.111   .     S
C1080  H1229   1.111   .     S
C1080  H1228   1.108   .     S
C1081  H1237   1.111   .     S
C1081  C1191   1.532   .     S
C1081  H1236   1.105   .     S
C1081  C734    1.530   1_655 S
C1082  H1234   1.108   .     S
C1082  H1235   1.111   .     S
C1082  H1233   1.111   .     S
C1083  H1242   1.106   .     S
C1083  H1243   1.111   .     S
C1083  C1192   1.532   .     S
C1083  C388    1.530   1_565 S
C1084  H1239   1.108   .     S
C1084  H1238   1.111   .     S
C1084  H1240   1.111   .     S
C1085  C1193   1.532   .     S
C1085  H1248   1.111   .     S
C1085  C1086   1.529   .     S
C1085  H1247   1.105   .     S
C1086  H1246   1.111   .     S
C1086  H1244   1.111   .     S
C1086  H1245   1.108   .     S
C1087  C1088   1.529   .     S
C1087  H1253   1.105   .     S
C1087  C1194   1.532   .     S
C1087  H1254   1.111   .     S
C1088  H1249   1.111   .     S
C1088  H1251   1.111   .     S
C1088  H1250   1.108   .     S
C1089  C1091   1.530   .     S
C1089  C1195   1.532   .     S
C1089  H1259   1.111   .     S
C1089  H1258   1.105   .     S
C1090  O1311   1.276   .     A
C1090  O1340   1.276   .     A
C1090  C1124   1.423   .     S
C1091  H1255   1.111   .     S
C1091  H1257   1.111   .     S
C1091  H1256   1.108   .     S
C1092  C1093   1.530   .     S
C1092  C1196   1.532   .     S
C1092  H1264   1.106   .     S
C1092  H1265   1.111   .     S
C1093  H1261   1.108   .     S
C1093  H1262   1.111   .     S
C1093  H1260   1.111   .     S
C1094  H1270   1.111   .     S
C1094  H1269   1.106   .     S
C1094  C1095   1.530   .     S
C1095  H1267   1.108   .     S
C1095  H1268   1.110   .     S
C1095  H1266   1.111   .     S
C1096  C1097   1.529   .     S
C1096  H1275   1.105   .     S
C1096  H1276   1.111   .     S
C1097  H1271   1.111   .     S
C1097  H1273   1.109   .     S
C1097  H1272   1.108   .     S
C1098  H1280   1.105   .     S
C1098  C1099   1.530   .     S
C1098  H1281   1.111   .     S
C1099  H1278   1.108   .     S
C1099  H1279   1.111   .     S
C1099  H1277   1.111   .     S
C1100  H1286   1.105   .     S
C1100  C1102   1.530   .     S
C1100  H1287   1.111   .     S
C1101  O1336   1.275   .     A
C1101  O1312   1.276   .     A
C1101  C1132   1.419   .     S
C1102  H1283   1.108   .     S
C1102  H1284   1.111   .     S
C1102  H1282   1.111   .     S
C1103  H1292   1.111   .     S
C1103  C1104   1.530   .     S
C1103  H1291   1.106   .     S
C1104  H1289   1.108   .     S
C1104  H1288   1.111   .     S
C1104  H1290   1.111   .     S
C1105  O1338   1.275   .     A
C1105  O1313   1.276   .     A
C1105  C1130   1.419   .     S
C1106  C1121   1.419   .     S
C1106  O1314   1.276   .     A
C1106  O1325   1.275   .     A
C1107  C1119   1.419   .     S
C1107  O1327   1.275   .     A
C1107  O1316   1.276   .     A
C1108  O1323   1.275   .     A
C1108  O1317   1.275   .     A
C1108  C1118   1.423   .     S
C1109  C1154   1.460   .     S
C1109  O1348   1.268   .     S
C1110  O1318   1.275   .     A
C1110  O1324   1.275   .     A
C1110  C1117   1.423   .     S
C1111  C1116   1.419   .     S
C1111  O1330   1.276   .     A
C1111  O1319   1.275   .     A
C1112  O1331   1.276   .     A
C1112  C1115   1.419   .     S
C1112  O1320   1.275   .     A
C1113  C1123   1.423   .     S
C1113  O1328   1.276   .     A
C1113  O1321   1.276   .     A
C1114  O1322   1.276   .     A
C1114  O1329   1.276   .     A
C1114  C1122   1.423   .     S
C1115  C1132   1.197   .     T
C1116  C1130   1.197   .     T
C1117  C1129   1.199   .     T
C1118  C1128   1.199   .     T
C1119  C1127   1.197   .     T
C1120  O1359   1.267   .     A
C1120  C1150   1.457   .     S
C1121  C1126   1.197   .     T
C1122  C1125   1.199   .     T
C1123  C1124   1.199   .     T
C1129  C1186   1.423   .     S
C1131  O1370   1.270   .     A
C1131  C1151   1.467   .     S
C1131  O948    1.270   1_655 S
C1133  C1150   1.407   .     A
C1133  C1163   1.414   .     A
C1134  C1151   1.409   .     A
C1134  C1165   1.415   .     A
C1135  C1166   1.416   .     A
C1135  C456    1.407   1_565 S
C1136  C1167   1.415   .     A
C1136  C1154   1.406   .     A
C1137  C1159   1.414   .     A
C1137  C802    1.406   1_655 S
C1138  C1160   1.416   .     A
C1139  C1152   1.409   .     A
C1139  C1161   1.416   .     A
C1140  C1162   1.415   .     A
C1140  C364    1.488   1_565 S
C1140  C458    1.406   1_565 S
C1141  C1172   1.415   .     A
C1141  C1155   1.406   .     A
C1142  O1297   1.270   .     A
C1142  O1301   1.270   .     A
C1143  C1173   1.416   .     A
C1143  C460    1.408   1_565 S
C1144  C1174   1.416   .     A
C1144  C1157   1.410   .     A
C1145  C1176   1.414   .     A
C1145  C1158   1.407   .     A
C1146  C1168   1.415   .     A
C1146  C459    1.406   1_565 S
C1147  C1156   1.408   .     A
C1147  C1169   1.416   .     A
C1148  C1170   1.415   .     A
C1149  C1171   1.413   .     A
C1149  C810    1.407   1_655 S
C1151  C790    1.410   1_655 S
C1153  O950    1.268   1_655 A
C1153  C810    1.457   1_655 S
C1153  O954    1.267   1_655 S
C1157  C800    1.409   1_655 S
C1157  C794    1.467   1_655 S
C1159  C1185   1.420   .     A
C1159  C829    1.420   1_655 S
C1160  C1178   1.422   .     A
C1160  C1187   1.424   .     A
C1161  C1179   1.421   .     A
C1161  C1188   1.422   .     A
C1162  C1189   1.422   .     A
C1162  C484    1.421   1_565 S
C1163  C1190   1.420   .     A
C1163  C1177   1.420   .     A
C1164  C459    1.460   1_565 S
C1164  O603    1.268   1_565 S
C1164  O607    1.268   1_565 S
C1165  C1191   1.424   .     A
C1165  C830    1.421   1_655 S
C1166  C1192   1.421   .     A
C1166  C483    1.420   1_565 S
C1167  C1193   1.422   .     A
C1167  C1180   1.421   .     A
C1168  C1194   1.422   .     A
C1168  C485    1.421   1_565 S
C1169  C1182   1.420   .     A
C1169  C1195   1.421   .     A
C1170  C1196   1.424   .     A
C1170  C1183   1.421   .     A
C1171  C836    1.419   1_655 S
C1172  C1181   1.421   .     A
C1173  C486    1.420   1_565 S
C1174  C835    1.422   1_655 S
C1175  C460    1.464   1_565 S
C1175  O604    1.269   1_565 S
C1175  O609    1.270   1_565 S
C1176  C1184   1.420   .     A
C1177  C1178   1.414   .     A
C1179  C1180   1.415   .     A
C1181  C1182   1.415   1_556 S
C1182  C1181   1.415   1_554 S
C1183  C1184   1.414   1_556 S
C1184  C1183   1.414   1_554 S
C1185  C1191   1.404   .     A
C1186  O1334   1.275   .     A
C1186  O1306   1.275   .     A
C1187  C1190   1.404   .     A
C1188  C1193   1.405   .     A
C1189  C1192   1.404   .     A
C1194  C1049   1.405   1_556 S
C1195  C1048   1.404   1_554 S
C1196  C1051   1.404   1_556 S
H1197  O1342   1.014   .     S
H1198  O1362   1.014   .     S
H1199  O1364   1.014   .     S
H1200  O1366   1.014   .     S
H1201  O1368   1.014   .     S
H1202  O1371   1.014   .     S
H1203  O1373   1.014   .     S
H1204  O1375   1.014   .     S
H1208  O1344   1.014   .     S
H1219  O1346   1.014   .     S
H1230  O1349   1.014   .     S
H1241  O1351   1.014   .     S
H1252  O1353   1.014   .     S
H1263  O1355   1.014   .     S
H1274  O1357   1.014   .     S
H1285  O1360   1.014   .     S
O1293  Zn1380  1.934   .     S
O1293  Zn1377  1.934   .     S
O1293  Zn1388  1.935   .     S
O1294  C413    1.268   1_565 A
O1294  Zn1379  1.950   .     S
O1295  Zn1382  1.949   .     S
O1295  C772    1.268   1_655 S
O1296  Zn1381  1.949   .     S
O1297  Zn1391  1.949   .     S
O1298  Zn1390  1.949   .     S
O1299  Zn1385  1.950   .     S
O1300  Zn1377  1.950   .     S
O1301  Zn1387  1.950   .     S
O1302  Zn1386  1.950   .     S
O1303  Zn1389  1.949   .     S
O1304  Zn1389  1.935   .     S
O1304  Zn1385  1.934   .     S
O1304  Zn1383  1.935   .     S
O1305  Zn1388  1.949   .     S
O1306  Zn1380  1.916   .     S
O1307  Zn1379  1.916   .     S
O1308  Zn1382  1.911   .     S
O1309  Zn1381  1.911   .     S
O1310  Zn1384  1.916   .     S
O1311  Zn1383  1.916   .     S
O1312  Zn1378  1.912   .     S
O1313  Zn1392  1.912   .     S
O1314  Zn1379  1.912   .     S
O1315  Zn1390  1.935   .     S
O1315  Zn1378  1.934   .     S
O1315  Zn1386  1.934   .     S
O1316  Zn1380  1.912   .     S
O1317  Zn1392  1.916   .     S
O1318  Zn1378  1.916   .     S
O1319  Zn1383  1.911   .     S
O1320  Zn1384  1.911   .     S
O1321  Zn1381  1.916   .     S
O1322  Zn1382  1.916   .     S
O1323  Zn1039  1.916   1_655 S
O1324  Zn1386  1.916   .     S
O1325  Zn693   1.911   1_565 S
O1326  Zn1391  1.935   .     S
O1326  Zn1381  1.935   .     S
O1326  Zn1387  1.934   .     S
O1327  Zn1388  1.911   .     S
O1328  Zn1391  1.916   .     S
O1329  Zn1042  1.916   1_655 S
O1330  Zn1385  1.912   .     S
O1331  Zn681   1.912   1_565 S
O1332  Zn1038  1.912   1_655 S
O1333  Zn1387  1.912   .     S
O1334  Zn1377  1.916   .     S
O1335  Zn689   1.916   1_565 S
O1336  Zn1390  1.911   .     S
O1337  Zn1384  1.949   .     S
O1337  C349    1.269   1_565 S
O1338  Zn1043  1.911   1_655 S
O1339  Zn692   1.916   1_565 S
O1340  Zn1389  1.916   .     S
O1342  C704    1.399   1_655 S
O1348  Zn1383  1.949   .     S
O1356  C364    1.223   1_565 S
O1359  Zn1378  1.950   .     S
O1370  Zn1392  1.950   .     S
O1376  Zn1380  1.950   .     S
Zn1379 O608    1.934   1_565 S
Zn1382 O967    1.935   1_655 S
Zn1384 O597    1.935   1_565 S
Zn1392 O978    1.934   1_655 S
