data_str_m1_o1_o2_pcu_sym.3
_audit_creation_date              2020-01-03
_audit_creation_method            'Materials Studio'
_symmetry_space_group_name_H-M    'P1'
_symmetry_Int_Tables_number       1
_symmetry_cell_setting            triclinic
loop_
_symmetry_equiv_pos_as_xyz
  x,y,z
_cell_length_a                    36.6562
_cell_length_b                    36.6544
_cell_length_c                    34.5655
_cell_angle_alpha                 90.0434
_cell_angle_beta                  89.9627
_cell_angle_gamma                 90.0158
loop_
_atom_site_label
_atom_site_type_symbol
_atom_site_fract_x
_atom_site_fract_y
_atom_site_fract_z
_atom_site_U_iso_or_equiv
_atom_site_adp_type
_atom_site_occupancy
C1     C     0.22016   0.01612   0.04167   0.00000  Uiso   1.00
C2     C     0.03044   0.26453   0.45849   0.00000  Uiso   1.00
C3     C     0.34815   0.40188   0.74993   0.00000  Uiso   1.00
C4     C     0.40189   0.15184   0.25006   0.00000  Uiso   1.00
C5     C     0.09816   0.34811   0.75007   0.00000  Uiso   1.00
C6     C     0.34806   0.40178   0.24984   0.00000  Uiso   1.00
C7     C     0.15176   0.09802   0.74983   0.00000  Uiso   1.00
C8     C     0.09806   0.15178   0.74985   0.00000  Uiso   1.00
C9     C     0.40176   0.34802   0.24983   0.00000  Uiso   1.00
C10    C     0.15189   0.40184   0.75007   0.00000  Uiso   1.00
C11    C     0.34816   0.09811   0.25006   0.00000  Uiso   1.00
C12    C     0.40185   0.34813   0.75001   0.00000  Uiso   1.00
C13    C     0.26163   0.46986   0.54108   0.00000  Uiso   1.00
C14    C     0.09822   0.15194   0.24984   0.00000  Uiso   1.00
C15    C     0.34796   0.09830   0.75028   0.00000  Uiso   1.00
C16    C     0.15170   0.40203   0.25027   0.00000  Uiso   1.00
C17    C     0.25026   0.00147   0.10223   0.00000  Uiso   1.00
C18    C     0.24978   0.00149   0.89777   0.00000  Uiso   1.00
C19    C     0.49853   0.24974   0.10223   0.00000  Uiso   1.00
C20    C     0.49851   0.25023   0.89777   0.00000  Uiso   1.00
C21    C     0.00025   0.25079   0.60225   0.00000  Uiso   1.00
C22    C     0.49983   0.25123   0.39781   0.00000  Uiso   1.00
C23    C     0.24861   0.49974   0.60225   0.00000  Uiso   1.00
C24    C     0.26073   0.03045   0.45896   0.00000  Uiso   1.00
C25    C     0.24851   0.00022   0.39779   0.00000  Uiso   1.00
C26    C     0.19615   0.06630   0.11279   0.00000  Uiso   1.00
C27    C     0.18113   0.09287   0.08287   0.00000  Uiso   1.00
C28    C     0.30438   0.06622   0.88762   0.00000  Uiso   1.00
C29    C     0.32171   0.09230   0.91666   0.00000  Uiso   1.00
C30    C     0.00557   0.15899   0.09751   0.00000  Uiso   1.00
C31    C     0.01912   0.13016   0.12569   0.00000  Uiso   1.00
C32    C     0.00584   0.34102   0.90261   0.00000  Uiso   1.00
C33    C     0.01941   0.36981   0.87437   0.00000  Uiso   1.00
C34    C     0.34102   0.49418   0.09745   0.00000  Uiso   1.00
C35    C     0.02981   0.23663   0.54118   0.00000  Uiso   1.00
C36    C     0.36978   0.48064   0.12571   0.00000  Uiso   1.00
C37    C     0.15899   0.49436   0.90256   0.00000  Uiso   1.00
C38    C     0.13016   0.48080   0.87435   0.00000  Uiso   1.00
C39    C     0.43378   0.30396   0.11278   0.00000  Uiso   1.00
C40    C     0.40725   0.31902   0.08284   0.00000  Uiso   1.00
C41    C     0.43371   0.19572   0.88759   0.00000  Uiso   1.00
C42    C     0.40760   0.17842   0.91661   0.00000  Uiso   1.00
C43    C     0.44570   0.32022   0.60189   0.00000  Uiso   1.00
C44    C     0.41600   0.33683   0.62707   0.00000  Uiso   1.00
C45    C     0.05591   0.31479   0.38829   0.00000  Uiso   1.00
C46    C     0.46953   0.23895   0.45892   0.00000  Uiso   1.00
C47    C     0.07371   0.34019   0.41768   0.00000  Uiso   1.00
C48    C     0.25771   0.40904   0.59737   0.00000  Uiso   1.00
C49    C     0.27192   0.38051   0.62553   0.00000  Uiso   1.00
C50    C     0.25462   0.09103   0.40246   0.00000  Uiso   1.00
C51    C     0.26794   0.12001   0.37430   0.00000  Uiso   1.00
C52    C     0.09086   0.23922   0.59688   0.00000  Uiso   1.00
C53    C     0.11888   0.22530   0.62576   0.00000  Uiso   1.00
C54    C     0.40906   0.24645   0.40235   0.00000  Uiso   1.00
C55    C     0.37980   0.23357   0.37428   0.00000  Uiso   1.00
C56    C     0.18305   0.05292   0.61290   0.00000  Uiso   1.00
C57    C     0.23350   0.02963   0.54170   0.00000  Uiso   1.00
C58    C     0.15624   0.06768   0.58306   0.00000  Uiso   1.00
C59    C     0.18428   0.44498   0.38774   0.00000  Uiso   1.00
C60    C     0.15842   0.42742   0.41685   0.00000  Uiso   1.00
C61    C     0.23425   0.46992   0.45839   0.00000  Uiso   1.00
C62    C     0.22023   0.01641   0.08196   0.00000  Uiso   1.00
C63    C     0.27987   0.01633   0.91806   0.00000  Uiso   1.00
C64    C     0.01143   0.21910   0.08148   0.00000  Uiso   1.00
C65    C     0.27993   0.01609   0.95835   0.00000  Uiso   1.00
C66    C     0.01145   0.28085   0.91851   0.00000  Uiso   1.00
C67    C     0.28087   0.48851   0.08148   0.00000  Uiso   1.00
C68    C     0.21913   0.48860   0.91851   0.00000  Uiso   1.00
C69    C     0.48363   0.27979   0.08196   0.00000  Uiso   1.00
C70    C     0.48362   0.22015   0.91805   0.00000  Uiso   1.00
C71    C     0.47094   0.26686   0.58195   0.00000  Uiso   1.00
C72    C     0.03030   0.26517   0.41820   0.00000  Uiso   1.00
C73    C     0.26206   0.46934   0.58151   0.00000  Uiso   1.00
C74    C     0.26110   0.03100   0.41854   0.00000  Uiso   1.00
C75    C     0.03030   0.23641   0.58163   0.00000  Uiso   1.00
C76    C     0.01103   0.21963   0.04106   0.00000  Uiso   1.00
C77    C     0.46892   0.23888   0.41851   0.00000  Uiso   1.00
C78    C     0.23323   0.02955   0.58200   0.00000  Uiso   1.00
C79    C     0.23397   0.46998   0.41809   0.00000  Uiso   1.00
C80    C     0.25019   0.00273   0.02118   0.00000  Uiso   1.00
C81    C     0.24988   0.00274   0.97883   0.00000  Uiso   1.00
C82    C     0.49727   0.24981   0.02117   0.00000  Uiso   1.00
C83    C     0.49726   0.25013   0.97882   0.00000  Uiso   1.00
C84    C     0.00032   0.25172   0.52121   0.00000  Uiso   1.00
C85    C     0.00008   0.25179   0.47888   0.00000  Uiso   1.00
C86    C     0.24734   0.49980   0.52121   0.00000  Uiso   1.00
C87    C     0.01106   0.28030   0.95893   0.00000  Uiso   1.00
C88    C     0.24730   0.00011   0.47886   0.00000  Uiso   1.00
C89    C     0.24984   0.00003   0.35527   0.00000  Uiso   1.00
C90    C     0.24990   0.49996   0.64475   0.00000  Uiso   1.00
C91    C     0.49997   0.25013   0.35527   0.00000  Uiso   1.00
C92    C     0.00004   0.25006   0.64475   0.00000  Uiso   1.00
C93    C     0.49985   0.25003   0.85526   0.00000  Uiso   1.00
C94    C     0.49987   0.24996   0.14474   0.00000  Uiso   1.00
C95    C     0.24997   0.00015   0.85526   0.00000  Uiso   1.00
C96    C     0.25004   0.00012   0.14474   0.00000  Uiso   1.00
C97    C     0.17996   0.07011   0.24995   0.00000  Uiso   1.00
C98    C     0.28034   0.48891   0.04106   0.00000  Uiso   1.00
C99    C     0.32008   0.42993   0.74997   0.00000  Uiso   1.00
C100   C     0.42993   0.17992   0.25002   0.00000  Uiso   1.00
C101   C     0.07008   0.32007   0.75002   0.00000  Uiso   1.00
C102   C     0.32006   0.42991   0.24995   0.00000  Uiso   1.00
C103   C     0.17989   0.07004   0.74995   0.00000  Uiso   1.00
C104   C     0.07002   0.32011   0.25008   0.00000  Uiso   1.00
C105   C     0.42988   0.17998   0.75008   0.00000  Uiso   1.00
C106   C     0.17993   0.42992   0.75002   0.00000  Uiso   1.00
C107   C     0.32008   0.07007   0.25002   0.00000  Uiso   1.00
C108   C     0.42992   0.32007   0.75001   0.00000  Uiso   1.00
C109   C     0.21968   0.48899   0.95893   0.00000  Uiso   1.00
C110   C     0.07009   0.17994   0.24995   0.00000  Uiso   1.00
C111   C     0.32002   0.07012   0.75008   0.00000  Uiso   1.00
C112   C     0.17988   0.42998   0.25008   0.00000  Uiso   1.00
C113   C     0.07006   0.17991   0.74996   0.00000  Uiso   1.00
C114   C     0.42989   0.32004   0.24995   0.00000  Uiso   1.00
C115   C     0.12286   0.40387   0.22375   0.00000  Uiso   1.00
C116   C     0.37667   0.09658   0.77698   0.00000  Uiso   1.00
C117   C     0.09611   0.12280   0.22366   0.00000  Uiso   1.00
C118   C     0.40551   0.37881   0.77390   0.00000  Uiso   1.00
C119   C     0.37759   0.09567   0.22429   0.00000  Uiso   1.00
C120   C     0.48392   0.27986   0.04167   0.00000  Uiso   1.00
C121   C     0.12243   0.40432   0.77581   0.00000  Uiso   1.00
C122   C     0.40391   0.37713   0.22364   0.00000  Uiso   1.00
C123   C     0.09573   0.12249   0.77578   0.00000  Uiso   1.00
C124   C     0.12245   0.09575   0.77578   0.00000  Uiso   1.00
C125   C     0.37720   0.40389   0.22365   0.00000  Uiso   1.00
C126   C     0.09569   0.37758   0.77581   0.00000  Uiso   1.00
C127   C     0.40433   0.12240   0.22429   0.00000  Uiso   1.00
C128   C     0.37878   0.40554   0.77389   0.00000  Uiso   1.00
C129   C     0.12287   0.09608   0.22364   0.00000  Uiso   1.00
C130   C     0.40342   0.12333   0.77698   0.00000  Uiso   1.00
C131   C     0.48386   0.22009   0.95834   0.00000  Uiso   1.00
C132   C     0.09613   0.37713   0.22375   0.00000  Uiso   1.00
C133   C     0.37286   0.15387   0.72375   0.00000  Uiso   1.00
C134   C     0.12668   0.34658   0.27697   0.00000  Uiso   1.00
C135   C     0.34450   0.37121   0.72601   0.00000  Uiso   1.00
C136   C     0.15415   0.12745   0.27592   0.00000  Uiso   1.00
C137   C     0.12766   0.34560   0.72438   0.00000  Uiso   1.00
C138   C     0.37248   0.15426   0.27588   0.00000  Uiso   1.00
C139   C     0.15402   0.12724   0.72379   0.00000  Uiso   1.00
C140   C     0.34584   0.37260   0.27592   0.00000  Uiso   1.00
C141   C     0.37256   0.34585   0.27592   0.00000  Uiso   1.00
C142   C     0.47092   0.26654   0.54159   0.00000  Uiso   1.00
C143   C     0.12731   0.15400   0.72381   0.00000  Uiso   1.00
C144   C     0.34574   0.12753   0.27588   0.00000  Uiso   1.00
C145   C     0.15439   0.37234   0.72438   0.00000  Uiso   1.00
C146   C     0.12741   0.15417   0.27591   0.00000  Uiso   1.00
C147   C     0.37117   0.34442   0.72612   0.00000  Uiso   1.00
C148   C     0.15342   0.37332   0.27698   0.00000  Uiso   1.00
C149   C     0.34613   0.12714   0.72375   0.00000  Uiso   1.00
C150   C     0.09797   0.34830   0.25027   0.00000  Uiso   1.00
C151   C     0.40170   0.15204   0.75028   0.00000  Uiso   1.00
C152   C     0.15198   0.09824   0.24983   0.00000  Uiso   1.00
H153   H     0.19675   0.02691   0.02635   0.00000  Uiso   1.00
H154   H     0.05415   0.27454   0.47391   0.00000  Uiso   1.00
H155   H     0.22851   0.41440   0.60456   0.00000  Uiso   1.00
H156   H     0.26964   0.39080   0.65567   0.00000  Uiso   1.00
H157   H     0.25562   0.35509   0.62283   0.00000  Uiso   1.00
H158   H     0.30095   0.37424   0.61915   0.00000  Uiso   1.00
H159   H     0.25590   0.10250   0.43224   0.00000  Uiso   1.00
H160   H     0.22570   0.08454   0.39509   0.00000  Uiso   1.00
H161   H     0.26630   0.10956   0.34418   0.00000  Uiso   1.00
H162   H     0.25066   0.14478   0.37680   0.00000  Uiso   1.00
H163   H     0.29666   0.12743   0.38088   0.00000  Uiso   1.00
H164   H     0.08642   0.26884   0.60272   0.00000  Uiso   1.00
H165   H     0.27348   0.44732   0.52515   0.00000  Uiso   1.00
H166   H     0.10219   0.23572   0.56725   0.00000  Uiso   1.00
H167   H     0.12416   0.19582   0.62082   0.00000  Uiso   1.00
H168   H     0.14484   0.24058   0.62231   0.00000  Uiso   1.00
H169   H     0.10867   0.22925   0.65573   0.00000  Uiso   1.00
H170   H     0.41606   0.27523   0.39486   0.00000  Uiso   1.00
H171   H     0.39761   0.24549   0.43215   0.00000  Uiso   1.00
H172   H     0.37184   0.20502   0.38101   0.00000  Uiso   1.00
H173   H     0.35536   0.25132   0.37672   0.00000  Uiso   1.00
H174   H     0.39024   0.23487   0.34414   0.00000  Uiso   1.00
H175   H     0.17835   0.06767   0.64054   0.00000  Uiso   1.00
H176   H     0.27193   0.05334   0.47486   0.00000  Uiso   1.00
H177   H     0.17707   0.02357   0.61880   0.00000  Uiso   1.00
H178   H     0.15834   0.05191   0.55573   0.00000  Uiso   1.00
H179   H     0.12796   0.06518   0.59429   0.00000  Uiso   1.00
H180   H     0.16207   0.09687   0.57712   0.00000  Uiso   1.00
H181   H     0.18017   0.43138   0.35934   0.00000  Uiso   1.00
H182   H     0.17675   0.47423   0.38352   0.00000  Uiso   1.00
H183   H     0.16008   0.44177   0.44508   0.00000  Uiso   1.00
H184   H     0.12996   0.42920   0.40605   0.00000  Uiso   1.00
H185   H     0.16561   0.39824   0.42094   0.00000  Uiso   1.00
H186   H     0.05202   0.22413   0.52530   0.00000  Uiso   1.00
H187   H     0.44648   0.22803   0.47477   0.00000  Uiso   1.00
H188   H     0.22238   0.05288   0.52638   0.00000  Uiso   1.00
H189   H     0.22379   0.44637   0.47374   0.00000  Uiso   1.00
H190   H     0.12100   0.42583   0.20289   0.00000  Uiso   1.00
H191   H     0.37849   0.07465   0.79788   0.00000  Uiso   1.00
H192   H     0.07386   0.12061   0.20318   0.00000  Uiso   1.00
H193   H     0.30337   0.02681   0.97369   0.00000  Uiso   1.00
H194   H     0.42898   0.38220   0.79259   0.00000  Uiso   1.00
H195   H     0.37997   0.07318   0.20409   0.00000  Uiso   1.00
H196   H     0.12000   0.42684   0.79594   0.00000  Uiso   1.00
H197   H     0.42617   0.37925   0.20313   0.00000  Uiso   1.00
H198   H     0.07336   0.12025   0.79613   0.00000  Uiso   1.00
H199   H     0.12018   0.07340   0.79613   0.00000  Uiso   1.00
H200   H     0.37937   0.42614   0.20317   0.00000  Uiso   1.00
H201   H     0.07316   0.38001   0.79594   0.00000  Uiso   1.00
H202   H     0.42681   0.12002   0.20409   0.00000  Uiso   1.00
H203   H     0.38215   0.42904   0.79257   0.00000  Uiso   1.00
H204   H     0.02247   0.19687   0.02514   0.00000  Uiso   1.00
H205   H     0.12075   0.07382   0.20314   0.00000  Uiso   1.00
H206   H     0.42535   0.12151   0.79788   0.00000  Uiso   1.00
H207   H     0.07417   0.37899   0.20289   0.00000  Uiso   1.00
H208   H     0.37100   0.17583   0.70289   0.00000  Uiso   1.00
H209   H     0.12850   0.32464   0.29786   0.00000  Uiso   1.00
H210   H     0.32105   0.36782   0.70731   0.00000  Uiso   1.00
H211   H     0.17641   0.12964   0.29639   0.00000  Uiso   1.00
H212   H     0.13008   0.32307   0.70425   0.00000  Uiso   1.00
H213   H     0.37011   0.17674   0.29609   0.00000  Uiso   1.00
H214   H     0.17637   0.12945   0.70341   0.00000  Uiso   1.00
H215   H     0.02255   0.30304   0.97484   0.00000  Uiso   1.00
H216   H     0.32356   0.37044   0.29639   0.00000  Uiso   1.00
H217   H     0.37038   0.32360   0.29639   0.00000  Uiso   1.00
H218   H     0.12959   0.17634   0.70347   0.00000  Uiso   1.00
H219   H     0.32327   0.12990   0.29609   0.00000  Uiso   1.00
H220   H     0.17692   0.36991   0.70425   0.00000  Uiso   1.00
H221   H     0.12956   0.17645   0.29638   0.00000  Uiso   1.00
H222   H     0.36771   0.32086   0.70756   0.00000  Uiso   1.00
H223   H     0.17536   0.37150   0.29786   0.00000  Uiso   1.00
H224   H     0.32417   0.12899   0.70289   0.00000  Uiso   1.00
H225   H     0.22541   0.07266   0.11878   0.00000  Uiso   1.00
H226   H     0.30308   0.47743   0.02514   0.00000  Uiso   1.00
H227   H     0.18127   0.07084   0.14038   0.00000  Uiso   1.00
H228   H     0.15204   0.08661   0.07682   0.00000  Uiso   1.00
H229   H     0.18320   0.12119   0.09407   0.00000  Uiso   1.00
H230   H     0.19703   0.09096   0.05560   0.00000  Uiso   1.00
H231   H     0.27505   0.07346   0.88339   0.00000  Uiso   1.00
H232   H     0.31792   0.07040   0.85920   0.00000  Uiso   1.00
H233   H     0.35096   0.08541   0.92073   0.00000  Uiso   1.00
H234   H     0.31964   0.12073   0.90580   0.00000  Uiso   1.00
H235   H     0.30741   0.09054   0.94490   0.00000  Uiso   1.00
H236   H     0.00706   0.14753   0.06774   0.00000  Uiso   1.00
H237   H     0.19692   0.47754   0.97483   0.00000  Uiso   1.00
H238   H     0.47656   0.16515   0.10482   0.00000  Uiso   1.00
H239   H     0.01727   0.14059   0.15581   0.00000  Uiso   1.00
H240   H     0.00213   0.10519   0.12315   0.00000  Uiso   1.00
H241   H     0.04794   0.12309   0.11918   0.00000  Uiso   1.00
H242   H     0.00750   0.35246   0.93238   0.00000  Uiso   1.00
H243   H     0.47677   0.33499   0.89546   0.00000  Uiso   1.00
H244   H     0.01738   0.35942   0.84425   0.00000  Uiso   1.00
H245   H     0.00256   0.39486   0.87704   0.00000  Uiso   1.00
H246   H     0.04830   0.37675   0.88071   0.00000  Uiso   1.00
H247   H     0.33496   0.02325   0.10463   0.00000  Uiso   1.00
H248   H     0.47318   0.30329   0.02634   0.00000  Uiso   1.00
H249   H     0.35249   0.49254   0.06769   0.00000  Uiso   1.00
H250   H     0.37674   0.45176   0.11934   0.00000  Uiso   1.00
H251   H     0.39482   0.49752   0.12309   0.00000  Uiso   1.00
H252   H     0.35936   0.48268   0.15581   0.00000  Uiso   1.00
H253   H     0.16510   0.02340   0.89536   0.00000  Uiso   1.00
H254   H     0.14755   0.49278   0.93233   0.00000  Uiso   1.00
H255   H     0.12314   0.45195   0.88074   0.00000  Uiso   1.00
H256   H     0.10516   0.49773   0.87698   0.00000  Uiso   1.00
H257   H     0.14056   0.48276   0.84423   0.00000  Uiso   1.00
H258   H     0.42926   0.31886   0.14036   0.00000  Uiso   1.00
H259   H     0.47310   0.19666   0.97367   0.00000  Uiso   1.00
H260   H     0.42737   0.27472   0.11877   0.00000  Uiso   1.00
H261   H     0.40913   0.30311   0.05558   0.00000  Uiso   1.00
H262   H     0.37892   0.31701   0.09403   0.00000  Uiso   1.00
H263   H     0.41356   0.34809   0.07678   0.00000  Uiso   1.00
H264   H     0.42952   0.18220   0.85916   0.00000  Uiso   1.00
H265   H     0.42651   0.22506   0.88337   0.00000  Uiso   1.00
H266   H     0.40937   0.19271   0.94487   0.00000  Uiso   1.00
H267   H     0.37917   0.18054   0.90575   0.00000  Uiso   1.00
H268   H     0.41444   0.14916   0.92067   0.00000  Uiso   1.00
H269   H     0.44295   0.33157   0.57216   0.00000  Uiso   1.00
H270   H     0.44807   0.27836   0.52616   0.00000  Uiso   1.00
H271   H     0.47263   0.32835   0.61418   0.00000  Uiso   1.00
H272   H     0.41868   0.32663   0.65713   0.00000  Uiso   1.00
H273   H     0.41862   0.36701   0.62726   0.00000  Uiso   1.00
H274   H     0.38867   0.32936   0.61569   0.00000  Uiso   1.00
H275   H     0.02675   0.32269   0.38407   0.00000  Uiso   1.00
H276   H     0.06960   0.31898   0.35996   0.00000  Uiso   1.00
H277   H     0.10279   0.33261   0.42178   0.00000  Uiso   1.00
H278   H     0.07231   0.36876   0.40713   0.00000  Uiso   1.00
H279   H     0.05928   0.33848   0.44585   0.00000  Uiso   1.00
H280   H     0.25963   0.39769   0.56758   0.00000  Uiso   1.00
O281   O     0.25000   0.00000   0.25000   0.00000  Uiso   1.00
O282   O     0.25000   0.46964   0.66317   0.00000  Uiso   1.00
O283   O     0.46964   0.25000   0.33683   0.00000  Uiso   1.00
O284   O     0.03036   0.25000   0.66317   0.00000  Uiso   1.00
O285   O     0.00000   0.21964   0.83683   0.00000  Uiso   1.00
O286   O    -0.00000   0.28036   0.16317   0.00000  Uiso   1.00
O287   O     0.28036   0.00000   0.83683   0.00000  Uiso   1.00
O288   O     0.21964   0.00000   0.16317   0.00000  Uiso   1.00
O289   O     0.00000   0.28036   0.83683   0.00000  Uiso   1.00
O290   O    -0.00000   0.21964   0.16317   0.00000  Uiso   1.00
O291   O     0.21964   0.00000   0.83683   0.00000  Uiso   1.00
O292   O     0.25000   0.00000   0.75000   0.00000  Uiso   1.00
O293   O     0.28036   0.00000   0.16317   0.00000  Uiso   1.00
O294   O     0.20725   0.07307   0.27282   0.00000  Uiso   1.00
O295   O     0.29274   0.42693   0.72718   0.00000  Uiso   1.00
O296   O     0.42693   0.20726   0.27282   0.00000  Uiso   1.00
O297   O     0.07307   0.29275   0.72718   0.00000  Uiso   1.00
O298   O     0.29274   0.42693   0.27282   0.00000  Uiso   1.00
O299   O     0.20725   0.07307   0.72718   0.00000  Uiso   1.00
O300   O     0.07307   0.29275   0.27282   0.00000  Uiso   1.00
O301   O     0.42693   0.20726   0.72718   0.00000  Uiso   1.00
O302   O     0.20725   0.42693   0.72718   0.00000  Uiso   1.00
O303   O    -0.00000   0.25000   0.25000   0.00000  Uiso   1.00
O304   O     0.29274   0.07307   0.27282   0.00000  Uiso   1.00
O305   O     0.42693   0.29275   0.72718   0.00000  Uiso   1.00
O306   O     0.07307   0.20726   0.27282   0.00000  Uiso   1.00
O307   O     0.29274   0.07307   0.72718   0.00000  Uiso   1.00
O308   O     0.20725   0.42693   0.27282   0.00000  Uiso   1.00
O309   O     0.07307   0.20726   0.72718   0.00000  Uiso   1.00
O310   O     0.42693   0.29275   0.27282   0.00000  Uiso   1.00
O311   O     0.45725   0.32307   0.77282   0.00000  Uiso   1.00
O312   O     0.04274   0.17693   0.22718   0.00000  Uiso   1.00
O313   O     0.17693   0.45726   0.77282   0.00000  Uiso   1.00
O314   O    -0.00000   0.25000   0.75000   0.00000  Uiso   1.00
O315   O     0.32307   0.04275   0.22718   0.00000  Uiso   1.00
O316   O     0.04274   0.17693   0.77282   0.00000  Uiso   1.00
O317   O     0.45725   0.32307   0.22718   0.00000  Uiso   1.00
O318   O     0.32307   0.04275   0.77282   0.00000  Uiso   1.00
O319   O     0.17693   0.45726   0.22718   0.00000  Uiso   1.00
O320   O     0.45725   0.17693   0.22718   0.00000  Uiso   1.00
O321   O     0.04274   0.32307   0.77282   0.00000  Uiso   1.00
O322   O     0.17693   0.04275   0.22718   0.00000  Uiso   1.00
O323   O     0.32307   0.45726   0.77282   0.00000  Uiso   1.00
O324   O     0.04274   0.32307   0.22718   0.00000  Uiso   1.00
O325   O     0.25000   0.46964   0.33683   0.00000  Uiso   1.00
O326   O     0.45725   0.17693   0.77282   0.00000  Uiso   1.00
O327   O     0.32307   0.45726   0.22718   0.00000  Uiso   1.00
O328   O     0.17693   0.04275   0.77282   0.00000  Uiso   1.00
O329   O     0.18986   0.02979   0.10110   0.00000  Uiso   1.00
O330   O     0.31030   0.02955   0.89891   0.00000  Uiso   1.00
O331   O     0.02783   0.19032   0.10070   0.00000  Uiso   1.00
O332   O     0.02793   0.30960   0.89926   0.00000  Uiso   1.00
O333   O     0.30961   0.47204   0.10072   0.00000  Uiso   1.00
O334   O     0.19035   0.47217   0.89926   0.00000  Uiso   1.00
O335   O     0.47031   0.31019   0.10109   0.00000  Uiso   1.00
O336   O     0.25000   0.03036   0.66317   0.00000  Uiso   1.00
O337   O     0.47036   0.18974   0.89889   0.00000  Uiso   1.00
O338   O     0.44166   0.28191   0.60151   0.00000  Uiso   1.00
O339   O     0.06101   0.27788   0.39916   0.00000  Uiso   1.00
O340   O     0.27909   0.44095   0.60077   0.00000  Uiso   1.00
O341   O     0.27722   0.05995   0.39931   0.00000  Uiso   1.00
O342   O     0.05830   0.21896   0.60112   0.00000  Uiso   1.00
O343   O     0.43971   0.22328   0.39922   0.00000  Uiso   1.00
O344   O     0.21945   0.05974   0.60115   0.00000  Uiso   1.00
O345   O     0.22103   0.43942   0.39896   0.00000  Uiso   1.00
O346   O     0.03036   0.25000   0.33683   0.00000  Uiso   1.00
O347   O     0.46964   0.25000   0.66317   0.00000  Uiso   1.00
O348   O     0.25000   0.03036   0.33683   0.00000  Uiso   1.00
Zn349  Zn    0.20660   0.00000   0.21760   0.00000  Uiso   1.00
Zn350  Zn    0.04340   0.25000   0.28240   0.00000  Uiso   1.00
Zn351  Zn    0.25000   0.45660   0.71760   0.00000  Uiso   1.00
Zn352  Zn    0.25000   0.04340   0.28240   0.00000  Uiso   1.00
Zn353  Zn    0.04340   0.25000   0.71760   0.00000  Uiso   1.00
Zn354  Zn    0.45660   0.25000   0.28240   0.00000  Uiso   1.00
Zn355  Zn    0.25000   0.04340   0.71760   0.00000  Uiso   1.00
Zn356  Zn    0.25000   0.45660   0.28240   0.00000  Uiso   1.00
Zn357  Zn    0.29340   0.00000   0.78240   0.00000  Uiso   1.00
Zn358  Zn   -0.00000   0.20660   0.21760   0.00000  Uiso   1.00
Zn359  Zn    0.00000   0.29340   0.78240   0.00000  Uiso   1.00
Zn360  Zn    0.29340   0.00000   0.21760   0.00000  Uiso   1.00
Zn361  Zn    0.20660   0.00000   0.78240   0.00000  Uiso   1.00
Zn362  Zn   -0.00000   0.29340   0.21760   0.00000  Uiso   1.00
Zn363  Zn   -0.00000   0.20660   0.78240   0.00000  Uiso   1.00
Zn364  Zn    0.45660   0.25000   0.71760   0.00000  Uiso   1.00
C365   C     0.72016   0.01612   0.04167   0.00000  Uiso   1.00
C366   C     0.53044   0.26453   0.45849   0.00000  Uiso   1.00
C367   C     0.84815   0.40188   0.74993   0.00000  Uiso   1.00
C368   C     0.90189   0.15184   0.25006   0.00000  Uiso   1.00
C369   C     0.59816   0.34811   0.75007   0.00000  Uiso   1.00
C370   C     0.84806   0.40178   0.24984   0.00000  Uiso   1.00
C371   C     0.65176   0.09802   0.74983   0.00000  Uiso   1.00
C372   C     0.59806   0.15178   0.74985   0.00000  Uiso   1.00
C373   C     0.90176   0.34802   0.24983   0.00000  Uiso   1.00
C374   C     0.65189   0.40184   0.75007   0.00000  Uiso   1.00
C375   C     0.84816   0.09811   0.25006   0.00000  Uiso   1.00
C376   C     0.90185   0.34813   0.75001   0.00000  Uiso   1.00
C377   C     0.76163   0.46986   0.54108   0.00000  Uiso   1.00
C378   C     0.59822   0.15194   0.24984   0.00000  Uiso   1.00
C379   C     0.84796   0.09830   0.75028   0.00000  Uiso   1.00
C380   C     0.65170   0.40203   0.25027   0.00000  Uiso   1.00
C381   C     0.75026   0.00147   0.10223   0.00000  Uiso   1.00
C382   C     0.74978   0.00149   0.89777   0.00000  Uiso   1.00
C383   C     0.99853   0.24974   0.10223   0.00000  Uiso   1.00
C384   C     0.99851   0.25023   0.89777   0.00000  Uiso   1.00
C385   C     0.50025   0.25079   0.60225   0.00000  Uiso   1.00
C386   C     0.99983   0.25123   0.39781   0.00000  Uiso   1.00
C387   C     0.74861   0.49974   0.60225   0.00000  Uiso   1.00
C388   C     0.76073   0.03045   0.45896   0.00000  Uiso   1.00
C389   C     0.74851   0.00022   0.39779   0.00000  Uiso   1.00
C390   C     0.69615   0.06630   0.11279   0.00000  Uiso   1.00
C391   C     0.68113   0.09287   0.08287   0.00000  Uiso   1.00
C392   C     0.80438   0.06622   0.88762   0.00000  Uiso   1.00
C393   C     0.82171   0.09230   0.91666   0.00000  Uiso   1.00
C394   C     0.50557   0.15899   0.09751   0.00000  Uiso   1.00
C395   C     0.51912   0.13016   0.12569   0.00000  Uiso   1.00
C396   C     0.50584   0.34102   0.90261   0.00000  Uiso   1.00
C397   C     0.51941   0.36981   0.87437   0.00000  Uiso   1.00
C398   C     0.84102   0.49418   0.09745   0.00000  Uiso   1.00
C399   C     0.52981   0.23663   0.54118   0.00000  Uiso   1.00
C400   C     0.86978   0.48064   0.12571   0.00000  Uiso   1.00
C401   C     0.65899   0.49436   0.90256   0.00000  Uiso   1.00
C402   C     0.63016   0.48080   0.87435   0.00000  Uiso   1.00
C403   C     0.93378   0.30396   0.11278   0.00000  Uiso   1.00
C404   C     0.90725   0.31902   0.08284   0.00000  Uiso   1.00
C405   C     0.93371   0.19572   0.88759   0.00000  Uiso   1.00
C406   C     0.90760   0.17842   0.91661   0.00000  Uiso   1.00
C407   C     0.94570   0.32022   0.60189   0.00000  Uiso   1.00
C408   C     0.91600   0.33683   0.62707   0.00000  Uiso   1.00
C409   C     0.55591   0.31479   0.38829   0.00000  Uiso   1.00
C410   C     0.96953   0.23895   0.45892   0.00000  Uiso   1.00
C411   C     0.57371   0.34019   0.41768   0.00000  Uiso   1.00
C412   C     0.75771   0.40904   0.59737   0.00000  Uiso   1.00
C413   C     0.77192   0.38051   0.62553   0.00000  Uiso   1.00
C414   C     0.75462   0.09103   0.40246   0.00000  Uiso   1.00
C415   C     0.76794   0.12001   0.37430   0.00000  Uiso   1.00
C416   C     0.59086   0.23922   0.59688   0.00000  Uiso   1.00
C417   C     0.61888   0.22530   0.62576   0.00000  Uiso   1.00
C418   C     0.90906   0.24645   0.40235   0.00000  Uiso   1.00
C419   C     0.87980   0.23357   0.37428   0.00000  Uiso   1.00
C420   C     0.68305   0.05292   0.61290   0.00000  Uiso   1.00
C421   C     0.73350   0.02963   0.54170   0.00000  Uiso   1.00
C422   C     0.65624   0.06768   0.58306   0.00000  Uiso   1.00
C423   C     0.68428   0.44498   0.38774   0.00000  Uiso   1.00
C424   C     0.65842   0.42742   0.41685   0.00000  Uiso   1.00
C425   C     0.73425   0.46992   0.45839   0.00000  Uiso   1.00
C426   C     0.72023   0.01641   0.08196   0.00000  Uiso   1.00
C427   C     0.77987   0.01633   0.91806   0.00000  Uiso   1.00
C428   C     0.51143   0.21910   0.08148   0.00000  Uiso   1.00
C429   C     0.77993   0.01609   0.95835   0.00000  Uiso   1.00
C430   C     0.51145   0.28085   0.91851   0.00000  Uiso   1.00
C431   C     0.78087   0.48851   0.08148   0.00000  Uiso   1.00
C432   C     0.71913   0.48860   0.91851   0.00000  Uiso   1.00
C433   C     0.98363   0.27979   0.08196   0.00000  Uiso   1.00
C434   C     0.98362   0.22015   0.91805   0.00000  Uiso   1.00
C435   C     0.97094   0.26686   0.58195   0.00000  Uiso   1.00
C436   C     0.53030   0.26517   0.41820   0.00000  Uiso   1.00
C437   C     0.76206   0.46934   0.58151   0.00000  Uiso   1.00
C438   C     0.76110   0.03100   0.41854   0.00000  Uiso   1.00
C439   C     0.53030   0.23641   0.58163   0.00000  Uiso   1.00
C440   C     0.51103   0.21963   0.04106   0.00000  Uiso   1.00
C441   C     0.96892   0.23888   0.41851   0.00000  Uiso   1.00
C442   C     0.73323   0.02955   0.58200   0.00000  Uiso   1.00
C443   C     0.73397   0.46998   0.41809   0.00000  Uiso   1.00
C444   C     0.75019   0.00273   0.02118   0.00000  Uiso   1.00
C445   C     0.74988   0.00274   0.97883   0.00000  Uiso   1.00
C446   C     0.99727   0.24981   0.02117   0.00000  Uiso   1.00
C447   C     0.99726   0.25013   0.97882   0.00000  Uiso   1.00
C448   C     0.50032   0.25172   0.52121   0.00000  Uiso   1.00
C449   C     0.50008   0.25179   0.47888   0.00000  Uiso   1.00
C450   C     0.74734   0.49980   0.52121   0.00000  Uiso   1.00
C451   C     0.51106   0.28030   0.95893   0.00000  Uiso   1.00
C452   C     0.74730   0.00011   0.47886   0.00000  Uiso   1.00
C453   C     0.74984   0.00003   0.35527   0.00000  Uiso   1.00
C454   C     0.74990   0.49996   0.64475   0.00000  Uiso   1.00
C455   C     0.99997   0.25013   0.35527   0.00000  Uiso   1.00
C456   C     0.50004   0.25006   0.64475   0.00000  Uiso   1.00
C457   C     0.99985   0.25003   0.85526   0.00000  Uiso   1.00
C458   C     0.99987   0.24996   0.14474   0.00000  Uiso   1.00
C459   C     0.74997   0.00015   0.85526   0.00000  Uiso   1.00
C460   C     0.75004   0.00012   0.14474   0.00000  Uiso   1.00
C461   C     0.67996   0.07011   0.24995   0.00000  Uiso   1.00
C462   C     0.78034   0.48891   0.04106   0.00000  Uiso   1.00
C463   C     0.82008   0.42993   0.74997   0.00000  Uiso   1.00
C464   C     0.92993   0.17992   0.25002   0.00000  Uiso   1.00
C465   C     0.57008   0.32007   0.75002   0.00000  Uiso   1.00
C466   C     0.82006   0.42991   0.24995   0.00000  Uiso   1.00
C467   C     0.67989   0.07004   0.74995   0.00000  Uiso   1.00
C468   C     0.57002   0.32011   0.25008   0.00000  Uiso   1.00
C469   C     0.92988   0.17998   0.75008   0.00000  Uiso   1.00
C470   C     0.67993   0.42992   0.75002   0.00000  Uiso   1.00
C471   C     0.82008   0.07007   0.25002   0.00000  Uiso   1.00
C472   C     0.92992   0.32007   0.75001   0.00000  Uiso   1.00
C473   C     0.71968   0.48899   0.95893   0.00000  Uiso   1.00
C474   C     0.57009   0.17994   0.24995   0.00000  Uiso   1.00
C475   C     0.82002   0.07012   0.75008   0.00000  Uiso   1.00
C476   C     0.67988   0.42998   0.25008   0.00000  Uiso   1.00
C477   C     0.57006   0.17991   0.74996   0.00000  Uiso   1.00
C478   C     0.92989   0.32004   0.24995   0.00000  Uiso   1.00
C479   C     0.62286   0.40387   0.22375   0.00000  Uiso   1.00
C480   C     0.87667   0.09658   0.77698   0.00000  Uiso   1.00
C481   C     0.59611   0.12280   0.22366   0.00000  Uiso   1.00
C482   C     0.90551   0.37881   0.77390   0.00000  Uiso   1.00
C483   C     0.87759   0.09567   0.22429   0.00000  Uiso   1.00
C484   C     0.98392   0.27986   0.04167   0.00000  Uiso   1.00
C485   C     0.62243   0.40432   0.77581   0.00000  Uiso   1.00
C486   C     0.90391   0.37713   0.22364   0.00000  Uiso   1.00
C487   C     0.59573   0.12249   0.77578   0.00000  Uiso   1.00
C488   C     0.62245   0.09575   0.77578   0.00000  Uiso   1.00
C489   C     0.87720   0.40389   0.22365   0.00000  Uiso   1.00
C490   C     0.59569   0.37758   0.77581   0.00000  Uiso   1.00
C491   C     0.90433   0.12240   0.22429   0.00000  Uiso   1.00
C492   C     0.87878   0.40554   0.77389   0.00000  Uiso   1.00
C493   C     0.62287   0.09608   0.22364   0.00000  Uiso   1.00
C494   C     0.90342   0.12333   0.77698   0.00000  Uiso   1.00
C495   C     0.98386   0.22009   0.95834   0.00000  Uiso   1.00
C496   C     0.59613   0.37713   0.22375   0.00000  Uiso   1.00
C497   C     0.87286   0.15387   0.72375   0.00000  Uiso   1.00
C498   C     0.62668   0.34658   0.27697   0.00000  Uiso   1.00
C499   C     0.84450   0.37121   0.72601   0.00000  Uiso   1.00
C500   C     0.65415   0.12745   0.27592   0.00000  Uiso   1.00
C501   C     0.62766   0.34560   0.72438   0.00000  Uiso   1.00
C502   C     0.87248   0.15426   0.27588   0.00000  Uiso   1.00
C503   C     0.65402   0.12724   0.72379   0.00000  Uiso   1.00
C504   C     0.84584   0.37260   0.27592   0.00000  Uiso   1.00
C505   C     0.87256   0.34585   0.27592   0.00000  Uiso   1.00
C506   C     0.97092   0.26654   0.54159   0.00000  Uiso   1.00
C507   C     0.62731   0.15400   0.72381   0.00000  Uiso   1.00
C508   C     0.84574   0.12753   0.27588   0.00000  Uiso   1.00
C509   C     0.65439   0.37234   0.72438   0.00000  Uiso   1.00
C510   C     0.62741   0.15417   0.27591   0.00000  Uiso   1.00
C511   C     0.87117   0.34442   0.72612   0.00000  Uiso   1.00
C512   C     0.65342   0.37332   0.27698   0.00000  Uiso   1.00
C513   C     0.84613   0.12714   0.72375   0.00000  Uiso   1.00
C514   C     0.59797   0.34830   0.25027   0.00000  Uiso   1.00
C515   C     0.90170   0.15204   0.75028   0.00000  Uiso   1.00
C516   C     0.65198   0.09824   0.24983   0.00000  Uiso   1.00
H517   H     0.69675   0.02691   0.02635   0.00000  Uiso   1.00
H518   H     0.55415   0.27454   0.47391   0.00000  Uiso   1.00
H519   H     0.72851   0.41440   0.60456   0.00000  Uiso   1.00
H520   H     0.76964   0.39080   0.65567   0.00000  Uiso   1.00
H521   H     0.75562   0.35509   0.62283   0.00000  Uiso   1.00
H522   H     0.80095   0.37424   0.61915   0.00000  Uiso   1.00
H523   H     0.75590   0.10250   0.43224   0.00000  Uiso   1.00
H524   H     0.72570   0.08454   0.39509   0.00000  Uiso   1.00
H525   H     0.76630   0.10956   0.34418   0.00000  Uiso   1.00
H526   H     0.75066   0.14478   0.37680   0.00000  Uiso   1.00
H527   H     0.79666   0.12743   0.38088   0.00000  Uiso   1.00
H528   H     0.58642   0.26884   0.60272   0.00000  Uiso   1.00
H529   H     0.77348   0.44732   0.52515   0.00000  Uiso   1.00
H530   H     0.60219   0.23572   0.56725   0.00000  Uiso   1.00
H531   H     0.62416   0.19582   0.62082   0.00000  Uiso   1.00
H532   H     0.64484   0.24058   0.62231   0.00000  Uiso   1.00
H533   H     0.60867   0.22925   0.65573   0.00000  Uiso   1.00
H534   H     0.91606   0.27523   0.39486   0.00000  Uiso   1.00
H535   H     0.89761   0.24549   0.43215   0.00000  Uiso   1.00
H536   H     0.87184   0.20502   0.38101   0.00000  Uiso   1.00
H537   H     0.85536   0.25132   0.37672   0.00000  Uiso   1.00
H538   H     0.89024   0.23487   0.34414   0.00000  Uiso   1.00
H539   H     0.67835   0.06767   0.64054   0.00000  Uiso   1.00
H540   H     0.77193   0.05334   0.47486   0.00000  Uiso   1.00
H541   H     0.67707   0.02357   0.61880   0.00000  Uiso   1.00
H542   H     0.65834   0.05191   0.55573   0.00000  Uiso   1.00
H543   H     0.62796   0.06518   0.59429   0.00000  Uiso   1.00
H544   H     0.66207   0.09687   0.57712   0.00000  Uiso   1.00
H545   H     0.68017   0.43138   0.35934   0.00000  Uiso   1.00
H546   H     0.67675   0.47423   0.38352   0.00000  Uiso   1.00
H547   H     0.66008   0.44177   0.44508   0.00000  Uiso   1.00
H548   H     0.62996   0.42920   0.40605   0.00000  Uiso   1.00
H549   H     0.66561   0.39824   0.42094   0.00000  Uiso   1.00
H550   H     0.55202   0.22413   0.52530   0.00000  Uiso   1.00
H551   H     0.94648   0.22803   0.47477   0.00000  Uiso   1.00
H552   H     0.72238   0.05288   0.52638   0.00000  Uiso   1.00
H553   H     0.72379   0.44637   0.47374   0.00000  Uiso   1.00
H554   H     0.62100   0.42583   0.20289   0.00000  Uiso   1.00
H555   H     0.87849   0.07465   0.79788   0.00000  Uiso   1.00
H556   H     0.57386   0.12061   0.20318   0.00000  Uiso   1.00
H557   H     0.80337   0.02681   0.97369   0.00000  Uiso   1.00
H558   H     0.92898   0.38220   0.79259   0.00000  Uiso   1.00
H559   H     0.87997   0.07318   0.20409   0.00000  Uiso   1.00
H560   H     0.62000   0.42684   0.79594   0.00000  Uiso   1.00
H561   H     0.92617   0.37925   0.20313   0.00000  Uiso   1.00
H562   H     0.57336   0.12025   0.79613   0.00000  Uiso   1.00
H563   H     0.62018   0.07340   0.79613   0.00000  Uiso   1.00
H564   H     0.87937   0.42614   0.20317   0.00000  Uiso   1.00
H565   H     0.57316   0.38001   0.79594   0.00000  Uiso   1.00
H566   H     0.92681   0.12002   0.20409   0.00000  Uiso   1.00
H567   H     0.88215   0.42904   0.79257   0.00000  Uiso   1.00
H568   H     0.52247   0.19687   0.02514   0.00000  Uiso   1.00
H569   H     0.62075   0.07382   0.20314   0.00000  Uiso   1.00
H570   H     0.92535   0.12151   0.79788   0.00000  Uiso   1.00
H571   H     0.57417   0.37899   0.20289   0.00000  Uiso   1.00
H572   H     0.87100   0.17583   0.70289   0.00000  Uiso   1.00
H573   H     0.62850   0.32464   0.29786   0.00000  Uiso   1.00
H574   H     0.82105   0.36782   0.70731   0.00000  Uiso   1.00
H575   H     0.67641   0.12964   0.29639   0.00000  Uiso   1.00
H576   H     0.63008   0.32307   0.70425   0.00000  Uiso   1.00
H577   H     0.87011   0.17674   0.29609   0.00000  Uiso   1.00
H578   H     0.67637   0.12945   0.70341   0.00000  Uiso   1.00
H579   H     0.52255   0.30304   0.97484   0.00000  Uiso   1.00
H580   H     0.82356   0.37044   0.29639   0.00000  Uiso   1.00
H581   H     0.87038   0.32360   0.29639   0.00000  Uiso   1.00
H582   H     0.62959   0.17634   0.70347   0.00000  Uiso   1.00
H583   H     0.82327   0.12990   0.29609   0.00000  Uiso   1.00
H584   H     0.67692   0.36991   0.70425   0.00000  Uiso   1.00
H585   H     0.62956   0.17645   0.29638   0.00000  Uiso   1.00
H586   H     0.86771   0.32086   0.70756   0.00000  Uiso   1.00
H587   H     0.67536   0.37150   0.29786   0.00000  Uiso   1.00
H588   H     0.82417   0.12899   0.70289   0.00000  Uiso   1.00
H589   H     0.72541   0.07266   0.11878   0.00000  Uiso   1.00
H590   H     0.80308   0.47743   0.02514   0.00000  Uiso   1.00
H591   H     0.68127   0.07084   0.14038   0.00000  Uiso   1.00
H592   H     0.65204   0.08661   0.07682   0.00000  Uiso   1.00
H593   H     0.68320   0.12119   0.09407   0.00000  Uiso   1.00
H594   H     0.69703   0.09096   0.05560   0.00000  Uiso   1.00
H595   H     0.77505   0.07346   0.88339   0.00000  Uiso   1.00
H596   H     0.81792   0.07040   0.85920   0.00000  Uiso   1.00
H597   H     0.85096   0.08541   0.92073   0.00000  Uiso   1.00
H598   H     0.81964   0.12073   0.90580   0.00000  Uiso   1.00
H599   H     0.80741   0.09054   0.94490   0.00000  Uiso   1.00
H600   H     0.50706   0.14753   0.06774   0.00000  Uiso   1.00
H601   H     0.69692   0.47754   0.97483   0.00000  Uiso   1.00
H602   H     0.97656   0.16515   0.10482   0.00000  Uiso   1.00
H603   H     0.51727   0.14059   0.15581   0.00000  Uiso   1.00
H604   H     0.50213   0.10519   0.12315   0.00000  Uiso   1.00
H605   H     0.54794   0.12309   0.11918   0.00000  Uiso   1.00
H606   H     0.50750   0.35246   0.93238   0.00000  Uiso   1.00
H607   H     0.97677   0.33499   0.89546   0.00000  Uiso   1.00
H608   H     0.51738   0.35942   0.84425   0.00000  Uiso   1.00
H609   H     0.50256   0.39486   0.87704   0.00000  Uiso   1.00
H610   H     0.54830   0.37675   0.88071   0.00000  Uiso   1.00
H611   H     0.83496   0.02325   0.10463   0.00000  Uiso   1.00
H612   H     0.97318   0.30329   0.02634   0.00000  Uiso   1.00
H613   H     0.85249   0.49254   0.06769   0.00000  Uiso   1.00
H614   H     0.87674   0.45176   0.11934   0.00000  Uiso   1.00
H615   H     0.89482   0.49752   0.12309   0.00000  Uiso   1.00
H616   H     0.85936   0.48268   0.15581   0.00000  Uiso   1.00
H617   H     0.66510   0.02340   0.89536   0.00000  Uiso   1.00
H618   H     0.64755   0.49278   0.93233   0.00000  Uiso   1.00
H619   H     0.62314   0.45195   0.88074   0.00000  Uiso   1.00
H620   H     0.60516   0.49773   0.87698   0.00000  Uiso   1.00
H621   H     0.64056   0.48276   0.84423   0.00000  Uiso   1.00
H622   H     0.92926   0.31886   0.14036   0.00000  Uiso   1.00
H623   H     0.97310   0.19666   0.97367   0.00000  Uiso   1.00
H624   H     0.92737   0.27472   0.11877   0.00000  Uiso   1.00
H625   H     0.90913   0.30311   0.05558   0.00000  Uiso   1.00
H626   H     0.87892   0.31701   0.09403   0.00000  Uiso   1.00
H627   H     0.91356   0.34809   0.07678   0.00000  Uiso   1.00
H628   H     0.92952   0.18220   0.85916   0.00000  Uiso   1.00
H629   H     0.92651   0.22506   0.88337   0.00000  Uiso   1.00
H630   H     0.90937   0.19271   0.94487   0.00000  Uiso   1.00
H631   H     0.87917   0.18054   0.90575   0.00000  Uiso   1.00
H632   H     0.91444   0.14916   0.92067   0.00000  Uiso   1.00
H633   H     0.94295   0.33157   0.57216   0.00000  Uiso   1.00
H634   H     0.94807   0.27836   0.52616   0.00000  Uiso   1.00
H635   H     0.97263   0.32835   0.61418   0.00000  Uiso   1.00
H636   H     0.91868   0.32663   0.65713   0.00000  Uiso   1.00
H637   H     0.91862   0.36701   0.62726   0.00000  Uiso   1.00
H638   H     0.88867   0.32936   0.61569   0.00000  Uiso   1.00
H639   H     0.52675   0.32269   0.38407   0.00000  Uiso   1.00
H640   H     0.56960   0.31898   0.35996   0.00000  Uiso   1.00
H641   H     0.60279   0.33261   0.42178   0.00000  Uiso   1.00
H642   H     0.57231   0.36876   0.40713   0.00000  Uiso   1.00
H643   H     0.55928   0.33848   0.44585   0.00000  Uiso   1.00
H644   H     0.75963   0.39769   0.56758   0.00000  Uiso   1.00
O645   O     0.75000   0.00000   0.25000   0.00000  Uiso   1.00
O646   O     0.75000   0.46964   0.66317   0.00000  Uiso   1.00
O647   O     0.96964   0.25000   0.33683   0.00000  Uiso   1.00
O648   O     0.53036   0.25000   0.66317   0.00000  Uiso   1.00
O649   O     0.50000   0.21964   0.83683   0.00000  Uiso   1.00
O650   O     0.50000   0.28036   0.16317   0.00000  Uiso   1.00
O651   O     0.78036   0.00000   0.83683   0.00000  Uiso   1.00
O652   O     0.71964   0.00000   0.16317   0.00000  Uiso   1.00
O653   O     0.50000   0.28036   0.83683   0.00000  Uiso   1.00
O654   O     0.50000   0.21964   0.16317   0.00000  Uiso   1.00
O655   O     0.71964   0.00000   0.83683   0.00000  Uiso   1.00
O656   O     0.75000   0.00000   0.75000   0.00000  Uiso   1.00
O657   O     0.78036   0.00000   0.16317   0.00000  Uiso   1.00
O658   O     0.70725   0.07307   0.27282   0.00000  Uiso   1.00
O659   O     0.79274   0.42693   0.72718   0.00000  Uiso   1.00
O660   O     0.92693   0.20726   0.27282   0.00000  Uiso   1.00
O661   O     0.57307   0.29275   0.72718   0.00000  Uiso   1.00
O662   O     0.79274   0.42693   0.27282   0.00000  Uiso   1.00
O663   O     0.70725   0.07307   0.72718   0.00000  Uiso   1.00
O664   O     0.57307   0.29275   0.27282   0.00000  Uiso   1.00
O665   O     0.92693   0.20726   0.72718   0.00000  Uiso   1.00
O666   O     0.70725   0.42693   0.72718   0.00000  Uiso   1.00
O667   O     0.50000   0.25000   0.25000   0.00000  Uiso   1.00
O668   O     0.79274   0.07307   0.27282   0.00000  Uiso   1.00
O669   O     0.92693   0.29275   0.72718   0.00000  Uiso   1.00
O670   O     0.57307   0.20726   0.27282   0.00000  Uiso   1.00
O671   O     0.79274   0.07307   0.72718   0.00000  Uiso   1.00
O672   O     0.70725   0.42693   0.27282   0.00000  Uiso   1.00
O673   O     0.57307   0.20726   0.72718   0.00000  Uiso   1.00
O674   O     0.92693   0.29275   0.27282   0.00000  Uiso   1.00
O675   O     0.95725   0.32307   0.77282   0.00000  Uiso   1.00
O676   O     0.54274   0.17693   0.22718   0.00000  Uiso   1.00
O677   O     0.67693   0.45726   0.77282   0.00000  Uiso   1.00
O678   O     0.50000   0.25000   0.75000   0.00000  Uiso   1.00
O679   O     0.82307   0.04275   0.22718   0.00000  Uiso   1.00
O680   O     0.54274   0.17693   0.77282   0.00000  Uiso   1.00
O681   O     0.95725   0.32307   0.22718   0.00000  Uiso   1.00
O682   O     0.82307   0.04275   0.77282   0.00000  Uiso   1.00
O683   O     0.67693   0.45726   0.22718   0.00000  Uiso   1.00
O684   O     0.95725   0.17693   0.22718   0.00000  Uiso   1.00
O685   O     0.54274   0.32307   0.77282   0.00000  Uiso   1.00
O686   O     0.67693   0.04275   0.22718   0.00000  Uiso   1.00
O687   O     0.82307   0.45726   0.77282   0.00000  Uiso   1.00
O688   O     0.54274   0.32307   0.22718   0.00000  Uiso   1.00
O689   O     0.75000   0.46964   0.33683   0.00000  Uiso   1.00
O690   O     0.95725   0.17693   0.77282   0.00000  Uiso   1.00
O691   O     0.82307   0.45726   0.22718   0.00000  Uiso   1.00
O692   O     0.67693   0.04275   0.77282   0.00000  Uiso   1.00
O693   O     0.68986   0.02979   0.10110   0.00000  Uiso   1.00
O694   O     0.81030   0.02955   0.89891   0.00000  Uiso   1.00
O695   O     0.52783   0.19032   0.10070   0.00000  Uiso   1.00
O696   O     0.52793   0.30960   0.89926   0.00000  Uiso   1.00
O697   O     0.80961   0.47204   0.10072   0.00000  Uiso   1.00
O698   O     0.69035   0.47217   0.89926   0.00000  Uiso   1.00
O699   O     0.97031   0.31019   0.10109   0.00000  Uiso   1.00
O700   O     0.75000   0.03036   0.66317   0.00000  Uiso   1.00
O701   O     0.97036   0.18974   0.89889   0.00000  Uiso   1.00
O702   O     0.94166   0.28191   0.60151   0.00000  Uiso   1.00
O703   O     0.56101   0.27788   0.39916   0.00000  Uiso   1.00
O704   O     0.77909   0.44095   0.60077   0.00000  Uiso   1.00
O705   O     0.77722   0.05995   0.39931   0.00000  Uiso   1.00
O706   O     0.55830   0.21896   0.60112   0.00000  Uiso   1.00
O707   O     0.93971   0.22328   0.39922   0.00000  Uiso   1.00
O708   O     0.71945   0.05974   0.60115   0.00000  Uiso   1.00
O709   O     0.72103   0.43942   0.39896   0.00000  Uiso   1.00
O710   O     0.53036   0.25000   0.33683   0.00000  Uiso   1.00
O711   O     0.96964   0.25000   0.66317   0.00000  Uiso   1.00
O712   O     0.75000   0.03036   0.33683   0.00000  Uiso   1.00
Zn713  Zn    0.70660   0.00000   0.21760   0.00000  Uiso   1.00
Zn714  Zn    0.54340   0.25000   0.28240   0.00000  Uiso   1.00
Zn715  Zn    0.75000   0.45660   0.71760   0.00000  Uiso   1.00
Zn716  Zn    0.75000   0.04340   0.28240   0.00000  Uiso   1.00
Zn717  Zn    0.54340   0.25000   0.71760   0.00000  Uiso   1.00
Zn718  Zn    0.95660   0.25000   0.28240   0.00000  Uiso   1.00
Zn719  Zn    0.75000   0.04340   0.71760   0.00000  Uiso   1.00
Zn720  Zn    0.75000   0.45660   0.28240   0.00000  Uiso   1.00
Zn721  Zn    0.79340   0.00000   0.78240   0.00000  Uiso   1.00
Zn722  Zn    0.50000   0.20660   0.21760   0.00000  Uiso   1.00
Zn723  Zn    0.50000   0.29340   0.78240   0.00000  Uiso   1.00
Zn724  Zn    0.79340   0.00000   0.21760   0.00000  Uiso   1.00
Zn725  Zn    0.70660   0.00000   0.78240   0.00000  Uiso   1.00
Zn726  Zn    0.50000   0.29340   0.21760   0.00000  Uiso   1.00
Zn727  Zn    0.50000   0.20660   0.78240   0.00000  Uiso   1.00
Zn728  Zn    0.95660   0.25000   0.71760   0.00000  Uiso   1.00
C729   C     0.22016   0.51612   0.04167   0.00000  Uiso   1.00
C730   C     0.03044   0.76453   0.45849   0.00000  Uiso   1.00
C731   C     0.34815   0.90188   0.74993   0.00000  Uiso   1.00
C732   C     0.40189   0.65184   0.25006   0.00000  Uiso   1.00
C733   C     0.09816   0.84811   0.75007   0.00000  Uiso   1.00
C734   C     0.34806   0.90178   0.24984   0.00000  Uiso   1.00
C735   C     0.15176   0.59802   0.74983   0.00000  Uiso   1.00
C736   C     0.09806   0.65178   0.74985   0.00000  Uiso   1.00
C737   C     0.40176   0.84802   0.24983   0.00000  Uiso   1.00
C738   C     0.15189   0.90184   0.75007   0.00000  Uiso   1.00
C739   C     0.34816   0.59811   0.25006   0.00000  Uiso   1.00
C740   C     0.40185   0.84813   0.75001   0.00000  Uiso   1.00
C741   C     0.26163   0.96986   0.54108   0.00000  Uiso   1.00
C742   C     0.09822   0.65194   0.24984   0.00000  Uiso   1.00
C743   C     0.34796   0.59830   0.75028   0.00000  Uiso   1.00
C744   C     0.15170   0.90203   0.25027   0.00000  Uiso   1.00
C745   C     0.25026   0.50147   0.10223   0.00000  Uiso   1.00
C746   C     0.24978   0.50149   0.89777   0.00000  Uiso   1.00
C747   C     0.49853   0.74974   0.10223   0.00000  Uiso   1.00
C748   C     0.49851   0.75023   0.89777   0.00000  Uiso   1.00
C749   C     0.00025   0.75079   0.60225   0.00000  Uiso   1.00
C750   C     0.49983   0.75123   0.39781   0.00000  Uiso   1.00
C751   C     0.24861   0.99974   0.60225   0.00000  Uiso   1.00
C752   C     0.26073   0.53045   0.45896   0.00000  Uiso   1.00
C753   C     0.24851   0.50022   0.39779   0.00000  Uiso   1.00
C754   C     0.19615   0.56630   0.11279   0.00000  Uiso   1.00
C755   C     0.18113   0.59287   0.08287   0.00000  Uiso   1.00
C756   C     0.30438   0.56622   0.88762   0.00000  Uiso   1.00
C757   C     0.32171   0.59230   0.91666   0.00000  Uiso   1.00
C758   C     0.00557   0.65899   0.09751   0.00000  Uiso   1.00
C759   C     0.01912   0.63016   0.12569   0.00000  Uiso   1.00
C760   C     0.00584   0.84102   0.90261   0.00000  Uiso   1.00
C761   C     0.01941   0.86981   0.87437   0.00000  Uiso   1.00
C762   C     0.34102   0.99418   0.09745   0.00000  Uiso   1.00
C763   C     0.02981   0.73663   0.54118   0.00000  Uiso   1.00
C764   C     0.36978   0.98064   0.12571   0.00000  Uiso   1.00
C765   C     0.15899   0.99436   0.90256   0.00000  Uiso   1.00
C766   C     0.13016   0.98080   0.87435   0.00000  Uiso   1.00
C767   C     0.43378   0.80396   0.11278   0.00000  Uiso   1.00
C768   C     0.40725   0.81902   0.08284   0.00000  Uiso   1.00
C769   C     0.43371   0.69572   0.88759   0.00000  Uiso   1.00
C770   C     0.40760   0.67842   0.91661   0.00000  Uiso   1.00
C771   C     0.44570   0.82022   0.60189   0.00000  Uiso   1.00
C772   C     0.41600   0.83683   0.62707   0.00000  Uiso   1.00
C773   C     0.05591   0.81479   0.38829   0.00000  Uiso   1.00
C774   C     0.46953   0.73895   0.45892   0.00000  Uiso   1.00
C775   C     0.07371   0.84019   0.41768   0.00000  Uiso   1.00
C776   C     0.25771   0.90904   0.59737   0.00000  Uiso   1.00
C777   C     0.27192   0.88051   0.62553   0.00000  Uiso   1.00
C778   C     0.25462   0.59103   0.40246   0.00000  Uiso   1.00
C779   C     0.26794   0.62001   0.37430   0.00000  Uiso   1.00
C780   C     0.09086   0.73922   0.59688   0.00000  Uiso   1.00
C781   C     0.11888   0.72530   0.62576   0.00000  Uiso   1.00
C782   C     0.40906   0.74645   0.40235   0.00000  Uiso   1.00
C783   C     0.37980   0.73357   0.37428   0.00000  Uiso   1.00
C784   C     0.18305   0.55292   0.61290   0.00000  Uiso   1.00
C785   C     0.23350   0.52963   0.54170   0.00000  Uiso   1.00
C786   C     0.15624   0.56768   0.58306   0.00000  Uiso   1.00
C787   C     0.18428   0.94498   0.38774   0.00000  Uiso   1.00
C788   C     0.15842   0.92742   0.41685   0.00000  Uiso   1.00
C789   C     0.23425   0.96992   0.45839   0.00000  Uiso   1.00
C790   C     0.22023   0.51641   0.08196   0.00000  Uiso   1.00
C791   C     0.27987   0.51633   0.91806   0.00000  Uiso   1.00
C792   C     0.01143   0.71910   0.08148   0.00000  Uiso   1.00
C793   C     0.27993   0.51609   0.95835   0.00000  Uiso   1.00
C794   C     0.01145   0.78085   0.91851   0.00000  Uiso   1.00
C795   C     0.28087   0.98851   0.08148   0.00000  Uiso   1.00
C796   C     0.21913   0.98860   0.91851   0.00000  Uiso   1.00
C797   C     0.48363   0.77979   0.08196   0.00000  Uiso   1.00
C798   C     0.48362   0.72015   0.91805   0.00000  Uiso   1.00
C799   C     0.47094   0.76686   0.58195   0.00000  Uiso   1.00
C800   C     0.03030   0.76517   0.41820   0.00000  Uiso   1.00
C801   C     0.26206   0.96934   0.58151   0.00000  Uiso   1.00
C802   C     0.26110   0.53100   0.41854   0.00000  Uiso   1.00
C803   C     0.03030   0.73641   0.58163   0.00000  Uiso   1.00
C804   C     0.01103   0.71963   0.04106   0.00000  Uiso   1.00
C805   C     0.46892   0.73888   0.41851   0.00000  Uiso   1.00
C806   C     0.23323   0.52955   0.58200   0.00000  Uiso   1.00
C807   C     0.23397   0.96998   0.41809   0.00000  Uiso   1.00
C808   C     0.25019   0.50273   0.02118   0.00000  Uiso   1.00
C809   C     0.24988   0.50274   0.97883   0.00000  Uiso   1.00
C810   C     0.49727   0.74981   0.02117   0.00000  Uiso   1.00
C811   C     0.49726   0.75013   0.97882   0.00000  Uiso   1.00
C812   C     0.00032   0.75172   0.52121   0.00000  Uiso   1.00
C813   C     0.00008   0.75179   0.47888   0.00000  Uiso   1.00
C814   C     0.24734   0.99980   0.52121   0.00000  Uiso   1.00
C815   C     0.01106   0.78030   0.95893   0.00000  Uiso   1.00
C816   C     0.24730   0.50011   0.47886   0.00000  Uiso   1.00
C817   C     0.24984   0.50003   0.35527   0.00000  Uiso   1.00
C818   C     0.24990   0.99996   0.64475   0.00000  Uiso   1.00
C819   C     0.49997   0.75013   0.35527   0.00000  Uiso   1.00
C820   C     0.00004   0.75006   0.64475   0.00000  Uiso   1.00
C821   C     0.49985   0.75003   0.85526   0.00000  Uiso   1.00
C822   C     0.49987   0.74996   0.14474   0.00000  Uiso   1.00
C823   C     0.24997   0.50015   0.85526   0.00000  Uiso   1.00
C824   C     0.25004   0.50012   0.14474   0.00000  Uiso   1.00
C825   C     0.17996   0.57011   0.24995   0.00000  Uiso   1.00
C826   C     0.28034   0.98891   0.04106   0.00000  Uiso   1.00
C827   C     0.32008   0.92993   0.74997   0.00000  Uiso   1.00
C828   C     0.42993   0.67992   0.25002   0.00000  Uiso   1.00
C829   C     0.07008   0.82007   0.75002   0.00000  Uiso   1.00
C830   C     0.32006   0.92991   0.24995   0.00000  Uiso   1.00
C831   C     0.17989   0.57004   0.74995   0.00000  Uiso   1.00
C832   C     0.07002   0.82011   0.25008   0.00000  Uiso   1.00
C833   C     0.42988   0.67998   0.75008   0.00000  Uiso   1.00
C834   C     0.17993   0.92992   0.75002   0.00000  Uiso   1.00
C835   C     0.32008   0.57007   0.25002   0.00000  Uiso   1.00
C836   C     0.42992   0.82007   0.75001   0.00000  Uiso   1.00
C837   C     0.21968   0.98899   0.95893   0.00000  Uiso   1.00
C838   C     0.07009   0.67994   0.24995   0.00000  Uiso   1.00
C839   C     0.32002   0.57012   0.75008   0.00000  Uiso   1.00
C840   C     0.17988   0.92998   0.25008   0.00000  Uiso   1.00
C841   C     0.07006   0.67991   0.74996   0.00000  Uiso   1.00
C842   C     0.42989   0.82004   0.24995   0.00000  Uiso   1.00
C843   C     0.12286   0.90387   0.22375   0.00000  Uiso   1.00
C844   C     0.37667   0.59658   0.77698   0.00000  Uiso   1.00
C845   C     0.09611   0.62280   0.22366   0.00000  Uiso   1.00
C846   C     0.40551   0.87881   0.77390   0.00000  Uiso   1.00
C847   C     0.37759   0.59567   0.22429   0.00000  Uiso   1.00
C848   C     0.48392   0.77986   0.04167   0.00000  Uiso   1.00
C849   C     0.12243   0.90432   0.77581   0.00000  Uiso   1.00
C850   C     0.40391   0.87713   0.22364   0.00000  Uiso   1.00
C851   C     0.09573   0.62249   0.77578   0.00000  Uiso   1.00
C852   C     0.12245   0.59575   0.77578   0.00000  Uiso   1.00
C853   C     0.37720   0.90389   0.22365   0.00000  Uiso   1.00
C854   C     0.09569   0.87758   0.77581   0.00000  Uiso   1.00
C855   C     0.40433   0.62240   0.22429   0.00000  Uiso   1.00
C856   C     0.37878   0.90554   0.77389   0.00000  Uiso   1.00
C857   C     0.12287   0.59608   0.22364   0.00000  Uiso   1.00
C858   C     0.40342   0.62333   0.77698   0.00000  Uiso   1.00
C859   C     0.48386   0.72009   0.95834   0.00000  Uiso   1.00
C860   C     0.09613   0.87713   0.22375   0.00000  Uiso   1.00
C861   C     0.37286   0.65387   0.72375   0.00000  Uiso   1.00
C862   C     0.12668   0.84658   0.27697   0.00000  Uiso   1.00
C863   C     0.34450   0.87121   0.72601   0.00000  Uiso   1.00
C864   C     0.15415   0.62745   0.27592   0.00000  Uiso   1.00
C865   C     0.12766   0.84560   0.72438   0.00000  Uiso   1.00
C866   C     0.37248   0.65426   0.27588   0.00000  Uiso   1.00
C867   C     0.15402   0.62724   0.72379   0.00000  Uiso   1.00
C868   C     0.34584   0.87260   0.27592   0.00000  Uiso   1.00
C869   C     0.37256   0.84585   0.27592   0.00000  Uiso   1.00
C870   C     0.47092   0.76654   0.54159   0.00000  Uiso   1.00
C871   C     0.12731   0.65400   0.72381   0.00000  Uiso   1.00
C872   C     0.34574   0.62753   0.27588   0.00000  Uiso   1.00
C873   C     0.15439   0.87234   0.72438   0.00000  Uiso   1.00
C874   C     0.12741   0.65417   0.27591   0.00000  Uiso   1.00
C875   C     0.37117   0.84442   0.72612   0.00000  Uiso   1.00
C876   C     0.15342   0.87332   0.27698   0.00000  Uiso   1.00
C877   C     0.34613   0.62714   0.72375   0.00000  Uiso   1.00
C878   C     0.09797   0.84830   0.25027   0.00000  Uiso   1.00
C879   C     0.40170   0.65204   0.75028   0.00000  Uiso   1.00
C880   C     0.15198   0.59824   0.24983   0.00000  Uiso   1.00
H881   H     0.19675   0.52691   0.02635   0.00000  Uiso   1.00
H882   H     0.05415   0.77454   0.47391   0.00000  Uiso   1.00
H883   H     0.22851   0.91440   0.60456   0.00000  Uiso   1.00
H884   H     0.26964   0.89080   0.65567   0.00000  Uiso   1.00
H885   H     0.25562   0.85509   0.62283   0.00000  Uiso   1.00
H886   H     0.30095   0.87424   0.61915   0.00000  Uiso   1.00
H887   H     0.25590   0.60250   0.43224   0.00000  Uiso   1.00
H888   H     0.22570   0.58454   0.39509   0.00000  Uiso   1.00
H889   H     0.26630   0.60956   0.34418   0.00000  Uiso   1.00
H890   H     0.25066   0.64478   0.37680   0.00000  Uiso   1.00
H891   H     0.29666   0.62743   0.38088   0.00000  Uiso   1.00
H892   H     0.08642   0.76884   0.60272   0.00000  Uiso   1.00
H893   H     0.27348   0.94732   0.52515   0.00000  Uiso   1.00
H894   H     0.10219   0.73572   0.56725   0.00000  Uiso   1.00
H895   H     0.12416   0.69582   0.62082   0.00000  Uiso   1.00
H896   H     0.14484   0.74058   0.62231   0.00000  Uiso   1.00
H897   H     0.10867   0.72925   0.65573   0.00000  Uiso   1.00
H898   H     0.41606   0.77523   0.39486   0.00000  Uiso   1.00
H899   H     0.39761   0.74549   0.43215   0.00000  Uiso   1.00
H900   H     0.37184   0.70502   0.38101   0.00000  Uiso   1.00
H901   H     0.35536   0.75132   0.37672   0.00000  Uiso   1.00
H902   H     0.39024   0.73487   0.34414   0.00000  Uiso   1.00
H903   H     0.17835   0.56767   0.64054   0.00000  Uiso   1.00
H904   H     0.27193   0.55334   0.47486   0.00000  Uiso   1.00
H905   H     0.17707   0.52357   0.61880   0.00000  Uiso   1.00
H906   H     0.15834   0.55191   0.55573   0.00000  Uiso   1.00
H907   H     0.12796   0.56518   0.59429   0.00000  Uiso   1.00
H908   H     0.16207   0.59687   0.57712   0.00000  Uiso   1.00
H909   H     0.18017   0.93138   0.35934   0.00000  Uiso   1.00
H910   H     0.17675   0.97423   0.38352   0.00000  Uiso   1.00
H911   H     0.16008   0.94177   0.44508   0.00000  Uiso   1.00
H912   H     0.12996   0.92920   0.40605   0.00000  Uiso   1.00
H913   H     0.16561   0.89824   0.42094   0.00000  Uiso   1.00
H914   H     0.05202   0.72413   0.52530   0.00000  Uiso   1.00
H915   H     0.44648   0.72803   0.47477   0.00000  Uiso   1.00
H916   H     0.22238   0.55288   0.52638   0.00000  Uiso   1.00
H917   H     0.22379   0.94637   0.47374   0.00000  Uiso   1.00
H918   H     0.12100   0.92583   0.20289   0.00000  Uiso   1.00
H919   H     0.37849   0.57465   0.79788   0.00000  Uiso   1.00
H920   H     0.07386   0.62061   0.20318   0.00000  Uiso   1.00
H921   H     0.30337   0.52681   0.97369   0.00000  Uiso   1.00
H922   H     0.42898   0.88220   0.79259   0.00000  Uiso   1.00
H923   H     0.37997   0.57318   0.20409   0.00000  Uiso   1.00
H924   H     0.12000   0.92684   0.79594   0.00000  Uiso   1.00
H925   H     0.42617   0.87925   0.20313   0.00000  Uiso   1.00
H926   H     0.07336   0.62025   0.79613   0.00000  Uiso   1.00
H927   H     0.12018   0.57340   0.79613   0.00000  Uiso   1.00
H928   H     0.37937   0.92614   0.20317   0.00000  Uiso   1.00
H929   H     0.07316   0.88001   0.79594   0.00000  Uiso   1.00
H930   H     0.42681   0.62002   0.20409   0.00000  Uiso   1.00
H931   H     0.38215   0.92904   0.79257   0.00000  Uiso   1.00
H932   H     0.02247   0.69687   0.02514   0.00000  Uiso   1.00
H933   H     0.12075   0.57382   0.20314   0.00000  Uiso   1.00
H934   H     0.42535   0.62151   0.79788   0.00000  Uiso   1.00
H935   H     0.07417   0.87899   0.20289   0.00000  Uiso   1.00
H936   H     0.37100   0.67583   0.70289   0.00000  Uiso   1.00
H937   H     0.12850   0.82464   0.29786   0.00000  Uiso   1.00
H938   H     0.32105   0.86782   0.70731   0.00000  Uiso   1.00
H939   H     0.17641   0.62964   0.29639   0.00000  Uiso   1.00
H940   H     0.13008   0.82307   0.70425   0.00000  Uiso   1.00
H941   H     0.37011   0.67674   0.29609   0.00000  Uiso   1.00
H942   H     0.17637   0.62945   0.70341   0.00000  Uiso   1.00
H943   H     0.02255   0.80304   0.97484   0.00000  Uiso   1.00
H944   H     0.32356   0.87044   0.29639   0.00000  Uiso   1.00
H945   H     0.37038   0.82360   0.29639   0.00000  Uiso   1.00
H946   H     0.12959   0.67634   0.70347   0.00000  Uiso   1.00
H947   H     0.32327   0.62990   0.29609   0.00000  Uiso   1.00
H948   H     0.17692   0.86991   0.70425   0.00000  Uiso   1.00
H949   H     0.12956   0.67645   0.29638   0.00000  Uiso   1.00
H950   H     0.36771   0.82086   0.70756   0.00000  Uiso   1.00
H951   H     0.17536   0.87150   0.29786   0.00000  Uiso   1.00
H952   H     0.32417   0.62899   0.70289   0.00000  Uiso   1.00
H953   H     0.22541   0.57266   0.11878   0.00000  Uiso   1.00
H954   H     0.30308   0.97743   0.02514   0.00000  Uiso   1.00
H955   H     0.18127   0.57084   0.14038   0.00000  Uiso   1.00
H956   H     0.15204   0.58661   0.07682   0.00000  Uiso   1.00
H957   H     0.18320   0.62119   0.09407   0.00000  Uiso   1.00
H958   H     0.19703   0.59096   0.05560   0.00000  Uiso   1.00
H959   H     0.27505   0.57346   0.88339   0.00000  Uiso   1.00
H960   H     0.31792   0.57040   0.85920   0.00000  Uiso   1.00
H961   H     0.35096   0.58541   0.92073   0.00000  Uiso   1.00
H962   H     0.31964   0.62073   0.90580   0.00000  Uiso   1.00
H963   H     0.30741   0.59054   0.94490   0.00000  Uiso   1.00
H964   H     0.00706   0.64753   0.06774   0.00000  Uiso   1.00
H965   H     0.19692   0.97754   0.97483   0.00000  Uiso   1.00
H966   H     0.47656   0.66515   0.10482   0.00000  Uiso   1.00
H967   H     0.01727   0.64059   0.15581   0.00000  Uiso   1.00
H968   H     0.00213   0.60519   0.12315   0.00000  Uiso   1.00
H969   H     0.04794   0.62309   0.11918   0.00000  Uiso   1.00
H970   H     0.00750   0.85246   0.93238   0.00000  Uiso   1.00
H971   H     0.47677   0.83499   0.89546   0.00000  Uiso   1.00
H972   H     0.01738   0.85942   0.84425   0.00000  Uiso   1.00
H973   H     0.00256   0.89486   0.87704   0.00000  Uiso   1.00
H974   H     0.04830   0.87675   0.88071   0.00000  Uiso   1.00
H975   H     0.33496   0.52325   0.10463   0.00000  Uiso   1.00
H976   H     0.47318   0.80329   0.02634   0.00000  Uiso   1.00
H977   H     0.35249   0.99254   0.06769   0.00000  Uiso   1.00
H978   H     0.37674   0.95176   0.11934   0.00000  Uiso   1.00
H979   H     0.39482   0.99752   0.12309   0.00000  Uiso   1.00
H980   H     0.35936   0.98268   0.15581   0.00000  Uiso   1.00
H981   H     0.16510   0.52340   0.89536   0.00000  Uiso   1.00
H982   H     0.14755   0.99278   0.93233   0.00000  Uiso   1.00
H983   H     0.12314   0.95195   0.88074   0.00000  Uiso   1.00
H984   H     0.10516   0.99773   0.87698   0.00000  Uiso   1.00
H985   H     0.14056   0.98276   0.84423   0.00000  Uiso   1.00
H986   H     0.42926   0.81886   0.14036   0.00000  Uiso   1.00
H987   H     0.47310   0.69666   0.97367   0.00000  Uiso   1.00
H988   H     0.42737   0.77472   0.11877   0.00000  Uiso   1.00
H989   H     0.40913   0.80311   0.05558   0.00000  Uiso   1.00
H990   H     0.37892   0.81701   0.09403   0.00000  Uiso   1.00
H991   H     0.41356   0.84809   0.07678   0.00000  Uiso   1.00
H992   H     0.42952   0.68220   0.85916   0.00000  Uiso   1.00
H993   H     0.42651   0.72506   0.88337   0.00000  Uiso   1.00
H994   H     0.40937   0.69271   0.94487   0.00000  Uiso   1.00
H995   H     0.37917   0.68054   0.90575   0.00000  Uiso   1.00
H996   H     0.41444   0.64916   0.92067   0.00000  Uiso   1.00
H997   H     0.44295   0.83157   0.57216   0.00000  Uiso   1.00
H998   H     0.44807   0.77836   0.52616   0.00000  Uiso   1.00
H999   H     0.47263   0.82835   0.61418   0.00000  Uiso   1.00
H1000  H     0.41868   0.82663   0.65713   0.00000  Uiso   1.00
H1001  H     0.41862   0.86701   0.62726   0.00000  Uiso   1.00
H1002  H     0.38867   0.82936   0.61569   0.00000  Uiso   1.00
H1003  H     0.02675   0.82269   0.38407   0.00000  Uiso   1.00
H1004  H     0.06960   0.81898   0.35996   0.00000  Uiso   1.00
H1005  H     0.10279   0.83261   0.42178   0.00000  Uiso   1.00
H1006  H     0.07231   0.86876   0.40713   0.00000  Uiso   1.00
H1007  H     0.05928   0.83848   0.44585   0.00000  Uiso   1.00
H1008  H     0.25963   0.89769   0.56758   0.00000  Uiso   1.00
O1009  O     0.25000   0.50000   0.25000   0.00000  Uiso   1.00
O1010  O     0.25000   0.96964   0.66317   0.00000  Uiso   1.00
O1011  O     0.46964   0.75000   0.33683   0.00000  Uiso   1.00
O1012  O     0.03036   0.75000   0.66317   0.00000  Uiso   1.00
O1013  O     0.00000   0.71964   0.83683   0.00000  Uiso   1.00
O1014  O    -0.00000   0.78036   0.16317   0.00000  Uiso   1.00
O1015  O     0.28036   0.50000   0.83683   0.00000  Uiso   1.00
O1016  O     0.21964   0.50000   0.16317   0.00000  Uiso   1.00
O1017  O     0.00000   0.78036   0.83683   0.00000  Uiso   1.00
O1018  O    -0.00000   0.71964   0.16317   0.00000  Uiso   1.00
O1019  O     0.21964   0.50000   0.83683   0.00000  Uiso   1.00
O1020  O     0.25000   0.50000   0.75000   0.00000  Uiso   1.00
O1021  O     0.28036   0.50000   0.16317   0.00000  Uiso   1.00
O1022  O     0.20725   0.57307   0.27282   0.00000  Uiso   1.00
O1023  O     0.29274   0.92693   0.72718   0.00000  Uiso   1.00
O1024  O     0.42693   0.70726   0.27282   0.00000  Uiso   1.00
O1025  O     0.07307   0.79275   0.72718   0.00000  Uiso   1.00
O1026  O     0.29274   0.92693   0.27282   0.00000  Uiso   1.00
O1027  O     0.20725   0.57307   0.72718   0.00000  Uiso   1.00
O1028  O     0.07307   0.79275   0.27282   0.00000  Uiso   1.00
O1029  O     0.42693   0.70726   0.72718   0.00000  Uiso   1.00
O1030  O     0.20725   0.92693   0.72718   0.00000  Uiso   1.00
O1031  O    -0.00000   0.75000   0.25000   0.00000  Uiso   1.00
O1032  O     0.29274   0.57307   0.27282   0.00000  Uiso   1.00
O1033  O     0.42693   0.79275   0.72718   0.00000  Uiso   1.00
O1034  O     0.07307   0.70726   0.27282   0.00000  Uiso   1.00
O1035  O     0.29274   0.57307   0.72718   0.00000  Uiso   1.00
O1036  O     0.20725   0.92693   0.27282   0.00000  Uiso   1.00
O1037  O     0.07307   0.70726   0.72718   0.00000  Uiso   1.00
O1038  O     0.42693   0.79275   0.27282   0.00000  Uiso   1.00
O1039  O     0.45725   0.82307   0.77282   0.00000  Uiso   1.00
O1040  O     0.04274   0.67693   0.22718   0.00000  Uiso   1.00
O1041  O     0.17693   0.95726   0.77282   0.00000  Uiso   1.00
O1042  O    -0.00000   0.75000   0.75000   0.00000  Uiso   1.00
O1043  O     0.32307   0.54275   0.22718   0.00000  Uiso   1.00
O1044  O     0.04274   0.67693   0.77282   0.00000  Uiso   1.00
O1045  O     0.45725   0.82307   0.22718   0.00000  Uiso   1.00
O1046  O     0.32307   0.54275   0.77282   0.00000  Uiso   1.00
O1047  O     0.17693   0.95726   0.22718   0.00000  Uiso   1.00
O1048  O     0.45725   0.67693   0.22718   0.00000  Uiso   1.00
O1049  O     0.04274   0.82307   0.77282   0.00000  Uiso   1.00
O1050  O     0.17693   0.54275   0.22718   0.00000  Uiso   1.00
O1051  O     0.32307   0.95726   0.77282   0.00000  Uiso   1.00
O1052  O     0.04274   0.82307   0.22718   0.00000  Uiso   1.00
O1053  O     0.25000   0.96964   0.33683   0.00000  Uiso   1.00
O1054  O     0.45725   0.67693   0.77282   0.00000  Uiso   1.00
O1055  O     0.32307   0.95726   0.22718   0.00000  Uiso   1.00
O1056  O     0.17693   0.54275   0.77282   0.00000  Uiso   1.00
O1057  O     0.18986   0.52979   0.10110   0.00000  Uiso   1.00
O1058  O     0.31030   0.52955   0.89891   0.00000  Uiso   1.00
O1059  O     0.02783   0.69032   0.10070   0.00000  Uiso   1.00
O1060  O     0.02793   0.80960   0.89926   0.00000  Uiso   1.00
O1061  O     0.30961   0.97204   0.10072   0.00000  Uiso   1.00
O1062  O     0.19035   0.97217   0.89926   0.00000  Uiso   1.00
O1063  O     0.47031   0.81019   0.10109   0.00000  Uiso   1.00
O1064  O     0.25000   0.53036   0.66317   0.00000  Uiso   1.00
O1065  O     0.47036   0.68974   0.89889   0.00000  Uiso   1.00
O1066  O     0.44166   0.78191   0.60151   0.00000  Uiso   1.00
O1067  O     0.06101   0.77788   0.39916   0.00000  Uiso   1.00
O1068  O     0.27909   0.94095   0.60077   0.00000  Uiso   1.00
O1069  O     0.27722   0.55995   0.39931   0.00000  Uiso   1.00
O1070  O     0.05830   0.71896   0.60112   0.00000  Uiso   1.00
O1071  O     0.43971   0.72328   0.39922   0.00000  Uiso   1.00
O1072  O     0.21945   0.55974   0.60115   0.00000  Uiso   1.00
O1073  O     0.22103   0.93942   0.39896   0.00000  Uiso   1.00
O1074  O     0.03036   0.75000   0.33683   0.00000  Uiso   1.00
O1075  O     0.46964   0.75000   0.66317   0.00000  Uiso   1.00
O1076  O     0.25000   0.53036   0.33683   0.00000  Uiso   1.00
Zn1077 Zn    0.20660   0.50000   0.21760   0.00000  Uiso   1.00
Zn1078 Zn    0.04340   0.75000   0.28240   0.00000  Uiso   1.00
Zn1079 Zn    0.25000   0.95660   0.71760   0.00000  Uiso   1.00
Zn1080 Zn    0.25000   0.54340   0.28240   0.00000  Uiso   1.00
Zn1081 Zn    0.04340   0.75000   0.71760   0.00000  Uiso   1.00
Zn1082 Zn    0.45660   0.75000   0.28240   0.00000  Uiso   1.00
Zn1083 Zn    0.25000   0.54340   0.71760   0.00000  Uiso   1.00
Zn1084 Zn    0.25000   0.95660   0.28240   0.00000  Uiso   1.00
Zn1085 Zn    0.29340   0.50000   0.78240   0.00000  Uiso   1.00
Zn1086 Zn   -0.00000   0.70660   0.21760   0.00000  Uiso   1.00
Zn1087 Zn    0.00000   0.79340   0.78240   0.00000  Uiso   1.00
Zn1088 Zn    0.29340   0.50000   0.21760   0.00000  Uiso   1.00
Zn1089 Zn    0.20660   0.50000   0.78240   0.00000  Uiso   1.00
Zn1090 Zn   -0.00000   0.79340   0.21760   0.00000  Uiso   1.00
Zn1091 Zn   -0.00000   0.70660   0.78240   0.00000  Uiso   1.00
Zn1092 Zn    0.45660   0.75000   0.71760   0.00000  Uiso   1.00
C1093  C     0.72016   0.51612   0.04167   0.00000  Uiso   1.00
C1094  C     0.53044   0.76453   0.45849   0.00000  Uiso   1.00
C1095  C     0.84815   0.90188   0.74993   0.00000  Uiso   1.00
C1096  C     0.90189   0.65184   0.25006   0.00000  Uiso   1.00
C1097  C     0.59816   0.84811   0.75007   0.00000  Uiso   1.00
C1098  C     0.84806   0.90178   0.24984   0.00000  Uiso   1.00
C1099  C     0.65176   0.59802   0.74983   0.00000  Uiso   1.00
C1100  C     0.59806   0.65178   0.74985   0.00000  Uiso   1.00
C1101  C     0.90176   0.84802   0.24983   0.00000  Uiso   1.00
C1102  C     0.65189   0.90184   0.75007   0.00000  Uiso   1.00
C1103  C     0.84816   0.59811   0.25006   0.00000  Uiso   1.00
C1104  C     0.90185   0.84813   0.75001   0.00000  Uiso   1.00
C1105  C     0.76163   0.96986   0.54108   0.00000  Uiso   1.00
C1106  C     0.59822   0.65194   0.24984   0.00000  Uiso   1.00
C1107  C     0.84796   0.59830   0.75028   0.00000  Uiso   1.00
C1108  C     0.65170   0.90203   0.25027   0.00000  Uiso   1.00
C1109  C     0.75026   0.50147   0.10223   0.00000  Uiso   1.00
C1110  C     0.74978   0.50149   0.89777   0.00000  Uiso   1.00
C1111  C     0.99853   0.74974   0.10223   0.00000  Uiso   1.00
C1112  C     0.99851   0.75023   0.89777   0.00000  Uiso   1.00
C1113  C     0.50025   0.75079   0.60225   0.00000  Uiso   1.00
C1114  C     0.99983   0.75123   0.39781   0.00000  Uiso   1.00
C1115  C     0.74861   0.99974   0.60225   0.00000  Uiso   1.00
C1116  C     0.76073   0.53045   0.45896   0.00000  Uiso   1.00
C1117  C     0.74851   0.50022   0.39779   0.00000  Uiso   1.00
C1118  C     0.69615   0.56630   0.11279   0.00000  Uiso   1.00
C1119  C     0.68113   0.59287   0.08287   0.00000  Uiso   1.00
C1120  C     0.80438   0.56622   0.88762   0.00000  Uiso   1.00
C1121  C     0.82171   0.59230   0.91666   0.00000  Uiso   1.00
C1122  C     0.50557   0.65899   0.09751   0.00000  Uiso   1.00
C1123  C     0.51912   0.63016   0.12569   0.00000  Uiso   1.00
C1124  C     0.50584   0.84102   0.90261   0.00000  Uiso   1.00
C1125  C     0.51941   0.86981   0.87437   0.00000  Uiso   1.00
C1126  C     0.84102   0.99418   0.09745   0.00000  Uiso   1.00
C1127  C     0.52981   0.73663   0.54118   0.00000  Uiso   1.00
C1128  C     0.86978   0.98064   0.12571   0.00000  Uiso   1.00
C1129  C     0.65899   0.99436   0.90256   0.00000  Uiso   1.00
C1130  C     0.63016   0.98080   0.87435   0.00000  Uiso   1.00
C1131  C     0.93378   0.80396   0.11278   0.00000  Uiso   1.00
C1132  C     0.90725   0.81902   0.08284   0.00000  Uiso   1.00
C1133  C     0.93371   0.69572   0.88759   0.00000  Uiso   1.00
C1134  C     0.90760   0.67842   0.91661   0.00000  Uiso   1.00
C1135  C     0.94570   0.82022   0.60189   0.00000  Uiso   1.00
C1136  C     0.91600   0.83683   0.62707   0.00000  Uiso   1.00
C1137  C     0.55591   0.81479   0.38829   0.00000  Uiso   1.00
C1138  C     0.96953   0.73895   0.45892   0.00000  Uiso   1.00
C1139  C     0.57371   0.84019   0.41768   0.00000  Uiso   1.00
C1140  C     0.75771   0.90904   0.59737   0.00000  Uiso   1.00
C1141  C     0.77192   0.88051   0.62553   0.00000  Uiso   1.00
C1142  C     0.75462   0.59103   0.40246   0.00000  Uiso   1.00
C1143  C     0.76794   0.62001   0.37430   0.00000  Uiso   1.00
C1144  C     0.59086   0.73922   0.59688   0.00000  Uiso   1.00
C1145  C     0.61888   0.72530   0.62576   0.00000  Uiso   1.00
C1146  C     0.90906   0.74645   0.40235   0.00000  Uiso   1.00
C1147  C     0.87980   0.73357   0.37428   0.00000  Uiso   1.00
C1148  C     0.68305   0.55292   0.61290   0.00000  Uiso   1.00
C1149  C     0.73350   0.52963   0.54170   0.00000  Uiso   1.00
C1150  C     0.65624   0.56768   0.58306   0.00000  Uiso   1.00
C1151  C     0.68428   0.94498   0.38774   0.00000  Uiso   1.00
C1152  C     0.65842   0.92742   0.41685   0.00000  Uiso   1.00
C1153  C     0.73425   0.96992   0.45839   0.00000  Uiso   1.00
C1154  C     0.72023   0.51641   0.08196   0.00000  Uiso   1.00
C1155  C     0.77987   0.51633   0.91806   0.00000  Uiso   1.00
C1156  C     0.51143   0.71910   0.08148   0.00000  Uiso   1.00
C1157  C     0.77993   0.51609   0.95835   0.00000  Uiso   1.00
C1158  C     0.51145   0.78085   0.91851   0.00000  Uiso   1.00
C1159  C     0.78087   0.98851   0.08148   0.00000  Uiso   1.00
C1160  C     0.71913   0.98860   0.91851   0.00000  Uiso   1.00
C1161  C     0.98363   0.77979   0.08196   0.00000  Uiso   1.00
C1162  C     0.98362   0.72015   0.91805   0.00000  Uiso   1.00
C1163  C     0.97094   0.76686   0.58195   0.00000  Uiso   1.00
C1164  C     0.53030   0.76517   0.41820   0.00000  Uiso   1.00
C1165  C     0.76206   0.96934   0.58151   0.00000  Uiso   1.00
C1166  C     0.76110   0.53100   0.41854   0.00000  Uiso   1.00
C1167  C     0.53030   0.73641   0.58163   0.00000  Uiso   1.00
C1168  C     0.51103   0.71963   0.04106   0.00000  Uiso   1.00
C1169  C     0.96892   0.73888   0.41851   0.00000  Uiso   1.00
C1170  C     0.73323   0.52955   0.58200   0.00000  Uiso   1.00
C1171  C     0.73397   0.96998   0.41809   0.00000  Uiso   1.00
C1172  C     0.75019   0.50273   0.02118   0.00000  Uiso   1.00
C1173  C     0.74988   0.50274   0.97883   0.00000  Uiso   1.00
C1174  C     0.99727   0.74981   0.02117   0.00000  Uiso   1.00
C1175  C     0.99726   0.75013   0.97882   0.00000  Uiso   1.00
C1176  C     0.50032   0.75172   0.52121   0.00000  Uiso   1.00
C1177  C     0.50008   0.75179   0.47888   0.00000  Uiso   1.00
C1178  C     0.74734   0.99980   0.52121   0.00000  Uiso   1.00
C1179  C     0.51106   0.78030   0.95893   0.00000  Uiso   1.00
C1180  C     0.74730   0.50011   0.47886   0.00000  Uiso   1.00
C1181  C     0.74984   0.50003   0.35527   0.00000  Uiso   1.00
C1182  C     0.74990   0.99996   0.64475   0.00000  Uiso   1.00
C1183  C     0.99997   0.75013   0.35527   0.00000  Uiso   1.00
C1184  C     0.50004   0.75006   0.64475   0.00000  Uiso   1.00
C1185  C     0.99985   0.75003   0.85526   0.00000  Uiso   1.00
C1186  C     0.99987   0.74996   0.14474   0.00000  Uiso   1.00
C1187  C     0.74997   0.50015   0.85526   0.00000  Uiso   1.00
C1188  C     0.75004   0.50012   0.14474   0.00000  Uiso   1.00
C1189  C     0.67996   0.57011   0.24995   0.00000  Uiso   1.00
C1190  C     0.78034   0.98891   0.04106   0.00000  Uiso   1.00
C1191  C     0.82008   0.92993   0.74997   0.00000  Uiso   1.00
C1192  C     0.92993   0.67992   0.25002   0.00000  Uiso   1.00
C1193  C     0.57008   0.82007   0.75002   0.00000  Uiso   1.00
C1194  C     0.82006   0.92991   0.24995   0.00000  Uiso   1.00
C1195  C     0.67989   0.57004   0.74995   0.00000  Uiso   1.00
C1196  C     0.57002   0.82011   0.25008   0.00000  Uiso   1.00
C1197  C     0.92988   0.67998   0.75008   0.00000  Uiso   1.00
C1198  C     0.67993   0.92992   0.75002   0.00000  Uiso   1.00
C1199  C     0.82008   0.57007   0.25002   0.00000  Uiso   1.00
C1200  C     0.92992   0.82007   0.75001   0.00000  Uiso   1.00
C1201  C     0.71968   0.98899   0.95893   0.00000  Uiso   1.00
C1202  C     0.57009   0.67994   0.24995   0.00000  Uiso   1.00
C1203  C     0.82002   0.57012   0.75008   0.00000  Uiso   1.00
C1204  C     0.67988   0.92998   0.25008   0.00000  Uiso   1.00
C1205  C     0.57006   0.67991   0.74996   0.00000  Uiso   1.00
C1206  C     0.92989   0.82004   0.24995   0.00000  Uiso   1.00
C1207  C     0.62286   0.90387   0.22375   0.00000  Uiso   1.00
C1208  C     0.87667   0.59658   0.77698   0.00000  Uiso   1.00
C1209  C     0.59611   0.62280   0.22366   0.00000  Uiso   1.00
C1210  C     0.90551   0.87881   0.77390   0.00000  Uiso   1.00
C1211  C     0.87759   0.59567   0.22429   0.00000  Uiso   1.00
C1212  C     0.98392   0.77986   0.04167   0.00000  Uiso   1.00
C1213  C     0.62243   0.90432   0.77581   0.00000  Uiso   1.00
C1214  C     0.90391   0.87713   0.22364   0.00000  Uiso   1.00
C1215  C     0.59573   0.62249   0.77578   0.00000  Uiso   1.00
C1216  C     0.62245   0.59575   0.77578   0.00000  Uiso   1.00
C1217  C     0.87720   0.90389   0.22365   0.00000  Uiso   1.00
C1218  C     0.59569   0.87758   0.77581   0.00000  Uiso   1.00
C1219  C     0.90433   0.62240   0.22429   0.00000  Uiso   1.00
C1220  C     0.87878   0.90554   0.77389   0.00000  Uiso   1.00
C1221  C     0.62287   0.59608   0.22364   0.00000  Uiso   1.00
C1222  C     0.90342   0.62333   0.77698   0.00000  Uiso   1.00
C1223  C     0.98386   0.72009   0.95834   0.00000  Uiso   1.00
C1224  C     0.59613   0.87713   0.22375   0.00000  Uiso   1.00
C1225  C     0.87286   0.65387   0.72375   0.00000  Uiso   1.00
C1226  C     0.62668   0.84658   0.27697   0.00000  Uiso   1.00
C1227  C     0.84450   0.87121   0.72601   0.00000  Uiso   1.00
C1228  C     0.65415   0.62745   0.27592   0.00000  Uiso   1.00
C1229  C     0.62766   0.84560   0.72438   0.00000  Uiso   1.00
C1230  C     0.87248   0.65426   0.27588   0.00000  Uiso   1.00
C1231  C     0.65402   0.62724   0.72379   0.00000  Uiso   1.00
C1232  C     0.84584   0.87260   0.27592   0.00000  Uiso   1.00
C1233  C     0.87256   0.84585   0.27592   0.00000  Uiso   1.00
C1234  C     0.97092   0.76654   0.54159   0.00000  Uiso   1.00
C1235  C     0.62731   0.65400   0.72381   0.00000  Uiso   1.00
C1236  C     0.84574   0.62753   0.27588   0.00000  Uiso   1.00
C1237  C     0.65439   0.87234   0.72438   0.00000  Uiso   1.00
C1238  C     0.62741   0.65417   0.27591   0.00000  Uiso   1.00
C1239  C     0.87117   0.84442   0.72612   0.00000  Uiso   1.00
C1240  C     0.65342   0.87332   0.27698   0.00000  Uiso   1.00
C1241  C     0.84613   0.62714   0.72375   0.00000  Uiso   1.00
C1242  C     0.59797   0.84830   0.25027   0.00000  Uiso   1.00
C1243  C     0.90170   0.65204   0.75028   0.00000  Uiso   1.00
C1244  C     0.65198   0.59824   0.24983   0.00000  Uiso   1.00
H1245  H     0.69675   0.52691   0.02635   0.00000  Uiso   1.00
H1246  H     0.55415   0.77454   0.47391   0.00000  Uiso   1.00
H1247  H     0.72851   0.91440   0.60456   0.00000  Uiso   1.00
H1248  H     0.76964   0.89080   0.65567   0.00000  Uiso   1.00
H1249  H     0.75562   0.85509   0.62283   0.00000  Uiso   1.00
H1250  H     0.80095   0.87424   0.61915   0.00000  Uiso   1.00
H1251  H     0.75590   0.60250   0.43224   0.00000  Uiso   1.00
H1252  H     0.72570   0.58454   0.39509   0.00000  Uiso   1.00
H1253  H     0.76630   0.60956   0.34418   0.00000  Uiso   1.00
H1254  H     0.75066   0.64478   0.37680   0.00000  Uiso   1.00
H1255  H     0.79666   0.62743   0.38088   0.00000  Uiso   1.00
H1256  H     0.58642   0.76884   0.60272   0.00000  Uiso   1.00
H1257  H     0.77348   0.94732   0.52515   0.00000  Uiso   1.00
H1258  H     0.60219   0.73572   0.56725   0.00000  Uiso   1.00
H1259  H     0.62416   0.69582   0.62082   0.00000  Uiso   1.00
H1260  H     0.64484   0.74058   0.62231   0.00000  Uiso   1.00
H1261  H     0.60867   0.72925   0.65573   0.00000  Uiso   1.00
H1262  H     0.91606   0.77523   0.39486   0.00000  Uiso   1.00
H1263  H     0.89761   0.74549   0.43215   0.00000  Uiso   1.00
H1264  H     0.87184   0.70502   0.38101   0.00000  Uiso   1.00
H1265  H     0.85536   0.75132   0.37672   0.00000  Uiso   1.00
H1266  H     0.89024   0.73487   0.34414   0.00000  Uiso   1.00
H1267  H     0.67835   0.56767   0.64054   0.00000  Uiso   1.00
H1268  H     0.77193   0.55334   0.47486   0.00000  Uiso   1.00
H1269  H     0.67707   0.52357   0.61880   0.00000  Uiso   1.00
H1270  H     0.65834   0.55191   0.55573   0.00000  Uiso   1.00
H1271  H     0.62796   0.56518   0.59429   0.00000  Uiso   1.00
H1272  H     0.66207   0.59687   0.57712   0.00000  Uiso   1.00
H1273  H     0.68017   0.93138   0.35934   0.00000  Uiso   1.00
H1274  H     0.67675   0.97423   0.38352   0.00000  Uiso   1.00
H1275  H     0.66008   0.94177   0.44508   0.00000  Uiso   1.00
H1276  H     0.62996   0.92920   0.40605   0.00000  Uiso   1.00
H1277  H     0.66561   0.89824   0.42094   0.00000  Uiso   1.00
H1278  H     0.55202   0.72413   0.52530   0.00000  Uiso   1.00
H1279  H     0.94648   0.72803   0.47477   0.00000  Uiso   1.00
H1280  H     0.72238   0.55288   0.52638   0.00000  Uiso   1.00
H1281  H     0.72379   0.94637   0.47374   0.00000  Uiso   1.00
H1282  H     0.62100   0.92583   0.20289   0.00000  Uiso   1.00
H1283  H     0.87849   0.57465   0.79788   0.00000  Uiso   1.00
H1284  H     0.57386   0.62061   0.20318   0.00000  Uiso   1.00
H1285  H     0.80337   0.52681   0.97369   0.00000  Uiso   1.00
H1286  H     0.92898   0.88220   0.79259   0.00000  Uiso   1.00
H1287  H     0.87997   0.57318   0.20409   0.00000  Uiso   1.00
H1288  H     0.62000   0.92684   0.79594   0.00000  Uiso   1.00
H1289  H     0.92617   0.87925   0.20313   0.00000  Uiso   1.00
H1290  H     0.57336   0.62025   0.79613   0.00000  Uiso   1.00
H1291  H     0.62018   0.57340   0.79613   0.00000  Uiso   1.00
H1292  H     0.87937   0.92614   0.20317   0.00000  Uiso   1.00
H1293  H     0.57316   0.88001   0.79594   0.00000  Uiso   1.00
H1294  H     0.92681   0.62002   0.20409   0.00000  Uiso   1.00
H1295  H     0.88215   0.92904   0.79257   0.00000  Uiso   1.00
H1296  H     0.52247   0.69687   0.02514   0.00000  Uiso   1.00
H1297  H     0.62075   0.57382   0.20314   0.00000  Uiso   1.00
H1298  H     0.92535   0.62151   0.79788   0.00000  Uiso   1.00
H1299  H     0.57417   0.87899   0.20289   0.00000  Uiso   1.00
H1300  H     0.87100   0.67583   0.70289   0.00000  Uiso   1.00
H1301  H     0.62850   0.82464   0.29786   0.00000  Uiso   1.00
H1302  H     0.82105   0.86782   0.70731   0.00000  Uiso   1.00
H1303  H     0.67641   0.62964   0.29639   0.00000  Uiso   1.00
H1304  H     0.63008   0.82307   0.70425   0.00000  Uiso   1.00
H1305  H     0.87011   0.67674   0.29609   0.00000  Uiso   1.00
H1306  H     0.67637   0.62945   0.70341   0.00000  Uiso   1.00
H1307  H     0.52255   0.80304   0.97484   0.00000  Uiso   1.00
H1308  H     0.82356   0.87044   0.29639   0.00000  Uiso   1.00
H1309  H     0.87038   0.82360   0.29639   0.00000  Uiso   1.00
H1310  H     0.62959   0.67634   0.70347   0.00000  Uiso   1.00
H1311  H     0.82327   0.62990   0.29609   0.00000  Uiso   1.00
H1312  H     0.67692   0.86991   0.70425   0.00000  Uiso   1.00
H1313  H     0.62956   0.67645   0.29638   0.00000  Uiso   1.00
H1314  H     0.86771   0.82086   0.70756   0.00000  Uiso   1.00
H1315  H     0.67536   0.87150   0.29786   0.00000  Uiso   1.00
H1316  H     0.82417   0.62899   0.70289   0.00000  Uiso   1.00
H1317  H     0.72541   0.57266   0.11878   0.00000  Uiso   1.00
H1318  H     0.80308   0.97743   0.02514   0.00000  Uiso   1.00
H1319  H     0.68127   0.57084   0.14038   0.00000  Uiso   1.00
H1320  H     0.65204   0.58661   0.07682   0.00000  Uiso   1.00
H1321  H     0.68320   0.62119   0.09407   0.00000  Uiso   1.00
H1322  H     0.69703   0.59096   0.05560   0.00000  Uiso   1.00
H1323  H     0.77505   0.57346   0.88339   0.00000  Uiso   1.00
H1324  H     0.81792   0.57040   0.85920   0.00000  Uiso   1.00
H1325  H     0.85096   0.58541   0.92073   0.00000  Uiso   1.00
H1326  H     0.81964   0.62073   0.90580   0.00000  Uiso   1.00
H1327  H     0.80741   0.59054   0.94490   0.00000  Uiso   1.00
H1328  H     0.50706   0.64753   0.06774   0.00000  Uiso   1.00
H1329  H     0.69692   0.97754   0.97483   0.00000  Uiso   1.00
H1330  H     0.97656   0.66515   0.10482   0.00000  Uiso   1.00
H1331  H     0.51727   0.64059   0.15581   0.00000  Uiso   1.00
H1332  H     0.50213   0.60519   0.12315   0.00000  Uiso   1.00
H1333  H     0.54794   0.62309   0.11918   0.00000  Uiso   1.00
H1334  H     0.50750   0.85246   0.93238   0.00000  Uiso   1.00
H1335  H     0.97677   0.83499   0.89546   0.00000  Uiso   1.00
H1336  H     0.51738   0.85942   0.84425   0.00000  Uiso   1.00
H1337  H     0.50256   0.89486   0.87704   0.00000  Uiso   1.00
H1338  H     0.54830   0.87675   0.88071   0.00000  Uiso   1.00
H1339  H     0.83496   0.52325   0.10463   0.00000  Uiso   1.00
H1340  H     0.97318   0.80329   0.02634   0.00000  Uiso   1.00
H1341  H     0.85249   0.99254   0.06769   0.00000  Uiso   1.00
H1342  H     0.87674   0.95176   0.11934   0.00000  Uiso   1.00
H1343  H     0.89482   0.99752   0.12309   0.00000  Uiso   1.00
H1344  H     0.85936   0.98268   0.15581   0.00000  Uiso   1.00
H1345  H     0.66510   0.52340   0.89536   0.00000  Uiso   1.00
H1346  H     0.64755   0.99278   0.93233   0.00000  Uiso   1.00
H1347  H     0.62314   0.95195   0.88074   0.00000  Uiso   1.00
H1348  H     0.60516   0.99773   0.87698   0.00000  Uiso   1.00
H1349  H     0.64056   0.98276   0.84423   0.00000  Uiso   1.00
H1350  H     0.92926   0.81886   0.14036   0.00000  Uiso   1.00
H1351  H     0.97310   0.69666   0.97367   0.00000  Uiso   1.00
H1352  H     0.92737   0.77472   0.11877   0.00000  Uiso   1.00
H1353  H     0.90913   0.80311   0.05558   0.00000  Uiso   1.00
H1354  H     0.87892   0.81701   0.09403   0.00000  Uiso   1.00
H1355  H     0.91356   0.84809   0.07678   0.00000  Uiso   1.00
H1356  H     0.92952   0.68220   0.85916   0.00000  Uiso   1.00
H1357  H     0.92651   0.72506   0.88337   0.00000  Uiso   1.00
H1358  H     0.90937   0.69271   0.94487   0.00000  Uiso   1.00
H1359  H     0.87917   0.68054   0.90575   0.00000  Uiso   1.00
H1360  H     0.91444   0.64916   0.92067   0.00000  Uiso   1.00
H1361  H     0.94295   0.83157   0.57216   0.00000  Uiso   1.00
H1362  H     0.94807   0.77836   0.52616   0.00000  Uiso   1.00
H1363  H     0.97263   0.82835   0.61418   0.00000  Uiso   1.00
H1364  H     0.91868   0.82663   0.65713   0.00000  Uiso   1.00
H1365  H     0.91862   0.86701   0.62726   0.00000  Uiso   1.00
H1366  H     0.88867   0.82936   0.61569   0.00000  Uiso   1.00
H1367  H     0.52675   0.82269   0.38407   0.00000  Uiso   1.00
H1368  H     0.56960   0.81898   0.35996   0.00000  Uiso   1.00
H1369  H     0.60279   0.83261   0.42178   0.00000  Uiso   1.00
H1370  H     0.57231   0.86876   0.40713   0.00000  Uiso   1.00
H1371  H     0.55928   0.83848   0.44585   0.00000  Uiso   1.00
H1372  H     0.75963   0.89769   0.56758   0.00000  Uiso   1.00
O1373  O     0.75000   0.50000   0.25000   0.00000  Uiso   1.00
O1374  O     0.75000   0.96964   0.66317   0.00000  Uiso   1.00
O1375  O     0.96964   0.75000   0.33683   0.00000  Uiso   1.00
O1376  O     0.53036   0.75000   0.66317   0.00000  Uiso   1.00
O1377  O     0.50000   0.71964   0.83683   0.00000  Uiso   1.00
O1378  O     0.50000   0.78036   0.16317   0.00000  Uiso   1.00
O1379  O     0.78036   0.50000   0.83683   0.00000  Uiso   1.00
O1380  O     0.71964   0.50000   0.16317   0.00000  Uiso   1.00
O1381  O     0.50000   0.78036   0.83683   0.00000  Uiso   1.00
O1382  O     0.50000   0.71964   0.16317   0.00000  Uiso   1.00
O1383  O     0.71964   0.50000   0.83683   0.00000  Uiso   1.00
O1384  O     0.75000   0.50000   0.75000   0.00000  Uiso   1.00
O1385  O     0.78036   0.50000   0.16317   0.00000  Uiso   1.00
O1386  O     0.70725   0.57307   0.27282   0.00000  Uiso   1.00
O1387  O     0.79274   0.92693   0.72718   0.00000  Uiso   1.00
O1388  O     0.92693   0.70726   0.27282   0.00000  Uiso   1.00
O1389  O     0.57307   0.79275   0.72718   0.00000  Uiso   1.00
O1390  O     0.79274   0.92693   0.27282   0.00000  Uiso   1.00
O1391  O     0.70725   0.57307   0.72718   0.00000  Uiso   1.00
O1392  O     0.57307   0.79275   0.27282   0.00000  Uiso   1.00
O1393  O     0.92693   0.70726   0.72718   0.00000  Uiso   1.00
O1394  O     0.70725   0.92693   0.72718   0.00000  Uiso   1.00
O1395  O     0.50000   0.75000   0.25000   0.00000  Uiso   1.00
O1396  O     0.79274   0.57307   0.27282   0.00000  Uiso   1.00
O1397  O     0.92693   0.79275   0.72718   0.00000  Uiso   1.00
O1398  O     0.57307   0.70726   0.27282   0.00000  Uiso   1.00
O1399  O     0.79274   0.57307   0.72718   0.00000  Uiso   1.00
O1400  O     0.70725   0.92693   0.27282   0.00000  Uiso   1.00
O1401  O     0.57307   0.70726   0.72718   0.00000  Uiso   1.00
O1402  O     0.92693   0.79275   0.27282   0.00000  Uiso   1.00
O1403  O     0.95725   0.82307   0.77282   0.00000  Uiso   1.00
O1404  O     0.54274   0.67693   0.22718   0.00000  Uiso   1.00
O1405  O     0.67693   0.95726   0.77282   0.00000  Uiso   1.00
O1406  O     0.50000   0.75000   0.75000   0.00000  Uiso   1.00
O1407  O     0.82307   0.54275   0.22718   0.00000  Uiso   1.00
O1408  O     0.54274   0.67693   0.77282   0.00000  Uiso   1.00
O1409  O     0.95725   0.82307   0.22718   0.00000  Uiso   1.00
O1410  O     0.82307   0.54275   0.77282   0.00000  Uiso   1.00
O1411  O     0.67693   0.95726   0.22718   0.00000  Uiso   1.00
O1412  O     0.95725   0.67693   0.22718   0.00000  Uiso   1.00
O1413  O     0.54274   0.82307   0.77282   0.00000  Uiso   1.00
O1414  O     0.67693   0.54275   0.22718   0.00000  Uiso   1.00
O1415  O     0.82307   0.95726   0.77282   0.00000  Uiso   1.00
O1416  O     0.54274   0.82307   0.22718   0.00000  Uiso   1.00
O1417  O     0.75000   0.96964   0.33683   0.00000  Uiso   1.00
O1418  O     0.95725   0.67693   0.77282   0.00000  Uiso   1.00
O1419  O     0.82307   0.95726   0.22718   0.00000  Uiso   1.00
O1420  O     0.67693   0.54275   0.77282   0.00000  Uiso   1.00
O1421  O     0.68986   0.52979   0.10110   0.00000  Uiso   1.00
O1422  O     0.81030   0.52955   0.89891   0.00000  Uiso   1.00
O1423  O     0.52783   0.69032   0.10070   0.00000  Uiso   1.00
O1424  O     0.52793   0.80960   0.89926   0.00000  Uiso   1.00
O1425  O     0.80961   0.97204   0.10072   0.00000  Uiso   1.00
O1426  O     0.69035   0.97217   0.89926   0.00000  Uiso   1.00
O1427  O     0.97031   0.81019   0.10109   0.00000  Uiso   1.00
O1428  O     0.75000   0.53036   0.66317   0.00000  Uiso   1.00
O1429  O     0.97036   0.68974   0.89889   0.00000  Uiso   1.00
O1430  O     0.94166   0.78191   0.60151   0.00000  Uiso   1.00
O1431  O     0.56101   0.77788   0.39916   0.00000  Uiso   1.00
O1432  O     0.77909   0.94095   0.60077   0.00000  Uiso   1.00
O1433  O     0.77722   0.55995   0.39931   0.00000  Uiso   1.00
O1434  O     0.55830   0.71896   0.60112   0.00000  Uiso   1.00
O1435  O     0.93971   0.72328   0.39922   0.00000  Uiso   1.00
O1436  O     0.71945   0.55974   0.60115   0.00000  Uiso   1.00
O1437  O     0.72103   0.93942   0.39896   0.00000  Uiso   1.00
O1438  O     0.53036   0.75000   0.33683   0.00000  Uiso   1.00
O1439  O     0.96964   0.75000   0.66317   0.00000  Uiso   1.00
O1440  O     0.75000   0.53036   0.33683   0.00000  Uiso   1.00
Zn1441 Zn    0.70660   0.50000   0.21760   0.00000  Uiso   1.00
Zn1442 Zn    0.54340   0.75000   0.28240   0.00000  Uiso   1.00
Zn1443 Zn    0.75000   0.95660   0.71760   0.00000  Uiso   1.00
Zn1444 Zn    0.75000   0.54340   0.28240   0.00000  Uiso   1.00
Zn1445 Zn    0.54340   0.75000   0.71760   0.00000  Uiso   1.00
Zn1446 Zn    0.95660   0.75000   0.28240   0.00000  Uiso   1.00
Zn1447 Zn    0.75000   0.54340   0.71760   0.00000  Uiso   1.00
Zn1448 Zn    0.75000   0.95660   0.28240   0.00000  Uiso   1.00
Zn1449 Zn    0.79340   0.50000   0.78240   0.00000  Uiso   1.00
Zn1450 Zn    0.50000   0.70660   0.21760   0.00000  Uiso   1.00
Zn1451 Zn    0.50000   0.79340   0.78240   0.00000  Uiso   1.00
Zn1452 Zn    0.79340   0.50000   0.21760   0.00000  Uiso   1.00
Zn1453 Zn    0.70660   0.50000   0.78240   0.00000  Uiso   1.00
Zn1454 Zn    0.50000   0.79340   0.21760   0.00000  Uiso   1.00
Zn1455 Zn    0.50000   0.70660   0.78240   0.00000  Uiso   1.00
Zn1456 Zn    0.95660   0.75000   0.71760   0.00000  Uiso   1.00
loop_
_geom_bond_atom_site_label_1
_geom_bond_atom_site_label_2
_geom_bond_distance
_geom_bond_site_symmetry_2
_ccdc_geom_bond_type
C1     C62     1.393   .     A
C1     H153    1.084   .     S
C1     C80     1.398   .     A
C2     H154    1.084   .     S
C2     C85     1.397   .     A
C2     C72     1.393   .     A
C3     C128    1.402   .     A
C3     C99     1.455   .     S
C3     C135    1.402   .     A
C4     C127    1.402   .     A
C4     C138    1.402   .     A
C4     C100    1.454   .     S
C5     C126    1.402   .     A
C5     C101    1.454   .     S
C5     C137    1.402   .     A
C6     C125    1.402   .     A
C6     C102    1.455   .     S
C6     C140    1.402   .     A
C7     C103    1.455   .     S
C7     C124    1.401   .     A
C7     C139    1.402   .     A
C8     C123    1.402   .     A
C8     C143    1.402   .     A
C8     C113    1.455   .     S
C9     C114    1.455   .     S
C9     C122    1.402   .     A
C9     C141    1.401   .     A
C10    C106    1.454   .     S
C10    C121    1.402   .     A
C10    C145    1.402   .     A
C11    C119    1.402   .     A
C11    C107    1.454   .     S
C11    C144    1.402   .     A
C12    C108    1.455   .     S
C12    C147    1.402   .     A
C12    C118    1.401   .     A
C13    H165    1.083   .     S
C13    C86     1.397   .     A
C13    C73     1.398   .     A
C14    C117    1.402   .     A
C14    C110    1.455   .     S
C14    C146    1.402   .     A
C15    C149    1.401   .     A
C15    C116    1.402   .     A
C15    C111    1.455   .     S
C16    C115    1.401   .     A
C16    C112    1.455   .     S
C16    C148    1.402   .     A
C17    C96     1.470   .     S
C17    C62     1.416   .     A
C17    C795    1.414   1_545 S
C18    C95     1.470   .     S
C18    C63     1.416   .     A
C18    C796    1.414   1_545 S
C19    C94     1.470   .     S
C19    C69     1.416   .     A
C19    C428    1.414   .     S
C20    C70     1.416   .     A
C20    C93     1.470   .     S
C20    C430    1.414   .     S
C21    C92     1.469   .     S
C21    C75     1.413   .     A
C21    C435    1.413   1_455 S
C22    C91     1.471   .     S
C22    C77     1.414   .     A
C22    C436    1.416   .     S
C23    C90     1.470   .     S
C23    C73     1.413   .     A
C23    C806    1.416   .     S
C24    H176    1.083   .     S
C24    C88     1.397   .     A
C24    C74     1.397   .     A
C25    C74     1.414   .     A
C25    C89     1.471   .     S
C25    C807    1.416   1_545 S
C26    H227    1.111   .     S
C26    H225    1.117   .     S
C26    C27     1.525   .     S
C26    O329    1.417   .     S
C27    H229    1.110   .     S
C27    H230    1.110   .     S
C27    H228    1.111   .     S
C28    H232    1.111   .     S
C28    C29     1.524   .     S
C28    O330    1.417   .     S
C28    H231    1.117   .     S
C29    H233    1.111   .     S
C29    H235    1.110   .     S
C29    H234    1.110   .     S
C30    O331    1.413   .     S
C30    H236    1.112   .     S
C30    C31     1.521   .     S
C30    H602    1.116   1_455 S
C31    H240    1.110   .     S
C31    H239    1.111   .     S
C31    H241    1.111   .     S
C32    O332    1.413   .     S
C32    H242    1.112   .     S
C32    C33     1.521   .     S
C32    H607    1.116   1_455 S
C33    H246    1.111   .     S
C33    H245    1.110   .     S
C33    H244    1.111   .     S
C34    O333    1.413   .     S
C34    H249    1.112   .     S
C34    C36     1.521   .     S
C34    H975    1.116   .     S
C35    C84     1.397   .     A
C35    H186    1.083   .     S
C35    C75     1.398   .     A
C36    H250    1.111   .     S
C36    H252    1.111   .     S
C36    H251    1.110   .     S
C37    C38     1.521   .     S
C37    H254    1.112   .     S
C37    O334    1.413   .     S
C37    H981    1.116   .     S
C38    H256    1.110   .     S
C38    H255    1.111   .     S
C38    H257    1.111   .     S
C39    H260    1.117   .     S
C39    O335    1.417   .     S
C39    C40     1.525   .     S
C39    H258    1.111   .     S
C40    H261    1.110   .     S
C40    H263    1.111   .     S
C40    H262    1.110   .     S
C41    H265    1.117   .     S
C41    O337    1.417   .     S
C41    H264    1.111   .     S
C41    C42     1.524   .     S
C42    H266    1.110   .     S
C42    H267    1.110   .     S
C42    H268    1.111   .     S
C43    H271    1.116   .     S
C43    C44     1.520   .     S
C43    H269    1.114   .     S
C43    O338    1.412   .     S
C44    H274    1.111   .     S
C44    H272    1.109   .     S
C44    H273    1.110   .     S
C45    C47     1.524   .     S
C45    H276    1.111   .     S
C45    H275    1.117   .     S
C45    O339    1.417   .     S
C46    C77     1.397   .     A
C46    H187    1.083   .     S
C46    C449    1.397   .     S
C47    H279    1.110   .     S
C47    H277    1.111   .     S
C47    H278    1.111   .     S
C48    H155    1.116   .     S
C48    H280    1.112   .     S
C48    O340    1.413   .     S
C48    C49     1.521   .     S
C49    H157    1.110   .     S
C49    H156    1.111   .     S
C49    H158    1.111   .     S
C50    H160    1.116   .     S
C50    H159    1.112   .     S
C50    C51     1.522   .     S
C50    O341    1.413   .     S
C51    H162    1.110   .     S
C51    H163    1.111   .     S
C51    H161    1.111   .     S
C52    C53     1.521   .     S
C52    O342    1.413   .     S
C52    H164    1.116   .     S
C52    H166    1.112   .     S
C53    H168    1.110   .     S
C53    H169    1.111   .     S
C53    H167    1.111   .     S
C54    O343    1.413   .     S
C54    C55     1.521   .     S
C54    H170    1.116   .     S
C54    H171    1.113   .     S
C55    H173    1.110   .     S
C55    H172    1.111   .     S
C55    H174    1.111   .     S
C56    C58     1.525   .     S
C56    H177    1.117   .     S
C56    H175    1.111   .     S
C56    O344    1.417   .     S
C57    C78     1.393   .     A
C57    H188    1.084   .     S
C57    C814    1.398   1_545 S
C58    H180    1.111   .     S
C58    H178    1.110   .     S
C58    H179    1.110   .     S
C59    C60     1.524   .     S
C59    H182    1.117   .     S
C59    H181    1.111   .     S
C59    O345    1.417   .     S
C60    H184    1.111   .     S
C60    H185    1.111   .     S
C60    H183    1.110   .     S
C61    H189    1.084   .     S
C61    C79     1.393   .     A
C61    C816    1.398   .     S
C62    O329    1.384   .     S
C63    C65     1.393   .     A
C63    O330    1.384   .     S
C64    O331    1.385   .     S
C64    C76     1.397   .     A
C64    C383    1.414   1_455 S
C65    H193    1.084   .     S
C65    C81     1.398   .     A
C66    O332    1.385   .     S
C66    C87     1.397   .     A
C66    C384    1.414   1_455 S
C67    C98     1.397   .     A
C67    O333    1.385   .     S
C67    C745    1.414   .     S
C68    C109    1.397   .     A
C68    O334    1.385   .     S
C68    C746    1.414   .     S
C69    C120    1.393   .     A
C69    O335    1.384   .     S
C70    O337    1.384   .     S
C70    C131    1.393   .     A
C71    O338    1.383   .     S
C71    C142    1.395   .     A
C71    C385    1.413   .     S
C72    O339    1.384   .     S
C72    C386    1.416   1_455 S
C73    O340    1.385   .     S
C74    O341    1.385   .     S
C75    O342    1.385   .     S
C76    H204    1.083   .     S
C76    C446    1.397   1_455 S
C77    O343    1.385   .     S
C78    O344    1.384   .     S
C78    C751    1.416   1_545 S
C79    O345    1.384   .     S
C79    C753    1.416   .     S
C80    C81     1.464   1_554 S
C80    C826    1.397   1_545 S
C81    C80     1.464   1_556 S
C81    C837    1.397   1_545 S
C82    C120    1.398   .     A
C82    C440    1.397   .     S
C82    C83     1.464   1_554 S
C83    C131    1.398   .     A
C83    C82     1.464   1_556 S
C83    C451    1.397   .     S
C84    C85     1.463   .     S
C84    C506    1.397   1_455 S
C85    C410    1.397   1_455 S
C86    C785    1.398   .     S
C86    C816    1.464   .     S
C87    H215    1.083   .     S
C87    C447    1.397   1_455 S
C88    C789    1.398   1_545 S
C88    C814    1.464   1_545 S
C89    O348    1.282   .     A
C89    O1053   1.283   1_545 S
C90    O282    1.281   .     A
C90    O1064   1.283   .     S
C91    O283    1.282   .     A
C91    O710    1.283   .     S
C92    O284    1.281   .     A
C92    O711    1.283   1_455 S
C93    O649    1.283   .     S
C93    O653    1.282   .     S
C94    O654    1.281   .     A
C94    O650    1.283   .     A
C95    O291    1.282   .     A
C95    O287    1.283   .     A
C96    O293    1.281   .     A
C96    O288    1.283   .     A
C97    O294    1.280   .     A
C97    C152    1.455   .     S
C97    O322    1.279   .     A
C98    H226    1.083   .     S
C98    C808    1.397   .     S
C99    O295    1.280   .     A
C99    O323    1.280   .     A
C100   O296    1.279   .     A
C100   O320    1.279   .     A
C101   O297    1.279   .     A
C101   O321    1.279   .     A
C102   O327    1.280   .     A
C102   O298    1.280   .     A
C103   O299    1.279   .     A
C103   O328    1.280   .     A
C104   O300    1.280   .     A
C104   O324    1.280   .     A
C104   C150    1.455   .     S
C105   C151    1.455   .     S
C105   O301    1.280   .     A
C105   O326    1.280   .     A
C106   O313    1.279   .     A
C106   O302    1.279   .     A
C107   O315    1.279   .     A
C107   O304    1.279   .     A
C108   O311    1.280   .     A
C108   O305    1.279   .     A
C109   H237    1.083   .     S
C109   C809    1.397   .     S
C110   O312    1.280   .     A
C110   O306    1.280   .     A
C111   O307    1.280   .     A
C111   O318    1.280   .     A
C112   O319    1.280   .     A
C112   O308    1.280   .     A
C113   O309    1.280   .     A
C113   O316    1.280   .     A
C114   O317    1.279   .     A
C114   O310    1.280   .     A
C115   C132    1.386   .     A
C115   H190    1.083   .     S
C116   C130    1.386   .     A
C116   H191    1.083   .     S
C117   H192    1.083   .     S
C117   C129    1.386   .     A
C118   H194    1.083   .     S
C118   C128    1.386   .     A
C119   H195    1.083   .     S
C119   C127    1.386   .     A
C120   H248    1.084   .     S
C121   H196    1.083   .     S
C121   C126    1.386   .     A
C122   C125    1.386   .     A
C122   H197    1.083   .     S
C123   H198    1.083   .     S
C123   C124    1.386   .     A
C124   H199    1.083   .     S
C125   H200    1.083   .     S
C126   H201    1.083   .     S
C127   H202    1.083   .     S
C128   H203    1.083   .     S
C129   C152    1.402   .     A
C129   H205    1.083   .     S
C130   H206    1.083   .     S
C130   C151    1.402   .     A
C131   H259    1.084   .     S
C132   C150    1.401   .     A
C132   H207    1.083   .     S
C133   C151    1.401   .     A
C133   H208    1.083   .     S
C133   C149    1.386   .     A
C134   H209    1.083   .     S
C134   C150    1.402   .     A
C134   C148    1.386   .     A
C135   H210    1.083   .     S
C135   C147    1.386   .     A
C136   C152    1.401   .     A
C136   C146    1.386   .     A
C136   H211    1.083   .     S
C137   H212    1.083   .     S
C137   C145    1.386   .     A
C138   C144    1.386   .     A
C138   H213    1.083   .     S
C139   C143    1.386   .     A
C139   H214    1.083   .     S
C140   C141    1.386   .     A
C140   H216    1.083   .     S
C141   H217    1.083   .     S
C142   H270    1.084   .     S
C142   C448    1.397   .     S
C143   H218    1.083   .     S
C144   H219    1.083   .     S
C145   H220    1.083   .     S
C146   H221    1.083   .     S
C147   H222    1.083   .     S
C148   H223    1.083   .     S
C149   H224    1.083   .     S
H238   C394    1.116   .     S
H243   C396    1.116   .     S
H247   C762    1.116   1_545 S
H253   C765    1.116   1_545 S
O281   Zn352   1.945   .     S
O281   Zn349   1.946   .     S
O281   Zn360   1.945   .     S
O281   Zn1084  1.946   1_545 S
O282   Zn351   1.942   .     S
O283   Zn354   1.941   .     S
O284   Zn353   1.941   .     S
O285   C457    1.283   1_455 S
O285   Zn363   1.941   .     S
O286   Zn362   1.941   .     S
O286   C458    1.283   1_455 A
O287   Zn357   1.941   .     S
O288   Zn349   1.941   .     S
O289   Zn359   1.942   .     S
O289   C457    1.282   1_455 S
O290   C458    1.281   1_455 A
O290   Zn358   1.942   .     S
O291   Zn361   1.941   .     S
O292   Zn361   1.945   .     S
O292   Zn355   1.946   .     S
O292   Zn357   1.946   .     S
O292   Zn1079  1.945   1_545 S
O293   Zn360   1.941   .     S
O294   Zn352   1.936   .     S
O295   Zn351   1.936   .     S
O296   Zn354   1.935   .     S
O297   Zn353   1.935   .     S
O298   Zn356   1.936   .     S
O299   Zn355   1.936   .     S
O300   Zn350   1.936   .     S
O301   Zn364   1.936   .     S
O302   Zn351   1.936   .     S
O303   Zn718   1.945   1_455 S
O303   Zn358   1.945   .     S
O303   Zn362   1.946   .     S
O303   Zn350   1.946   .     S
O304   Zn352   1.936   .     S
O305   Zn364   1.936   .     S
O306   Zn350   1.936   .     S
O307   Zn355   1.936   .     S
O308   Zn356   1.936   .     S
O309   Zn353   1.936   .     S
O310   Zn354   1.936   .     S
O311   Zn723   1.936   .     S
O312   Zn358   1.936   .     S
O313   Zn1089  1.935   .     S
O314   Zn728   1.946   1_455 S
O314   Zn363   1.946   .     S
O314   Zn353   1.945   .     S
O314   Zn359   1.945   .     S
O315   Zn360   1.935   .     S
O316   Zn363   1.936   .     S
O317   Zn726   1.936   .     S
O318   Zn357   1.936   .     S
O319   Zn1077  1.936   .     S
O320   Zn722   1.936   .     S
O321   Zn359   1.936   .     S
O322   Zn349   1.936   .     S
O323   Zn1085  1.936   .     S
O324   Zn362   1.936   .     S
O325   Zn356   1.941   .     S
O325   C817    1.283   .     S
O326   Zn727   1.936   .     S
O327   Zn1088  1.936   .     S
O328   Zn361   1.936   .     S
O336   Zn355   1.941   .     S
O336   C818    1.283   1_545 S
O346   Zn350   1.941   .     S
O346   C455    1.283   1_455 S
O347   Zn364   1.941   .     S
O347   C456    1.283   .     S
O348   Zn352   1.942   .     S
Zn349  O1047   1.936   1_545 S
Zn351  O1020   1.945   .     S
Zn354  O667    1.945   .     S
Zn356  O1009   1.946   .     S
Zn357  O1051   1.936   1_545 S
Zn358  O684    1.936   1_455 S
Zn359  O675    1.936   1_455 S
Zn360  O1055   1.936   1_545 S
Zn361  O1041   1.935   1_545 S
Zn362  O681    1.936   1_455 S
Zn363  O690    1.936   1_455 S
Zn364  O678    1.946   .     S
C365   C426    1.393   .     A
C365   H517    1.084   .     S
C365   C444    1.398   .     A
C366   H518    1.084   .     S
C366   C449    1.397   .     A
C366   C436    1.393   .     A
C367   C492    1.402   .     A
C367   C463    1.455   .     S
C367   C499    1.402   .     A
C368   C491    1.402   .     A
C368   C502    1.402   .     A
C368   C464    1.454   .     S
C369   C490    1.402   .     A
C369   C465    1.454   .     S
C369   C501    1.402   .     A
C370   C489    1.402   .     A
C370   C466    1.455   .     S
C370   C504    1.402   .     A
C371   C467    1.455   .     S
C371   C488    1.401   .     A
C371   C503    1.402   .     A
C372   C487    1.402   .     A
C372   C507    1.402   .     A
C372   C477    1.455   .     S
C373   C478    1.455   .     S
C373   C486    1.402   .     A
C373   C505    1.401   .     A
C374   C470    1.454   .     S
C374   C485    1.402   .     A
C374   C509    1.402   .     A
C375   C483    1.402   .     A
C375   C471    1.454   .     S
C375   C508    1.402   .     A
C376   C472    1.455   .     S
C376   C511    1.402   .     A
C376   C482    1.401   .     A
C377   H529    1.083   .     S
C377   C450    1.397   .     A
C377   C437    1.398   .     A
C378   C481    1.402   .     A
C378   C474    1.455   .     S
C378   C510    1.402   .     A
C379   C513    1.401   .     A
C379   C480    1.402   .     A
C379   C475    1.455   .     S
C380   C479    1.401   .     A
C380   C476    1.455   .     S
C380   C512    1.402   .     A
C381   C460    1.470   .     S
C381   C426    1.416   .     A
C381   C1159   1.414   1_545 S
C382   C459    1.470   .     S
C382   C427    1.416   .     A
C382   C1160   1.414   1_545 S
C383   C458    1.470   .     S
C383   C433    1.416   .     A
C383   C64     1.414   1_655 S
C384   C434    1.416   .     A
C384   C457    1.470   .     S
C384   C66     1.414   1_655 S
C385   C456    1.469   .     S
C385   C439    1.413   .     A
C386   C455    1.471   .     S
C386   C441    1.414   .     A
C386   C72     1.416   1_655 S
C387   C454    1.470   .     S
C387   C437    1.413   .     A
C387   C1170   1.416   .     S
C388   H540    1.083   .     S
C388   C452    1.397   .     A
C388   C438    1.397   .     A
C389   C438    1.414   .     A
C389   C453    1.471   .     S
C389   C1171   1.416   1_545 S
C390   H591    1.111   .     S
C390   H589    1.117   .     S
C390   C391    1.525   .     S
C390   O693    1.417   .     S
C391   H593    1.110   .     S
C391   H594    1.110   .     S
C391   H592    1.111   .     S
C392   H596    1.111   .     S
C392   C393    1.524   .     S
C392   O694    1.417   .     S
C392   H595    1.117   .     S
C393   H597    1.111   .     S
C393   H599    1.110   .     S
C393   H598    1.110   .     S
C394   O695    1.413   .     S
C394   H600    1.112   .     S
C394   C395    1.521   .     S
C395   H604    1.110   .     S
C395   H603    1.111   .     S
C395   H605    1.111   .     S
C396   O696    1.413   .     S
C396   H606    1.112   .     S
C396   C397    1.521   .     S
C397   H610    1.111   .     S
C397   H609    1.110   .     S
C397   H608    1.111   .     S
C398   O697    1.413   .     S
C398   H613    1.112   .     S
C398   C400    1.521   .     S
C398   H1339   1.116   .     S
C399   C448    1.397   .     A
C399   H550    1.083   .     S
C399   C439    1.398   .     A
C400   H614    1.111   .     S
C400   H616    1.111   .     S
C400   H615    1.110   .     S
C401   C402    1.521   .     S
C401   H618    1.112   .     S
C401   O698    1.413   .     S
C401   H1345   1.116   .     S
C402   H620    1.110   .     S
C402   H619    1.111   .     S
C402   H621    1.111   .     S
C403   H624    1.117   .     S
C403   O699    1.417   .     S
C403   C404    1.525   .     S
C403   H622    1.111   .     S
C404   H625    1.110   .     S
C404   H627    1.111   .     S
C404   H626    1.110   .     S
C405   H629    1.117   .     S
C405   O701    1.417   .     S
C405   H628    1.111   .     S
C405   C406    1.524   .     S
C406   H630    1.110   .     S
C406   H631    1.110   .     S
C406   H632    1.111   .     S
C407   H635    1.116   .     S
C407   C408    1.520   .     S
C407   H633    1.114   .     S
C407   O702    1.412   .     S
C408   H638    1.111   .     S
C408   H636    1.109   .     S
C408   H637    1.110   .     S
C409   C411    1.524   .     S
C409   H640    1.111   .     S
C409   H639    1.117   .     S
C409   O703    1.417   .     S
C410   C441    1.397   .     A
C410   H551    1.083   .     S
C410   C85     1.397   1_655 S
C411   H643    1.110   .     S
C411   H641    1.111   .     S
C411   H642    1.111   .     S
C412   H519    1.116   .     S
C412   H644    1.112   .     S
C412   O704    1.413   .     S
C412   C413    1.521   .     S
C413   H521    1.110   .     S
C413   H520    1.111   .     S
C413   H522    1.111   .     S
C414   H524    1.116   .     S
C414   H523    1.112   .     S
C414   C415    1.522   .     S
C414   O705    1.413   .     S
C415   H526    1.110   .     S
C415   H527    1.111   .     S
C415   H525    1.111   .     S
C416   C417    1.521   .     S
C416   O706    1.413   .     S
C416   H528    1.116   .     S
C416   H530    1.112   .     S
C417   H532    1.110   .     S
C417   H533    1.111   .     S
C417   H531    1.111   .     S
C418   O707    1.413   .     S
C418   C419    1.521   .     S
C418   H534    1.116   .     S
C418   H535    1.113   .     S
C419   H537    1.110   .     S
C419   H536    1.111   .     S
C419   H538    1.111   .     S
C420   C422    1.525   .     S
C420   H541    1.117   .     S
C420   H539    1.111   .     S
C420   O708    1.417   .     S
C421   C442    1.393   .     A
C421   H552    1.084   .     S
C421   C1178   1.398   1_545 S
C422   H544    1.111   .     S
C422   H542    1.110   .     S
C422   H543    1.110   .     S
C423   C424    1.524   .     S
C423   H546    1.117   .     S
C423   H545    1.111   .     S
C423   O709    1.417   .     S
C424   H548    1.111   .     S
C424   H549    1.111   .     S
C424   H547    1.110   .     S
C425   H553    1.084   .     S
C425   C443    1.393   .     A
C425   C1180   1.398   .     S
C426   O693    1.384   .     S
C427   C429    1.393   .     A
C427   O694    1.384   .     S
C428   O695    1.385   .     S
C428   C440    1.397   .     A
C429   H557    1.084   .     S
C429   C445    1.398   .     A
C430   O696    1.385   .     S
C430   C451    1.397   .     A
C431   C462    1.397   .     A
C431   O697    1.385   .     S
C431   C1109   1.414   .     S
C432   C473    1.397   .     A
C432   O698    1.385   .     S
C432   C1110   1.414   .     S
C433   C484    1.393   .     A
C433   O699    1.384   .     S
C434   O701    1.384   .     S
C434   C495    1.393   .     A
C435   O702    1.383   .     S
C435   C506    1.395   .     A
C435   C21     1.413   1_655 S
C436   O703    1.384   .     S
C437   O704    1.385   .     S
C438   O705    1.385   .     S
C439   O706    1.385   .     S
C440   H568    1.083   .     S
C441   O707    1.385   .     S
C442   O708    1.384   .     S
C442   C1115   1.416   1_545 S
C443   O709    1.384   .     S
C443   C1117   1.416   .     S
C444   C445    1.464   1_554 S
C444   C1190   1.397   1_545 S
C445   C444    1.464   1_556 S
C445   C1201   1.397   1_545 S
C446   C484    1.398   .     A
C446   C76     1.397   1_655 S
C446   C447    1.464   1_554 S
C447   C495    1.398   .     A
C447   C446    1.464   1_556 S
C447   C87     1.397   1_655 S
C448   C449    1.463   .     S
C450   C1149   1.398   .     S
C450   C1180   1.464   .     S
C451   H579    1.083   .     S
C452   C1153   1.398   1_545 S
C452   C1178   1.464   1_545 S
C453   O712    1.282   .     A
C453   O1417   1.283   1_545 S
C454   O646    1.281   .     A
C454   O1428   1.283   .     S
C455   O647    1.282   .     A
C455   O346    1.283   1_655 S
C456   O648    1.281   .     A
C457   O285    1.283   1_655 S
C457   O289    1.282   1_655 S
C458   O290    1.281   1_655 A
C458   O286    1.283   1_655 A
C459   O655    1.282   .     A
C459   O651    1.283   .     A
C460   O657    1.281   .     A
C460   O652    1.283   .     A
C461   O658    1.280   .     A
C461   C516    1.455   .     S
C461   O686    1.279   .     A
C462   H590    1.083   .     S
C462   C1172   1.397   .     S
C463   O659    1.280   .     A
C463   O687    1.280   .     A
C464   O660    1.279   .     A
C464   O684    1.279   .     A
C465   O661    1.279   .     A
C465   O685    1.279   .     A
C466   O691    1.280   .     A
C466   O662    1.280   .     A
C467   O663    1.279   .     A
C467   O692    1.280   .     A
C468   O664    1.280   .     A
C468   O688    1.280   .     A
C468   C514    1.455   .     S
C469   C515    1.455   .     S
C469   O665    1.280   .     A
C469   O690    1.280   .     A
C470   O677    1.279   .     A
C470   O666    1.279   .     A
C471   O679    1.279   .     A
C471   O668    1.279   .     A
C472   O675    1.280   .     A
C472   O669    1.279   .     A
C473   H601    1.083   .     S
C473   C1173   1.397   .     S
C474   O676    1.280   .     A
C474   O670    1.280   .     A
C475   O671    1.280   .     A
C475   O682    1.280   .     A
C476   O683    1.280   .     A
C476   O672    1.280   .     A
C477   O673    1.280   .     A
C477   O680    1.280   .     A
C478   O681    1.279   .     A
C478   O674    1.280   .     A
C479   C496    1.386   .     A
C479   H554    1.083   .     S
C480   C494    1.386   .     A
C480   H555    1.083   .     S
C481   H556    1.083   .     S
C481   C493    1.386   .     A
C482   H558    1.083   .     S
C482   C492    1.386   .     A
C483   H559    1.083   .     S
C483   C491    1.386   .     A
C484   H612    1.084   .     S
C485   H560    1.083   .     S
C485   C490    1.386   .     A
C486   C489    1.386   .     A
C486   H561    1.083   .     S
C487   H562    1.083   .     S
C487   C488    1.386   .     A
C488   H563    1.083   .     S
C489   H564    1.083   .     S
C490   H565    1.083   .     S
C491   H566    1.083   .     S
C492   H567    1.083   .     S
C493   C516    1.402   .     A
C493   H569    1.083   .     S
C494   H570    1.083   .     S
C494   C515    1.402   .     A
C495   H623    1.084   .     S
C496   C514    1.401   .     A
C496   H571    1.083   .     S
C497   C515    1.401   .     A
C497   H572    1.083   .     S
C497   C513    1.386   .     A
C498   H573    1.083   .     S
C498   C514    1.402   .     A
C498   C512    1.386   .     A
C499   H574    1.083   .     S
C499   C511    1.386   .     A
C500   C516    1.401   .     A
C500   C510    1.386   .     A
C500   H575    1.083   .     S
C501   H576    1.083   .     S
C501   C509    1.386   .     A
C502   C508    1.386   .     A
C502   H577    1.083   .     S
C503   C507    1.386   .     A
C503   H578    1.083   .     S
C504   C505    1.386   .     A
C504   H580    1.083   .     S
C505   H581    1.083   .     S
C506   H634    1.084   .     S
C506   C84     1.397   1_655 S
C507   H582    1.083   .     S
C508   H583    1.083   .     S
C509   H584    1.083   .     S
C510   H585    1.083   .     S
C511   H586    1.083   .     S
C512   H587    1.083   .     S
C513   H588    1.083   .     S
H602   C30     1.116   1_655 S
H607   C32     1.116   1_655 S
H611   C1126   1.116   1_545 S
H617   C1129   1.116   1_545 S
O645   Zn716   1.945   .     S
O645   Zn713   1.946   .     S
O645   Zn724   1.945   .     S
O645   Zn1448  1.946   1_545 S
O646   Zn715   1.942   .     S
O647   Zn718   1.941   .     S
O648   Zn717   1.941   .     S
O649   Zn727   1.941   .     S
O650   Zn726   1.941   .     S
O651   Zn721   1.941   .     S
O652   Zn713   1.941   .     S
O653   Zn723   1.942   .     S
O654   Zn722   1.942   .     S
O655   Zn725   1.941   .     S
O656   Zn725   1.945   .     S
O656   Zn719   1.946   .     S
O656   Zn721   1.946   .     S
O656   Zn1443  1.945   1_545 S
O657   Zn724   1.941   .     S
O658   Zn716   1.936   .     S
O659   Zn715   1.936   .     S
O660   Zn718   1.935   .     S
O661   Zn717   1.935   .     S
O662   Zn720   1.936   .     S
O663   Zn719   1.936   .     S
O664   Zn714   1.936   .     S
O665   Zn728   1.936   .     S
O666   Zn715   1.936   .     S
O667   Zn722   1.945   .     S
O667   Zn726   1.946   .     S
O667   Zn714   1.946   .     S
O668   Zn716   1.936   .     S
O669   Zn728   1.936   .     S
O670   Zn714   1.936   .     S
O671   Zn719   1.936   .     S
O672   Zn720   1.936   .     S
O673   Zn717   1.936   .     S
O674   Zn718   1.936   .     S
O675   Zn359   1.936   1_655 S
O676   Zn722   1.936   .     S
O677   Zn1453  1.935   .     S
O678   Zn727   1.946   .     S
O678   Zn717   1.945   .     S
O678   Zn723   1.945   .     S
O679   Zn724   1.935   .     S
O680   Zn727   1.936   .     S
O681   Zn362   1.936   1_655 S
O682   Zn721   1.936   .     S
O683   Zn1441  1.936   .     S
O684   Zn358   1.936   1_655 S
O685   Zn723   1.936   .     S
O686   Zn713   1.936   .     S
O687   Zn1449  1.936   .     S
O688   Zn726   1.936   .     S
O689   Zn720   1.941   .     S
O689   C1181   1.283   .     S
O690   Zn363   1.936   1_655 S
O691   Zn1452  1.936   .     S
O692   Zn725   1.936   .     S
O700   Zn719   1.941   .     S
O700   C1182   1.283   1_545 S
O710   Zn714   1.941   .     S
O711   Zn728   1.941   .     S
O711   C92     1.283   1_655 S
O712   Zn716   1.942   .     S
Zn713  O1411   1.936   1_545 S
Zn715  O1384   1.945   .     S
Zn718  O303    1.945   1_655 S
Zn720  O1373   1.946   .     S
Zn721  O1415   1.936   1_545 S
Zn724  O1419   1.936   1_545 S
Zn725  O1405   1.935   1_545 S
Zn728  O314    1.946   1_655 S
C729   C790    1.393   .     A
C729   H881    1.084   .     S
C729   C808    1.398   .     A
C730   H882    1.084   .     S
C730   C813    1.397   .     A
C730   C800    1.393   .     A
C731   C856    1.402   .     A
C731   C827    1.455   .     S
C731   C863    1.402   .     A
C732   C855    1.402   .     A
C732   C866    1.402   .     A
C732   C828    1.454   .     S
C733   C854    1.402   .     A
C733   C829    1.454   .     S
C733   C865    1.402   .     A
C734   C853    1.402   .     A
C734   C830    1.455   .     S
C734   C868    1.402   .     A
C735   C831    1.455   .     S
C735   C852    1.401   .     A
C735   C867    1.402   .     A
C736   C851    1.402   .     A
C736   C871    1.402   .     A
C736   C841    1.455   .     S
C737   C842    1.455   .     S
C737   C850    1.402   .     A
C737   C869    1.401   .     A
C738   C834    1.454   .     S
C738   C849    1.402   .     A
C738   C873    1.402   .     A
C739   C847    1.402   .     A
C739   C835    1.454   .     S
C739   C872    1.402   .     A
C740   C836    1.455   .     S
C740   C875    1.402   .     A
C740   C846    1.401   .     A
C741   H893    1.083   .     S
C741   C814    1.397   .     A
C741   C801    1.398   .     A
C742   C845    1.402   .     A
C742   C838    1.455   .     S
C742   C874    1.402   .     A
C743   C877    1.401   .     A
C743   C844    1.402   .     A
C743   C839    1.455   .     S
C744   C843    1.401   .     A
C744   C840    1.455   .     S
C744   C876    1.402   .     A
C745   C824    1.470   .     S
C745   C790    1.416   .     A
C746   C823    1.470   .     S
C746   C791    1.416   .     A
C747   C822    1.470   .     S
C747   C797    1.416   .     A
C747   C1156   1.414   .     S
C748   C798    1.416   .     A
C748   C821    1.470   .     S
C748   C1158   1.414   .     S
C749   C820    1.469   .     S
C749   C803    1.413   .     A
C749   C1163   1.413   1_455 S
C750   C819    1.471   .     S
C750   C805    1.414   .     A
C750   C1164   1.416   .     S
C751   C818    1.470   .     S
C751   C801    1.413   .     A
C751   C78     1.416   1_565 S
C752   H904    1.083   .     S
C752   C816    1.397   .     A
C752   C802    1.397   .     A
C753   C802    1.414   .     A
C753   C817    1.471   .     S
C754   H955    1.111   .     S
C754   H953    1.117   .     S
C754   C755    1.525   .     S
C754   O1057   1.417   .     S
C755   H957    1.110   .     S
C755   H958    1.110   .     S
C755   H956    1.111   .     S
C756   H960    1.111   .     S
C756   C757    1.524   .     S
C756   O1058   1.417   .     S
C756   H959    1.117   .     S
C757   H961    1.111   .     S
C757   H963    1.110   .     S
C757   H962    1.110   .     S
C758   O1059   1.413   .     S
C758   H964    1.112   .     S
C758   C759    1.521   .     S
C758   H1330   1.116   1_455 S
C759   H968    1.110   .     S
C759   H967    1.111   .     S
C759   H969    1.111   .     S
C760   O1060   1.413   .     S
C760   H970    1.112   .     S
C760   C761    1.521   .     S
C760   H1335   1.116   1_455 S
C761   H974    1.111   .     S
C761   H973    1.110   .     S
C761   H972    1.111   .     S
C762   O1061   1.413   .     S
C762   H977    1.112   .     S
C762   C764    1.521   .     S
C762   H247    1.116   1_565 S
C763   C812    1.397   .     A
C763   H914    1.083   .     S
C763   C803    1.398   .     A
C764   H978    1.111   .     S
C764   H980    1.111   .     S
C764   H979    1.110   .     S
C765   C766    1.521   .     S
C765   H982    1.112   .     S
C765   O1062   1.413   .     S
C765   H253    1.116   1_565 S
C766   H984    1.110   .     S
C766   H983    1.111   .     S
C766   H985    1.111   .     S
C767   H988    1.117   .     S
C767   O1063   1.417   .     S
C767   C768    1.525   .     S
C767   H986    1.111   .     S
C768   H989    1.110   .     S
C768   H991    1.111   .     S
C768   H990    1.110   .     S
C769   H993    1.117   .     S
C769   O1065   1.417   .     S
C769   H992    1.111   .     S
C769   C770    1.524   .     S
C770   H994    1.110   .     S
C770   H995    1.110   .     S
C770   H996    1.111   .     S
C771   H999    1.116   .     S
C771   C772    1.520   .     S
C771   H997    1.114   .     S
C771   O1066   1.412   .     S
C772   H1002   1.111   .     S
C772   H1000   1.109   .     S
C772   H1001   1.110   .     S
C773   C775    1.524   .     S
C773   H1004   1.111   .     S
C773   H1003   1.117   .     S
C773   O1067   1.417   .     S
C774   C805    1.397   .     A
C774   H915    1.083   .     S
C774   C1177   1.397   .     S
C775   H1007   1.110   .     S
C775   H1005   1.111   .     S
C775   H1006   1.111   .     S
C776   H883    1.116   .     S
C776   H1008   1.112   .     S
C776   O1068   1.413   .     S
C776   C777    1.521   .     S
C777   H885    1.110   .     S
C777   H884    1.111   .     S
C777   H886    1.111   .     S
C778   H888    1.116   .     S
C778   H887    1.112   .     S
C778   C779    1.522   .     S
C778   O1069   1.413   .     S
C779   H890    1.110   .     S
C779   H891    1.111   .     S
C779   H889    1.111   .     S
C780   C781    1.521   .     S
C780   O1070   1.413   .     S
C780   H892    1.116   .     S
C780   H894    1.112   .     S
C781   H896    1.110   .     S
C781   H897    1.111   .     S
C781   H895    1.111   .     S
C782   O1071   1.413   .     S
C782   C783    1.521   .     S
C782   H898    1.116   .     S
C782   H899    1.113   .     S
C783   H901    1.110   .     S
C783   H900    1.111   .     S
C783   H902    1.111   .     S
C784   C786    1.525   .     S
C784   H905    1.117   .     S
C784   H903    1.111   .     S
C784   O1072   1.417   .     S
C785   C806    1.393   .     A
C785   H916    1.084   .     S
C786   H908    1.111   .     S
C786   H906    1.110   .     S
C786   H907    1.110   .     S
C787   C788    1.524   .     S
C787   H910    1.117   .     S
C787   H909    1.111   .     S
C787   O1073   1.417   .     S
C788   H912    1.111   .     S
C788   H913    1.111   .     S
C788   H911    1.110   .     S
C789   H917    1.084   .     S
C789   C807    1.393   .     A
C789   C88     1.398   1_565 S
C790   O1057   1.384   .     S
C791   C793    1.393   .     A
C791   O1058   1.384   .     S
C792   O1059   1.385   .     S
C792   C804    1.397   .     A
C792   C1111   1.414   1_455 S
C793   H921    1.084   .     S
C793   C809    1.398   .     A
C794   O1060   1.385   .     S
C794   C815    1.397   .     A
C794   C1112   1.414   1_455 S
C795   C826    1.397   .     A
C795   O1061   1.385   .     S
C795   C17     1.414   1_565 S
C796   C837    1.397   .     A
C796   O1062   1.385   .     S
C796   C18     1.414   1_565 S
C797   C848    1.393   .     A
C797   O1063   1.384   .     S
C798   O1065   1.384   .     S
C798   C859    1.393   .     A
C799   O1066   1.383   .     S
C799   C870    1.395   .     A
C799   C1113   1.413   .     S
C800   O1067   1.384   .     S
C800   C1114   1.416   1_455 S
C801   O1068   1.385   .     S
C802   O1069   1.385   .     S
C803   O1070   1.385   .     S
C804   H932    1.083   .     S
C804   C1174   1.397   1_455 S
C805   O1071   1.385   .     S
C806   O1072   1.384   .     S
C807   O1073   1.384   .     S
C807   C25     1.416   1_565 S
C808   C809    1.464   1_554 S
C809   C808    1.464   1_556 S
C810   C848    1.398   .     A
C810   C1168   1.397   .     S
C810   C811    1.464   1_554 S
C811   C859    1.398   .     A
C811   C810    1.464   1_556 S
C811   C1179   1.397   .     S
C812   C813    1.463   .     S
C812   C1234   1.397   1_455 S
C813   C1138   1.397   1_455 S
C814   C57     1.398   1_565 S
C814   C88     1.464   1_565 S
C815   H943    1.083   .     S
C815   C1175   1.397   1_455 S
C817   O1076   1.282   .     A
C818   O1010   1.281   .     A
C818   O336    1.283   1_565 S
C819   O1011   1.282   .     A
C819   O1438   1.283   .     S
C820   O1012   1.281   .     A
C820   O1439   1.283   1_455 S
C821   O1377   1.283   .     S
C821   O1381   1.282   .     S
C822   O1382   1.281   .     A
C822   O1378   1.283   .     A
C823   O1019   1.282   .     A
C823   O1015   1.283   .     A
C824   O1021   1.281   .     A
C824   O1016   1.283   .     A
C825   O1022   1.280   .     A
C825   C880    1.455   .     S
C825   O1050   1.279   .     A
C826   H954    1.083   .     S
C826   C80     1.397   1_565 S
C827   O1023   1.280   .     A
C827   O1051   1.280   .     A
C828   O1024   1.279   .     A
C828   O1048   1.279   .     A
C829   O1025   1.279   .     A
C829   O1049   1.279   .     A
C830   O1055   1.280   .     A
C830   O1026   1.280   .     A
C831   O1027   1.279   .     A
C831   O1056   1.280   .     A
C832   O1028   1.280   .     A
C832   O1052   1.280   .     A
C832   C878    1.455   .     S
C833   C879    1.455   .     S
C833   O1029   1.280   .     A
C833   O1054   1.280   .     A
C834   O1041   1.279   .     A
C834   O1030   1.279   .     A
C835   O1043   1.279   .     A
C835   O1032   1.279   .     A
C836   O1039   1.280   .     A
C836   O1033   1.279   .     A
C837   H965    1.083   .     S
C837   C81     1.397   1_565 S
C838   O1040   1.280   .     A
C838   O1034   1.280   .     A
C839   O1035   1.280   .     A
C839   O1046   1.280   .     A
C840   O1047   1.280   .     A
C840   O1036   1.280   .     A
C841   O1037   1.280   .     A
C841   O1044   1.280   .     A
C842   O1045   1.279   .     A
C842   O1038   1.280   .     A
C843   C860    1.386   .     A
C843   H918    1.083   .     S
C844   C858    1.386   .     A
C844   H919    1.083   .     S
C845   H920    1.083   .     S
C845   C857    1.386   .     A
C846   H922    1.083   .     S
C846   C856    1.386   .     A
C847   H923    1.083   .     S
C847   C855    1.386   .     A
C848   H976    1.084   .     S
C849   H924    1.083   .     S
C849   C854    1.386   .     A
C850   C853    1.386   .     A
C850   H925    1.083   .     S
C851   H926    1.083   .     S
C851   C852    1.386   .     A
C852   H927    1.083   .     S
C853   H928    1.083   .     S
C854   H929    1.083   .     S
C855   H930    1.083   .     S
C856   H931    1.083   .     S
C857   C880    1.402   .     A
C857   H933    1.083   .     S
C858   H934    1.083   .     S
C858   C879    1.402   .     A
C859   H987    1.084   .     S
C860   C878    1.401   .     A
C860   H935    1.083   .     S
C861   C879    1.401   .     A
C861   H936    1.083   .     S
C861   C877    1.386   .     A
C862   H937    1.083   .     S
C862   C878    1.402   .     A
C862   C876    1.386   .     A
C863   H938    1.083   .     S
C863   C875    1.386   .     A
C864   C880    1.401   .     A
C864   C874    1.386   .     A
C864   H939    1.083   .     S
C865   H940    1.083   .     S
C865   C873    1.386   .     A
C866   C872    1.386   .     A
C866   H941    1.083   .     S
C867   C871    1.386   .     A
C867   H942    1.083   .     S
C868   C869    1.386   .     A
C868   H944    1.083   .     S
C869   H945    1.083   .     S
C870   H998    1.084   .     S
C870   C1176   1.397   .     S
C871   H946    1.083   .     S
C872   H947    1.083   .     S
C873   H948    1.083   .     S
C874   H949    1.083   .     S
C875   H950    1.083   .     S
C876   H951    1.083   .     S
C877   H952    1.083   .     S
H966   C1122   1.116   .     S
H971   C1124   1.116   .     S
O1009  Zn1080  1.945   .     S
O1009  Zn1077  1.946   .     S
O1009  Zn1088  1.945   .     S
O1010  Zn1079  1.942   .     S
O1011  Zn1082  1.941   .     S
O1012  Zn1081  1.941   .     S
O1013  C1185   1.283   1_455 S
O1013  Zn1091  1.941   .     S
O1014  Zn1090  1.941   .     S
O1014  C1186   1.283   1_455 A
O1015  Zn1085  1.941   .     S
O1016  Zn1077  1.941   .     S
O1017  Zn1087  1.942   .     S
O1017  C1185   1.282   1_455 S
O1018  C1186   1.281   1_455 A
O1018  Zn1086  1.942   .     S
O1019  Zn1089  1.941   .     S
O1020  Zn1089  1.945   .     S
O1020  Zn1083  1.946   .     S
O1020  Zn1085  1.946   .     S
O1021  Zn1088  1.941   .     S
O1022  Zn1080  1.936   .     S
O1023  Zn1079  1.936   .     S
O1024  Zn1082  1.935   .     S
O1025  Zn1081  1.935   .     S
O1026  Zn1084  1.936   .     S
O1027  Zn1083  1.936   .     S
O1028  Zn1078  1.936   .     S
O1029  Zn1092  1.936   .     S
O1030  Zn1079  1.936   .     S
O1031  Zn1446  1.945   1_455 S
O1031  Zn1086  1.945   .     S
O1031  Zn1090  1.946   .     S
O1031  Zn1078  1.946   .     S
O1032  Zn1080  1.936   .     S
O1033  Zn1092  1.936   .     S
O1034  Zn1078  1.936   .     S
O1035  Zn1083  1.936   .     S
O1036  Zn1084  1.936   .     S
O1037  Zn1081  1.936   .     S
O1038  Zn1082  1.936   .     S
O1039  Zn1451  1.936   .     S
O1040  Zn1086  1.936   .     S
O1041  Zn361   1.935   1_565 S
O1042  Zn1456  1.946   1_455 S
O1042  Zn1091  1.946   .     S
O1042  Zn1081  1.945   .     S
O1042  Zn1087  1.945   .     S
O1043  Zn1088  1.935   .     S
O1044  Zn1091  1.936   .     S
O1045  Zn1454  1.936   .     S
O1046  Zn1085  1.936   .     S
O1047  Zn349   1.936   1_565 S
O1048  Zn1450  1.936   .     S
O1049  Zn1087  1.936   .     S
O1050  Zn1077  1.936   .     S
O1051  Zn357   1.936   1_565 S
O1052  Zn1090  1.936   .     S
O1053  Zn1084  1.941   .     S
O1053  C89     1.283   1_565 S
O1054  Zn1455  1.936   .     S
O1055  Zn360   1.936   1_565 S
O1056  Zn1089  1.936   .     S
O1064  Zn1083  1.941   .     S
O1074  Zn1078  1.941   .     S
O1074  C1183   1.283   1_455 S
O1075  Zn1092  1.941   .     S
O1075  C1184   1.283   .     S
O1076  Zn1080  1.942   .     S
Zn1079 O292    1.945   1_565 S
Zn1082 O1395   1.945   .     S
Zn1084 O281    1.946   1_565 S
Zn1086 O1412   1.936   1_455 S
Zn1087 O1403   1.936   1_455 S
Zn1090 O1409   1.936   1_455 S
Zn1091 O1418   1.936   1_455 S
Zn1092 O1406   1.946   .     S
C1093  C1154   1.393   .     A
C1093  H1245   1.084   .     S
C1093  C1172   1.398   .     A
C1094  H1246   1.084   .     S
C1094  C1177   1.397   .     A
C1094  C1164   1.393   .     A
C1095  C1220   1.402   .     A
C1095  C1191   1.455   .     S
C1095  C1227   1.402   .     A
C1096  C1219   1.402   .     A
C1096  C1230   1.402   .     A
C1096  C1192   1.454   .     S
C1097  C1218   1.402   .     A
C1097  C1193   1.454   .     S
C1097  C1229   1.402   .     A
C1098  C1217   1.402   .     A
C1098  C1194   1.455   .     S
C1098  C1232   1.402   .     A
C1099  C1195   1.455   .     S
C1099  C1216   1.401   .     A
C1099  C1231   1.402   .     A
C1100  C1215   1.402   .     A
C1100  C1235   1.402   .     A
C1100  C1205   1.455   .     S
C1101  C1206   1.455   .     S
C1101  C1214   1.402   .     A
C1101  C1233   1.401   .     A
C1102  C1198   1.454   .     S
C1102  C1213   1.402   .     A
C1102  C1237   1.402   .     A
C1103  C1211   1.402   .     A
C1103  C1199   1.454   .     S
C1103  C1236   1.402   .     A
C1104  C1200   1.455   .     S
C1104  C1239   1.402   .     A
C1104  C1210   1.401   .     A
C1105  H1257   1.083   .     S
C1105  C1178   1.397   .     A
C1105  C1165   1.398   .     A
C1106  C1209   1.402   .     A
C1106  C1202   1.455   .     S
C1106  C1238   1.402   .     A
C1107  C1241   1.401   .     A
C1107  C1208   1.402   .     A
C1107  C1203   1.455   .     S
C1108  C1207   1.401   .     A
C1108  C1204   1.455   .     S
C1108  C1240   1.402   .     A
C1109  C1188   1.470   .     S
C1109  C1154   1.416   .     A
C1110  C1187   1.470   .     S
C1110  C1155   1.416   .     A
C1111  C1186   1.470   .     S
C1111  C1161   1.416   .     A
C1111  C792    1.414   1_655 S
C1112  C1162   1.416   .     A
C1112  C1185   1.470   .     S
C1112  C794    1.414   1_655 S
C1113  C1184   1.469   .     S
C1113  C1167   1.413   .     A
C1114  C1183   1.471   .     S
C1114  C1169   1.414   .     A
C1114  C800    1.416   1_655 S
C1115  C1182   1.470   .     S
C1115  C1165   1.413   .     A
C1115  C442    1.416   1_565 S
C1116  H1268   1.083   .     S
C1116  C1180   1.397   .     A
C1116  C1166   1.397   .     A
C1117  C1166   1.414   .     A
C1117  C1181   1.471   .     S
C1118  H1319   1.111   .     S
C1118  H1317   1.117   .     S
C1118  C1119   1.525   .     S
C1118  O1421   1.417   .     S
C1119  H1321   1.110   .     S
C1119  H1322   1.110   .     S
C1119  H1320   1.111   .     S
C1120  H1324   1.111   .     S
C1120  C1121   1.524   .     S
C1120  O1422   1.417   .     S
C1120  H1323   1.117   .     S
C1121  H1325   1.111   .     S
C1121  H1327   1.110   .     S
C1121  H1326   1.110   .     S
C1122  O1423   1.413   .     S
C1122  H1328   1.112   .     S
C1122  C1123   1.521   .     S
C1123  H1332   1.110   .     S
C1123  H1331   1.111   .     S
C1123  H1333   1.111   .     S
C1124  O1424   1.413   .     S
C1124  H1334   1.112   .     S
C1124  C1125   1.521   .     S
C1125  H1338   1.111   .     S
C1125  H1337   1.110   .     S
C1125  H1336   1.111   .     S
C1126  O1425   1.413   .     S
C1126  H1341   1.112   .     S
C1126  C1128   1.521   .     S
C1126  H611    1.116   1_565 S
C1127  C1176   1.397   .     A
C1127  H1278   1.083   .     S
C1127  C1167   1.398   .     A
C1128  H1342   1.111   .     S
C1128  H1344   1.111   .     S
C1128  H1343   1.110   .     S
C1129  C1130   1.521   .     S
C1129  H1346   1.112   .     S
C1129  O1426   1.413   .     S
C1129  H617    1.116   1_565 S
C1130  H1348   1.110   .     S
C1130  H1347   1.111   .     S
C1130  H1349   1.111   .     S
C1131  H1352   1.117   .     S
C1131  O1427   1.417   .     S
C1131  C1132   1.525   .     S
C1131  H1350   1.111   .     S
C1132  H1353   1.110   .     S
C1132  H1355   1.111   .     S
C1132  H1354   1.110   .     S
C1133  H1357   1.117   .     S
C1133  O1429   1.417   .     S
C1133  H1356   1.111   .     S
C1133  C1134   1.524   .     S
C1134  H1358   1.110   .     S
C1134  H1359   1.110   .     S
C1134  H1360   1.111   .     S
C1135  H1363   1.116   .     S
C1135  C1136   1.520   .     S
C1135  H1361   1.114   .     S
C1135  O1430   1.412   .     S
C1136  H1366   1.111   .     S
C1136  H1364   1.109   .     S
C1136  H1365   1.110   .     S
C1137  C1139   1.524   .     S
C1137  H1368   1.111   .     S
C1137  H1367   1.117   .     S
C1137  O1431   1.417   .     S
C1138  C1169   1.397   .     A
C1138  H1279   1.083   .     S
C1138  C813    1.397   1_655 S
C1139  H1371   1.110   .     S
C1139  H1369   1.111   .     S
C1139  H1370   1.111   .     S
C1140  H1247   1.116   .     S
C1140  H1372   1.112   .     S
C1140  O1432   1.413   .     S
C1140  C1141   1.521   .     S
C1141  H1249   1.110   .     S
C1141  H1248   1.111   .     S
C1141  H1250   1.111   .     S
C1142  H1252   1.116   .     S
C1142  H1251   1.112   .     S
C1142  C1143   1.522   .     S
C1142  O1433   1.413   .     S
C1143  H1254   1.110   .     S
C1143  H1255   1.111   .     S
C1143  H1253   1.111   .     S
C1144  C1145   1.521   .     S
C1144  O1434   1.413   .     S
C1144  H1256   1.116   .     S
C1144  H1258   1.112   .     S
C1145  H1260   1.110   .     S
C1145  H1261   1.111   .     S
C1145  H1259   1.111   .     S
C1146  O1435   1.413   .     S
C1146  C1147   1.521   .     S
C1146  H1262   1.116   .     S
C1146  H1263   1.113   .     S
C1147  H1265   1.110   .     S
C1147  H1264   1.111   .     S
C1147  H1266   1.111   .     S
C1148  C1150   1.525   .     S
C1148  H1269   1.117   .     S
C1148  H1267   1.111   .     S
C1148  O1436   1.417   .     S
C1149  C1170   1.393   .     A
C1149  H1280   1.084   .     S
C1150  H1272   1.111   .     S
C1150  H1270   1.110   .     S
C1150  H1271   1.110   .     S
C1151  C1152   1.524   .     S
C1151  H1274   1.117   .     S
C1151  H1273   1.111   .     S
C1151  O1437   1.417   .     S
C1152  H1276   1.111   .     S
C1152  H1277   1.111   .     S
C1152  H1275   1.110   .     S
C1153  H1281   1.084   .     S
C1153  C1171   1.393   .     A
C1153  C452    1.398   1_565 S
C1154  O1421   1.384   .     S
C1155  C1157   1.393   .     A
C1155  O1422   1.384   .     S
C1156  O1423   1.385   .     S
C1156  C1168   1.397   .     A
C1157  H1285   1.084   .     S
C1157  C1173   1.398   .     A
C1158  O1424   1.385   .     S
C1158  C1179   1.397   .     A
C1159  C1190   1.397   .     A
C1159  O1425   1.385   .     S
C1159  C381    1.414   1_565 S
C1160  C1201   1.397   .     A
C1160  O1426   1.385   .     S
C1160  C382    1.414   1_565 S
C1161  C1212   1.393   .     A
C1161  O1427   1.384   .     S
C1162  O1429   1.384   .     S
C1162  C1223   1.393   .     A
C1163  O1430   1.383   .     S
C1163  C1234   1.395   .     A
C1163  C749    1.413   1_655 S
C1164  O1431   1.384   .     S
C1165  O1432   1.385   .     S
C1166  O1433   1.385   .     S
C1167  O1434   1.385   .     S
C1168  H1296   1.083   .     S
C1169  O1435   1.385   .     S
C1170  O1436   1.384   .     S
C1171  O1437   1.384   .     S
C1171  C389    1.416   1_565 S
C1172  C1173   1.464   1_554 S
C1173  C1172   1.464   1_556 S
C1174  C1212   1.398   .     A
C1174  C804    1.397   1_655 S
C1174  C1175   1.464   1_554 S
C1175  C1223   1.398   .     A
C1175  C1174   1.464   1_556 S
C1175  C815    1.397   1_655 S
C1176  C1177   1.463   .     S
C1178  C421    1.398   1_565 S
C1178  C452    1.464   1_565 S
C1179  H1307   1.083   .     S
C1181  O1440   1.282   .     A
C1182  O1374   1.281   .     A
C1182  O700    1.283   1_565 S
C1183  O1375   1.282   .     A
C1183  O1074   1.283   1_655 S
C1184  O1376   1.281   .     A
C1185  O1013   1.283   1_655 S
C1185  O1017   1.282   1_655 S
C1186  O1018   1.281   1_655 A
C1186  O1014   1.283   1_655 A
C1187  O1383   1.282   .     A
C1187  O1379   1.283   .     A
C1188  O1385   1.281   .     A
C1188  O1380   1.283   .     A
C1189  O1386   1.280   .     A
C1189  C1244   1.455   .     S
C1189  O1414   1.279   .     A
C1190  H1318   1.083   .     S
C1190  C444    1.397   1_565 S
C1191  O1387   1.280   .     A
C1191  O1415   1.280   .     A
C1192  O1388   1.279   .     A
C1192  O1412   1.279   .     A
C1193  O1389   1.279   .     A
C1193  O1413   1.279   .     A
C1194  O1419   1.280   .     A
C1194  O1390   1.280   .     A
C1195  O1391   1.279   .     A
C1195  O1420   1.280   .     A
C1196  O1392   1.280   .     A
C1196  O1416   1.280   .     A
C1196  C1242   1.455   .     S
C1197  C1243   1.455   .     S
C1197  O1393   1.280   .     A
C1197  O1418   1.280   .     A
C1198  O1405   1.279   .     A
C1198  O1394   1.279   .     A
C1199  O1407   1.279   .     A
C1199  O1396   1.279   .     A
C1200  O1403   1.280   .     A
C1200  O1397   1.279   .     A
C1201  H1329   1.083   .     S
C1201  C445    1.397   1_565 S
C1202  O1404   1.280   .     A
C1202  O1398   1.280   .     A
C1203  O1399   1.280   .     A
C1203  O1410   1.280   .     A
C1204  O1411   1.280   .     A
C1204  O1400   1.280   .     A
C1205  O1401   1.280   .     A
C1205  O1408   1.280   .     A
C1206  O1409   1.279   .     A
C1206  O1402   1.280   .     A
C1207  C1224   1.386   .     A
C1207  H1282   1.083   .     S
C1208  C1222   1.386   .     A
C1208  H1283   1.083   .     S
C1209  H1284   1.083   .     S
C1209  C1221   1.386   .     A
C1210  H1286   1.083   .     S
C1210  C1220   1.386   .     A
C1211  H1287   1.083   .     S
C1211  C1219   1.386   .     A
C1212  H1340   1.084   .     S
C1213  H1288   1.083   .     S
C1213  C1218   1.386   .     A
C1214  C1217   1.386   .     A
C1214  H1289   1.083   .     S
C1215  H1290   1.083   .     S
C1215  C1216   1.386   .     A
C1216  H1291   1.083   .     S
C1217  H1292   1.083   .     S
C1218  H1293   1.083   .     S
C1219  H1294   1.083   .     S
C1220  H1295   1.083   .     S
C1221  C1244   1.402   .     A
C1221  H1297   1.083   .     S
C1222  H1298   1.083   .     S
C1222  C1243   1.402   .     A
C1223  H1351   1.084   .     S
C1224  C1242   1.401   .     A
C1224  H1299   1.083   .     S
C1225  C1243   1.401   .     A
C1225  H1300   1.083   .     S
C1225  C1241   1.386   .     A
C1226  H1301   1.083   .     S
C1226  C1242   1.402   .     A
C1226  C1240   1.386   .     A
C1227  H1302   1.083   .     S
C1227  C1239   1.386   .     A
C1228  C1244   1.401   .     A
C1228  C1238   1.386   .     A
C1228  H1303   1.083   .     S
C1229  H1304   1.083   .     S
C1229  C1237   1.386   .     A
C1230  C1236   1.386   .     A
C1230  H1305   1.083   .     S
C1231  C1235   1.386   .     A
C1231  H1306   1.083   .     S
C1232  C1233   1.386   .     A
C1232  H1308   1.083   .     S
C1233  H1309   1.083   .     S
C1234  H1362   1.084   .     S
C1234  C812    1.397   1_655 S
C1235  H1310   1.083   .     S
C1236  H1311   1.083   .     S
C1237  H1312   1.083   .     S
C1238  H1313   1.083   .     S
C1239  H1314   1.083   .     S
C1240  H1315   1.083   .     S
C1241  H1316   1.083   .     S
H1330  C758    1.116   1_655 S
H1335  C760    1.116   1_655 S
O1373  Zn1444  1.945   .     S
O1373  Zn1441  1.946   .     S
O1373  Zn1452  1.945   .     S
O1374  Zn1443  1.942   .     S
O1375  Zn1446  1.941   .     S
O1376  Zn1445  1.941   .     S
O1377  Zn1455  1.941   .     S
O1378  Zn1454  1.941   .     S
O1379  Zn1449  1.941   .     S
O1380  Zn1441  1.941   .     S
O1381  Zn1451  1.942   .     S
O1382  Zn1450  1.942   .     S
O1383  Zn1453  1.941   .     S
O1384  Zn1453  1.945   .     S
O1384  Zn1447  1.946   .     S
O1384  Zn1449  1.946   .     S
O1385  Zn1452  1.941   .     S
O1386  Zn1444  1.936   .     S
O1387  Zn1443  1.936   .     S
O1388  Zn1446  1.935   .     S
O1389  Zn1445  1.935   .     S
O1390  Zn1448  1.936   .     S
O1391  Zn1447  1.936   .     S
O1392  Zn1442  1.936   .     S
O1393  Zn1456  1.936   .     S
O1394  Zn1443  1.936   .     S
O1395  Zn1450  1.945   .     S
O1395  Zn1454  1.946   .     S
O1395  Zn1442  1.946   .     S
O1396  Zn1444  1.936   .     S
O1397  Zn1456  1.936   .     S
O1398  Zn1442  1.936   .     S
O1399  Zn1447  1.936   .     S
O1400  Zn1448  1.936   .     S
O1401  Zn1445  1.936   .     S
O1402  Zn1446  1.936   .     S
O1403  Zn1087  1.936   1_655 S
O1404  Zn1450  1.936   .     S
O1405  Zn725   1.935   1_565 S
O1406  Zn1455  1.946   .     S
O1406  Zn1445  1.945   .     S
O1406  Zn1451  1.945   .     S
O1407  Zn1452  1.935   .     S
O1408  Zn1455  1.936   .     S
O1409  Zn1090  1.936   1_655 S
O1410  Zn1449  1.936   .     S
O1411  Zn713   1.936   1_565 S
O1412  Zn1086  1.936   1_655 S
O1413  Zn1451  1.936   .     S
O1414  Zn1441  1.936   .     S
O1415  Zn721   1.936   1_565 S
O1416  Zn1454  1.936   .     S
O1417  Zn1448  1.941   .     S
O1417  C453    1.283   1_565 S
O1418  Zn1091  1.936   1_655 S
O1419  Zn724   1.936   1_565 S
O1420  Zn1453  1.936   .     S
O1428  Zn1447  1.941   .     S
O1438  Zn1442  1.941   .     S
O1439  Zn1456  1.941   .     S
O1439  C820    1.283   1_655 S
O1440  Zn1444  1.942   .     S
Zn1443 O656    1.945   1_565 S
Zn1446 O1031   1.945   1_655 S
Zn1448 O645    1.946   1_565 S
Zn1456 O1042   1.946   1_655 S
