data_str_m1_o10_o16_pcu_sym.1
_audit_creation_date              2020-01-03
_audit_creation_method            'Materials Studio'
_symmetry_space_group_name_H-M    'P1'
_symmetry_Int_Tables_number       1
_symmetry_cell_setting            triclinic
loop_
_symmetry_equiv_pos_as_xyz
  x,y,z
_cell_length_a                    32.5233
_cell_length_b                    32.5501
_cell_length_c                    31.0228
_cell_angle_alpha                 95.9510
_cell_angle_beta                  74.3343
_cell_angle_gamma                 98.5644
loop_
_atom_site_label
_atom_site_type_symbol
_atom_site_fract_x
_atom_site_fract_y
_atom_site_fract_z
_atom_site_U_iso_or_equiv
_atom_site_adp_type
_atom_site_occupancy
C1     C     0.05280   0.15980   0.25994   0.00000  Uiso   1.00
C2     C     0.16642   0.15086   0.05918   0.00000  Uiso   1.00
C3     C     0.23917   0.13821   0.05568   0.00000  Uiso   1.00
C4     C     0.28091   0.17384   0.23985   0.00000  Uiso   1.00
C5     C     0.13525   0.18648   0.42082   0.00000  Uiso   1.00
C6     C     0.32689   0.17647   0.23544   0.00000  Uiso   1.00
C7     C     0.00746   0.15754   0.26401   0.00000  Uiso   1.00
C8     C     0.18123   0.32265   0.23571   0.00000  Uiso   1.00
C9     C     0.15264   0.01179   0.26361   0.00000  Uiso   1.00
C10    C     0.15602   0.05595   0.26045   0.00000  Uiso   1.00
C11    C     0.17681   0.27802   0.23997   0.00000  Uiso   1.00
C12    C     0.07786   0.18369   0.48986   0.00000  Uiso   1.00
C13    C     0.18602   0.14822   0.12925   0.00000  Uiso   1.00
C14    C     0.14806   0.18422   0.37110   0.00000  Uiso   1.00
C15    C     0.25159   0.14567   0.01029   0.00000  Uiso   1.00
C16    C     0.19655   0.14231   0.08049   0.00000  Uiso   1.00
C17    C     0.09175   0.18940   0.44420   0.00000  Uiso   1.00
C18    C     0.10572   0.17361   0.01286   0.00000  Uiso   1.00
C19    C     0.14948   0.17069   0.49108   0.00000  Uiso   1.00
C20    C     0.16469   0.17942   0.44501   0.00000  Uiso   1.00
C21    C     0.17867   0.15923   0.01344   0.00000  Uiso   1.00
C22    C     0.22233   0.15739   0.48950   0.00000  Uiso   1.00
C23    C     0.23710   0.16893   0.44548   0.00000  Uiso   1.00
C24    C     0.20908   0.18087   0.42401   0.00000  Uiso   1.00
Cl25   Cl    0.22441   0.01237   0.19371   0.00000  Uiso   1.00
Cl26   Cl    0.05186   0.19680   0.41785   0.00000  Uiso   1.00
H27    H     0.31880   0.14041   0.29105   0.00000  Uiso   1.00
H28    H     0.27718   0.09627   0.14031   0.00000  Uiso   1.00
H29    H     0.12609   0.33100   0.28935   0.00000  Uiso   1.00
H30    H     0.27079   0.16940   0.42766   0.00000  Uiso   1.00
H31    H     0.28474   0.14404   0.49151   0.00000  Uiso   1.00
H32    H     0.13459   0.15395   0.08020   0.00000  Uiso   1.00
H33    H     0.09162   0.16813   0.04769   0.00000  Uiso   1.00
H34    H     0.04447   0.18545   0.00756   0.00000  Uiso   1.00
H35    H     0.22296   0.19167   0.39076   0.00000  Uiso   1.00
H36    H     0.01617   0.19380   0.20889   0.00000  Uiso   1.00
O37    O     0.16667   0.16667   0.25000   0.00000  Uiso   1.00
O38    O     0.15451   0.12637   0.15459   0.00000  Uiso   1.00
O39    O     0.12940   0.20391   0.34968   0.00000  Uiso   1.00
O40    O     0.20824   0.17759   0.14606   0.00000  Uiso   1.00
O41    O     0.17451   0.15880   0.34968   0.00000  Uiso   1.00
O42    O     0.31169   0.10426   0.04682   0.00000  Uiso   1.00
O43    O     0.29991   0.16620   0.09835   0.00000  Uiso   1.00
O44    O     0.25506   0.09568   0.12360   0.00000  Uiso   1.00
O45    O     0.17930   0.08019   0.28214   0.00000  Uiso   1.00
O46    O     0.14632   0.26085   0.27014   0.00000  Uiso   1.00
O47    O     0.07412   0.13291   0.23413   0.00000  Uiso   1.00
O48    O     0.26693   0.19272   0.21361   0.00000  Uiso   1.00
O49    O     0.07071   0.18878   0.28213   0.00000  Uiso   1.00
O50    O     0.25491   0.15226   0.27014   0.00000  Uiso   1.00
O51    O     0.13760   0.06944   0.23413   0.00000  Uiso   1.00
O52    O     0.20345   0.25620   0.21361   0.00000  Uiso   1.00
S53    S     0.27839   0.12628   0.08089   0.00000  Uiso   1.00
Zn54   Zn    0.19338   0.13994   0.28734   0.00000  Uiso   1.00
Zn55   Zn    0.13379   0.12458   0.21876   0.00000  Uiso   1.00
Zn56   Zn    0.21056   0.19775   0.20657   0.00000  Uiso   1.00
Zn57   Zn    0.12893   0.20439   0.28734   0.00000  Uiso   1.00
C58    C     0.38613   0.15980   0.25994   0.00000  Uiso   1.00
C59    C     0.49975   0.15086   0.05918   0.00000  Uiso   1.00
C60    C     0.57250   0.13821   0.05568   0.00000  Uiso   1.00
C61    C     0.61425   0.17384   0.23985   0.00000  Uiso   1.00
C62    C     0.46859   0.18648   0.42082   0.00000  Uiso   1.00
C63    C     0.66023   0.17647   0.23544   0.00000  Uiso   1.00
C64    C     0.34079   0.15754   0.26401   0.00000  Uiso   1.00
C65    C     0.51456   0.32265   0.23571   0.00000  Uiso   1.00
C66    C     0.48597   0.01179   0.26361   0.00000  Uiso   1.00
C67    C     0.48936   0.05595   0.26045   0.00000  Uiso   1.00
C68    C     0.51014   0.27802   0.23997   0.00000  Uiso   1.00
C69    C     0.41120   0.18369   0.48986   0.00000  Uiso   1.00
C70    C     0.51935   0.14822   0.12925   0.00000  Uiso   1.00
C71    C     0.48139   0.18422   0.37110   0.00000  Uiso   1.00
C72    C     0.58493   0.14567   0.01029   0.00000  Uiso   1.00
C73    C     0.52989   0.14231   0.08049   0.00000  Uiso   1.00
C74    C     0.42508   0.18940   0.44420   0.00000  Uiso   1.00
C75    C     0.43905   0.17361   0.01286   0.00000  Uiso   1.00
C76    C     0.48281   0.17069   0.49108   0.00000  Uiso   1.00
C77    C     0.49802   0.17942   0.44501   0.00000  Uiso   1.00
C78    C     0.51200   0.15923   0.01344   0.00000  Uiso   1.00
C79    C     0.55567   0.15739   0.48950   0.00000  Uiso   1.00
C80    C     0.57043   0.16893   0.44548   0.00000  Uiso   1.00
C81    C     0.54241   0.18087   0.42401   0.00000  Uiso   1.00
Cl82   Cl    0.55775   0.01237   0.19371   0.00000  Uiso   1.00
Cl83   Cl    0.38519   0.19680   0.41785   0.00000  Uiso   1.00
H84    H     0.65214   0.14041   0.29105   0.00000  Uiso   1.00
H85    H     0.61051   0.09627   0.14031   0.00000  Uiso   1.00
H86    H     0.45942   0.33100   0.28935   0.00000  Uiso   1.00
H87    H     0.60412   0.16940   0.42766   0.00000  Uiso   1.00
H88    H     0.61808   0.14404   0.49151   0.00000  Uiso   1.00
H89    H     0.46793   0.15395   0.08020   0.00000  Uiso   1.00
H90    H     0.42496   0.16813   0.04769   0.00000  Uiso   1.00
H91    H     0.37780   0.18545   0.00756   0.00000  Uiso   1.00
H92    H     0.55630   0.19167   0.39076   0.00000  Uiso   1.00
H93    H     0.34950   0.19380   0.20889   0.00000  Uiso   1.00
O94    O     0.50000   0.16667   0.25000   0.00000  Uiso   1.00
O95    O     0.48784   0.12637   0.15459   0.00000  Uiso   1.00
O96    O     0.46274   0.20391   0.34968   0.00000  Uiso   1.00
O97    O     0.54157   0.17759   0.14606   0.00000  Uiso   1.00
O98    O     0.50785   0.15880   0.34968   0.00000  Uiso   1.00
O99    O     0.64502   0.10426   0.04682   0.00000  Uiso   1.00
O100   O     0.63325   0.16620   0.09835   0.00000  Uiso   1.00
O101   O     0.58840   0.09568   0.12360   0.00000  Uiso   1.00
O102   O     0.51264   0.08019   0.28214   0.00000  Uiso   1.00
O103   O     0.47965   0.26085   0.27014   0.00000  Uiso   1.00
O104   O     0.40745   0.13291   0.23413   0.00000  Uiso   1.00
O105   O     0.60026   0.19272   0.21361   0.00000  Uiso   1.00
O106   O     0.40405   0.18878   0.28213   0.00000  Uiso   1.00
O107   O     0.58824   0.15226   0.27014   0.00000  Uiso   1.00
O108   O     0.47093   0.06944   0.23413   0.00000  Uiso   1.00
O109   O     0.53678   0.25620   0.21361   0.00000  Uiso   1.00
S110   S     0.61172   0.12628   0.08089   0.00000  Uiso   1.00
Zn111  Zn    0.52672   0.13994   0.28734   0.00000  Uiso   1.00
Zn112  Zn    0.46713   0.12458   0.21876   0.00000  Uiso   1.00
Zn113  Zn    0.54389   0.19775   0.20657   0.00000  Uiso   1.00
Zn114  Zn    0.46226   0.20439   0.28734   0.00000  Uiso   1.00
C115   C     0.71947   0.15980   0.25994   0.00000  Uiso   1.00
C116   C     0.83309   0.15086   0.05918   0.00000  Uiso   1.00
C117   C     0.90584   0.13821   0.05568   0.00000  Uiso   1.00
C118   C     0.94758   0.17384   0.23985   0.00000  Uiso   1.00
C119   C     0.80192   0.18648   0.42082   0.00000  Uiso   1.00
C120   C     0.99356   0.17647   0.23544   0.00000  Uiso   1.00
C121   C     0.67412   0.15754   0.26401   0.00000  Uiso   1.00
C122   C     0.84790   0.32265   0.23571   0.00000  Uiso   1.00
C123   C     0.81930   0.01179   0.26361   0.00000  Uiso   1.00
C124   C     0.82269   0.05595   0.26045   0.00000  Uiso   1.00
C125   C     0.84347   0.27802   0.23997   0.00000  Uiso   1.00
C126   C     0.74453   0.18369   0.48986   0.00000  Uiso   1.00
C127   C     0.85269   0.14822   0.12925   0.00000  Uiso   1.00
C128   C     0.81472   0.18422   0.37110   0.00000  Uiso   1.00
C129   C     0.91826   0.14567   0.01029   0.00000  Uiso   1.00
C130   C     0.86322   0.14231   0.08049   0.00000  Uiso   1.00
C131   C     0.75842   0.18940   0.44420   0.00000  Uiso   1.00
C132   C     0.77238   0.17361   0.01286   0.00000  Uiso   1.00
C133   C     0.81615   0.17069   0.49108   0.00000  Uiso   1.00
C134   C     0.83135   0.17942   0.44501   0.00000  Uiso   1.00
C135   C     0.84534   0.15923   0.01344   0.00000  Uiso   1.00
C136   C     0.88900   0.15739   0.48950   0.00000  Uiso   1.00
C137   C     0.90377   0.16893   0.44548   0.00000  Uiso   1.00
C138   C     0.87574   0.18087   0.42401   0.00000  Uiso   1.00
Cl139  Cl    0.89108   0.01237   0.19371   0.00000  Uiso   1.00
Cl140  Cl    0.71853   0.19680   0.41785   0.00000  Uiso   1.00
H141   H     0.98547   0.14041   0.29105   0.00000  Uiso   1.00
H142   H     0.94384   0.09627   0.14031   0.00000  Uiso   1.00
H143   H     0.79275   0.33100   0.28935   0.00000  Uiso   1.00
H144   H     0.93746   0.16940   0.42766   0.00000  Uiso   1.00
H145   H     0.95141   0.14404   0.49151   0.00000  Uiso   1.00
H146   H     0.80126   0.15395   0.08020   0.00000  Uiso   1.00
H147   H     0.75829   0.16813   0.04769   0.00000  Uiso   1.00
H148   H     0.71114   0.18545   0.00756   0.00000  Uiso   1.00
H149   H     0.88963   0.19167   0.39076   0.00000  Uiso   1.00
H150   H     0.68283   0.19380   0.20889   0.00000  Uiso   1.00
O151   O     0.83333   0.16667   0.25000   0.00000  Uiso   1.00
O152   O     0.82118   0.12637   0.15459   0.00000  Uiso   1.00
O153   O     0.79607   0.20391   0.34968   0.00000  Uiso   1.00
O154   O     0.87491   0.17759   0.14606   0.00000  Uiso   1.00
O155   O     0.84118   0.15880   0.34968   0.00000  Uiso   1.00
O156   O     0.97835   0.10426   0.04682   0.00000  Uiso   1.00
O157   O     0.96658   0.16620   0.09835   0.00000  Uiso   1.00
O158   O     0.92173   0.09568   0.12360   0.00000  Uiso   1.00
O159   O     0.84597   0.08019   0.28214   0.00000  Uiso   1.00
O160   O     0.81298   0.26085   0.27014   0.00000  Uiso   1.00
O161   O     0.74078   0.13291   0.23413   0.00000  Uiso   1.00
O162   O     0.93360   0.19272   0.21361   0.00000  Uiso   1.00
O163   O     0.73738   0.18878   0.28213   0.00000  Uiso   1.00
O164   O     0.92158   0.15226   0.27014   0.00000  Uiso   1.00
O165   O     0.80426   0.06944   0.23413   0.00000  Uiso   1.00
O166   O     0.87012   0.25620   0.21361   0.00000  Uiso   1.00
S167   S     0.94505   0.12628   0.08089   0.00000  Uiso   1.00
Zn168  Zn    0.86005   0.13994   0.28734   0.00000  Uiso   1.00
Zn169  Zn    0.80046   0.12458   0.21876   0.00000  Uiso   1.00
Zn170  Zn    0.87723   0.19775   0.20657   0.00000  Uiso   1.00
Zn171  Zn    0.79560   0.20439   0.28734   0.00000  Uiso   1.00
C172   C     0.05280   0.49313   0.25994   0.00000  Uiso   1.00
C173   C     0.16642   0.48419   0.05918   0.00000  Uiso   1.00
C174   C     0.23917   0.47155   0.05568   0.00000  Uiso   1.00
C175   C     0.28091   0.50718   0.23985   0.00000  Uiso   1.00
C176   C     0.13525   0.51981   0.42082   0.00000  Uiso   1.00
C177   C     0.32689   0.50981   0.23544   0.00000  Uiso   1.00
C178   C     0.00746   0.49087   0.26401   0.00000  Uiso   1.00
C179   C     0.18123   0.65598   0.23571   0.00000  Uiso   1.00
C180   C     0.15264   0.34512   0.26361   0.00000  Uiso   1.00
C181   C     0.15602   0.38928   0.26045   0.00000  Uiso   1.00
C182   C     0.17681   0.61135   0.23997   0.00000  Uiso   1.00
C183   C     0.07786   0.51702   0.48986   0.00000  Uiso   1.00
C184   C     0.18602   0.48155   0.12925   0.00000  Uiso   1.00
C185   C     0.14806   0.51755   0.37110   0.00000  Uiso   1.00
C186   C     0.25159   0.47901   0.01029   0.00000  Uiso   1.00
C187   C     0.19655   0.47565   0.08049   0.00000  Uiso   1.00
C188   C     0.09175   0.52273   0.44420   0.00000  Uiso   1.00
C189   C     0.10572   0.50694   0.01286   0.00000  Uiso   1.00
C190   C     0.14948   0.50402   0.49108   0.00000  Uiso   1.00
C191   C     0.16469   0.51275   0.44501   0.00000  Uiso   1.00
C192   C     0.17867   0.49257   0.01344   0.00000  Uiso   1.00
C193   C     0.22233   0.49072   0.48950   0.00000  Uiso   1.00
C194   C     0.23710   0.50226   0.44548   0.00000  Uiso   1.00
C195   C     0.20908   0.51420   0.42401   0.00000  Uiso   1.00
Cl196  Cl    0.22441   0.34570   0.19371   0.00000  Uiso   1.00
Cl197  Cl    0.05186   0.53013   0.41785   0.00000  Uiso   1.00
H198   H     0.31880   0.47374   0.29105   0.00000  Uiso   1.00
H199   H     0.27718   0.42961   0.14031   0.00000  Uiso   1.00
H200   H     0.12609   0.66434   0.28935   0.00000  Uiso   1.00
H201   H     0.27079   0.50274   0.42766   0.00000  Uiso   1.00
H202   H     0.28474   0.47737   0.49151   0.00000  Uiso   1.00
H203   H     0.13459   0.48728   0.08020   0.00000  Uiso   1.00
H204   H     0.09162   0.50146   0.04769   0.00000  Uiso   1.00
H205   H     0.04447   0.51879   0.00756   0.00000  Uiso   1.00
H206   H     0.22296   0.52501   0.39076   0.00000  Uiso   1.00
H207   H     0.01617   0.52714   0.20889   0.00000  Uiso   1.00
O208   O     0.16667   0.50000   0.25000   0.00000  Uiso   1.00
O209   O     0.15451   0.45970   0.15459   0.00000  Uiso   1.00
O210   O     0.12940   0.53724   0.34968   0.00000  Uiso   1.00
O211   O     0.20824   0.51092   0.14606   0.00000  Uiso   1.00
O212   O     0.17451   0.49213   0.34968   0.00000  Uiso   1.00
O213   O     0.31169   0.43759   0.04682   0.00000  Uiso   1.00
O214   O     0.29991   0.49953   0.09835   0.00000  Uiso   1.00
O215   O     0.25506   0.42901   0.12360   0.00000  Uiso   1.00
O216   O     0.17930   0.41352   0.28214   0.00000  Uiso   1.00
O217   O     0.14632   0.59418   0.27014   0.00000  Uiso   1.00
O218   O     0.07412   0.46625   0.23413   0.00000  Uiso   1.00
O219   O     0.26693   0.52605   0.21361   0.00000  Uiso   1.00
O220   O     0.07071   0.52211   0.28213   0.00000  Uiso   1.00
O221   O     0.25491   0.48559   0.27014   0.00000  Uiso   1.00
O222   O     0.13760   0.40277   0.23413   0.00000  Uiso   1.00
O223   O     0.20345   0.58953   0.21361   0.00000  Uiso   1.00
S224   S     0.27839   0.45962   0.08089   0.00000  Uiso   1.00
Zn225  Zn    0.19338   0.47327   0.28734   0.00000  Uiso   1.00
Zn226  Zn    0.13379   0.45791   0.21876   0.00000  Uiso   1.00
Zn227  Zn    0.21056   0.53109   0.20657   0.00000  Uiso   1.00
Zn228  Zn    0.12893   0.53773   0.28734   0.00000  Uiso   1.00
C229   C     0.38613   0.49313   0.25994   0.00000  Uiso   1.00
C230   C     0.49975   0.48419   0.05918   0.00000  Uiso   1.00
C231   C     0.57250   0.47155   0.05568   0.00000  Uiso   1.00
C232   C     0.61425   0.50718   0.23985   0.00000  Uiso   1.00
C233   C     0.46859   0.51981   0.42082   0.00000  Uiso   1.00
C234   C     0.66023   0.50981   0.23544   0.00000  Uiso   1.00
C235   C     0.34079   0.49087   0.26401   0.00000  Uiso   1.00
C236   C     0.51456   0.65598   0.23571   0.00000  Uiso   1.00
C237   C     0.48597   0.34512   0.26361   0.00000  Uiso   1.00
C238   C     0.48936   0.38928   0.26045   0.00000  Uiso   1.00
C239   C     0.51014   0.61135   0.23997   0.00000  Uiso   1.00
C240   C     0.41120   0.51702   0.48986   0.00000  Uiso   1.00
C241   C     0.51935   0.48155   0.12925   0.00000  Uiso   1.00
C242   C     0.48139   0.51755   0.37110   0.00000  Uiso   1.00
C243   C     0.58493   0.47901   0.01029   0.00000  Uiso   1.00
C244   C     0.52989   0.47565   0.08049   0.00000  Uiso   1.00
C245   C     0.42508   0.52273   0.44420   0.00000  Uiso   1.00
C246   C     0.43905   0.50694   0.01286   0.00000  Uiso   1.00
C247   C     0.48281   0.50402   0.49108   0.00000  Uiso   1.00
C248   C     0.49802   0.51275   0.44501   0.00000  Uiso   1.00
C249   C     0.51200   0.49257   0.01344   0.00000  Uiso   1.00
C250   C     0.55567   0.49072   0.48950   0.00000  Uiso   1.00
C251   C     0.57043   0.50226   0.44548   0.00000  Uiso   1.00
C252   C     0.54241   0.51420   0.42401   0.00000  Uiso   1.00
Cl253  Cl    0.55775   0.34570   0.19371   0.00000  Uiso   1.00
Cl254  Cl    0.38519   0.53013   0.41785   0.00000  Uiso   1.00
H255   H     0.65214   0.47374   0.29105   0.00000  Uiso   1.00
H256   H     0.61051   0.42961   0.14031   0.00000  Uiso   1.00
H257   H     0.45942   0.66434   0.28935   0.00000  Uiso   1.00
H258   H     0.60412   0.50274   0.42766   0.00000  Uiso   1.00
H259   H     0.61808   0.47737   0.49151   0.00000  Uiso   1.00
H260   H     0.46793   0.48728   0.08020   0.00000  Uiso   1.00
H261   H     0.42496   0.50146   0.04769   0.00000  Uiso   1.00
H262   H     0.37780   0.51879   0.00756   0.00000  Uiso   1.00
H263   H     0.55630   0.52501   0.39076   0.00000  Uiso   1.00
H264   H     0.34950   0.52714   0.20889   0.00000  Uiso   1.00
O265   O     0.50000   0.50000   0.25000   0.00000  Uiso   1.00
O266   O     0.48784   0.45970   0.15459   0.00000  Uiso   1.00
O267   O     0.46274   0.53724   0.34968   0.00000  Uiso   1.00
O268   O     0.54157   0.51092   0.14606   0.00000  Uiso   1.00
O269   O     0.50785   0.49213   0.34968   0.00000  Uiso   1.00
O270   O     0.64502   0.43759   0.04682   0.00000  Uiso   1.00
O271   O     0.63325   0.49953   0.09835   0.00000  Uiso   1.00
O272   O     0.58840   0.42901   0.12360   0.00000  Uiso   1.00
O273   O     0.51264   0.41352   0.28214   0.00000  Uiso   1.00
O274   O     0.47965   0.59418   0.27014   0.00000  Uiso   1.00
O275   O     0.40745   0.46625   0.23413   0.00000  Uiso   1.00
O276   O     0.60026   0.52605   0.21361   0.00000  Uiso   1.00
O277   O     0.40405   0.52211   0.28213   0.00000  Uiso   1.00
O278   O     0.58824   0.48559   0.27014   0.00000  Uiso   1.00
O279   O     0.47093   0.40277   0.23413   0.00000  Uiso   1.00
O280   O     0.53678   0.58953   0.21361   0.00000  Uiso   1.00
S281   S     0.61172   0.45962   0.08089   0.00000  Uiso   1.00
Zn282  Zn    0.52672   0.47327   0.28734   0.00000  Uiso   1.00
Zn283  Zn    0.46713   0.45791   0.21876   0.00000  Uiso   1.00
Zn284  Zn    0.54389   0.53109   0.20657   0.00000  Uiso   1.00
Zn285  Zn    0.46226   0.53773   0.28734   0.00000  Uiso   1.00
C286   C     0.71947   0.49313   0.25994   0.00000  Uiso   1.00
C287   C     0.83309   0.48419   0.05918   0.00000  Uiso   1.00
C288   C     0.90584   0.47155   0.05568   0.00000  Uiso   1.00
C289   C     0.94758   0.50718   0.23985   0.00000  Uiso   1.00
C290   C     0.80192   0.51981   0.42082   0.00000  Uiso   1.00
C291   C     0.99356   0.50981   0.23544   0.00000  Uiso   1.00
C292   C     0.67412   0.49087   0.26401   0.00000  Uiso   1.00
C293   C     0.84790   0.65598   0.23571   0.00000  Uiso   1.00
C294   C     0.81930   0.34512   0.26361   0.00000  Uiso   1.00
C295   C     0.82269   0.38928   0.26045   0.00000  Uiso   1.00
C296   C     0.84347   0.61135   0.23997   0.00000  Uiso   1.00
C297   C     0.74453   0.51702   0.48986   0.00000  Uiso   1.00
C298   C     0.85269   0.48155   0.12925   0.00000  Uiso   1.00
C299   C     0.81472   0.51755   0.37110   0.00000  Uiso   1.00
C300   C     0.91826   0.47901   0.01029   0.00000  Uiso   1.00
C301   C     0.86322   0.47565   0.08049   0.00000  Uiso   1.00
C302   C     0.75842   0.52273   0.44420   0.00000  Uiso   1.00
C303   C     0.77238   0.50694   0.01286   0.00000  Uiso   1.00
C304   C     0.81615   0.50402   0.49108   0.00000  Uiso   1.00
C305   C     0.83135   0.51275   0.44501   0.00000  Uiso   1.00
C306   C     0.84534   0.49257   0.01344   0.00000  Uiso   1.00
C307   C     0.88900   0.49072   0.48950   0.00000  Uiso   1.00
C308   C     0.90377   0.50226   0.44548   0.00000  Uiso   1.00
C309   C     0.87574   0.51420   0.42401   0.00000  Uiso   1.00
Cl310  Cl    0.89108   0.34570   0.19371   0.00000  Uiso   1.00
Cl311  Cl    0.71853   0.53013   0.41785   0.00000  Uiso   1.00
H312   H     0.98547   0.47374   0.29105   0.00000  Uiso   1.00
H313   H     0.94384   0.42961   0.14031   0.00000  Uiso   1.00
H314   H     0.79275   0.66434   0.28935   0.00000  Uiso   1.00
H315   H     0.93746   0.50274   0.42766   0.00000  Uiso   1.00
H316   H     0.95141   0.47737   0.49151   0.00000  Uiso   1.00
H317   H     0.80126   0.48728   0.08020   0.00000  Uiso   1.00
H318   H     0.75829   0.50146   0.04769   0.00000  Uiso   1.00
H319   H     0.71114   0.51879   0.00756   0.00000  Uiso   1.00
H320   H     0.88963   0.52501   0.39076   0.00000  Uiso   1.00
H321   H     0.68283   0.52714   0.20889   0.00000  Uiso   1.00
O322   O     0.83333   0.50000   0.25000   0.00000  Uiso   1.00
O323   O     0.82118   0.45970   0.15459   0.00000  Uiso   1.00
O324   O     0.79607   0.53724   0.34968   0.00000  Uiso   1.00
O325   O     0.87491   0.51092   0.14606   0.00000  Uiso   1.00
O326   O     0.84118   0.49213   0.34968   0.00000  Uiso   1.00
O327   O     0.97835   0.43759   0.04682   0.00000  Uiso   1.00
O328   O     0.96658   0.49953   0.09835   0.00000  Uiso   1.00
O329   O     0.92173   0.42901   0.12360   0.00000  Uiso   1.00
O330   O     0.84597   0.41352   0.28214   0.00000  Uiso   1.00
O331   O     0.81298   0.59418   0.27014   0.00000  Uiso   1.00
O332   O     0.74078   0.46625   0.23413   0.00000  Uiso   1.00
O333   O     0.93360   0.52605   0.21361   0.00000  Uiso   1.00
O334   O     0.73738   0.52211   0.28213   0.00000  Uiso   1.00
O335   O     0.92158   0.48559   0.27014   0.00000  Uiso   1.00
O336   O     0.80426   0.40277   0.23413   0.00000  Uiso   1.00
O337   O     0.87012   0.58953   0.21361   0.00000  Uiso   1.00
S338   S     0.94505   0.45962   0.08089   0.00000  Uiso   1.00
Zn339  Zn    0.86005   0.47327   0.28734   0.00000  Uiso   1.00
Zn340  Zn    0.80046   0.45791   0.21876   0.00000  Uiso   1.00
Zn341  Zn    0.87723   0.53109   0.20657   0.00000  Uiso   1.00
Zn342  Zn    0.79560   0.53773   0.28734   0.00000  Uiso   1.00
C343   C     0.05280   0.82646   0.25994   0.00000  Uiso   1.00
C344   C     0.16642   0.81752   0.05918   0.00000  Uiso   1.00
C345   C     0.23917   0.80488   0.05568   0.00000  Uiso   1.00
C346   C     0.28091   0.84051   0.23985   0.00000  Uiso   1.00
C347   C     0.13525   0.85315   0.42082   0.00000  Uiso   1.00
C348   C     0.32689   0.84314   0.23544   0.00000  Uiso   1.00
C349   C     0.00746   0.82420   0.26401   0.00000  Uiso   1.00
C350   C     0.18123   0.98931   0.23571   0.00000  Uiso   1.00
C351   C     0.15264   0.67845   0.26361   0.00000  Uiso   1.00
C352   C     0.15602   0.72262   0.26045   0.00000  Uiso   1.00
C353   C     0.17681   0.94468   0.23997   0.00000  Uiso   1.00
C354   C     0.07786   0.85036   0.48986   0.00000  Uiso   1.00
C355   C     0.18602   0.81488   0.12925   0.00000  Uiso   1.00
C356   C     0.14806   0.85088   0.37110   0.00000  Uiso   1.00
C357   C     0.25159   0.81234   0.01029   0.00000  Uiso   1.00
C358   C     0.19655   0.80898   0.08049   0.00000  Uiso   1.00
C359   C     0.09175   0.85606   0.44420   0.00000  Uiso   1.00
C360   C     0.10572   0.84027   0.01286   0.00000  Uiso   1.00
C361   C     0.14948   0.83735   0.49108   0.00000  Uiso   1.00
C362   C     0.16469   0.84608   0.44501   0.00000  Uiso   1.00
C363   C     0.17867   0.82590   0.01344   0.00000  Uiso   1.00
C364   C     0.22233   0.82405   0.48950   0.00000  Uiso   1.00
C365   C     0.23710   0.83560   0.44548   0.00000  Uiso   1.00
C366   C     0.20908   0.84754   0.42401   0.00000  Uiso   1.00
Cl367  Cl    0.22441   0.67904   0.19371   0.00000  Uiso   1.00
Cl368  Cl    0.05186   0.86347   0.41785   0.00000  Uiso   1.00
H369   H     0.31880   0.80708   0.29105   0.00000  Uiso   1.00
H370   H     0.27718   0.76294   0.14031   0.00000  Uiso   1.00
H371   H     0.12609   0.99767   0.28935   0.00000  Uiso   1.00
H372   H     0.27079   0.83607   0.42766   0.00000  Uiso   1.00
H373   H     0.28474   0.81070   0.49151   0.00000  Uiso   1.00
H374   H     0.13459   0.82061   0.08020   0.00000  Uiso   1.00
H375   H     0.09162   0.83480   0.04769   0.00000  Uiso   1.00
H376   H     0.04447   0.85212   0.00756   0.00000  Uiso   1.00
H377   H     0.22296   0.85834   0.39076   0.00000  Uiso   1.00
H378   H     0.01617   0.86047   0.20889   0.00000  Uiso   1.00
O379   O     0.16667   0.83333   0.25000   0.00000  Uiso   1.00
O380   O     0.15451   0.79304   0.15459   0.00000  Uiso   1.00
O381   O     0.12940   0.87058   0.34968   0.00000  Uiso   1.00
O382   O     0.20824   0.84425   0.14606   0.00000  Uiso   1.00
O383   O     0.17451   0.82546   0.34968   0.00000  Uiso   1.00
O384   O     0.31169   0.77093   0.04682   0.00000  Uiso   1.00
O385   O     0.29991   0.83286   0.09835   0.00000  Uiso   1.00
O386   O     0.25506   0.76234   0.12360   0.00000  Uiso   1.00
O387   O     0.17930   0.74686   0.28214   0.00000  Uiso   1.00
O388   O     0.14632   0.92751   0.27014   0.00000  Uiso   1.00
O389   O     0.07412   0.79958   0.23413   0.00000  Uiso   1.00
O390   O     0.26693   0.85939   0.21361   0.00000  Uiso   1.00
O391   O     0.07071   0.85544   0.28213   0.00000  Uiso   1.00
O392   O     0.25491   0.81892   0.27014   0.00000  Uiso   1.00
O393   O     0.13760   0.73610   0.23413   0.00000  Uiso   1.00
O394   O     0.20345   0.92286   0.21361   0.00000  Uiso   1.00
S395   S     0.27839   0.79295   0.08089   0.00000  Uiso   1.00
Zn396  Zn    0.19338   0.80661   0.28734   0.00000  Uiso   1.00
Zn397  Zn    0.13379   0.79124   0.21876   0.00000  Uiso   1.00
Zn398  Zn    0.21056   0.86442   0.20657   0.00000  Uiso   1.00
Zn399  Zn    0.12893   0.87106   0.28734   0.00000  Uiso   1.00
C400   C     0.38613   0.82646   0.25994   0.00000  Uiso   1.00
C401   C     0.49975   0.81752   0.05918   0.00000  Uiso   1.00
C402   C     0.57250   0.80488   0.05568   0.00000  Uiso   1.00
C403   C     0.61425   0.84051   0.23985   0.00000  Uiso   1.00
C404   C     0.46859   0.85315   0.42082   0.00000  Uiso   1.00
C405   C     0.66023   0.84314   0.23544   0.00000  Uiso   1.00
C406   C     0.34079   0.82420   0.26401   0.00000  Uiso   1.00
C407   C     0.51456   0.98931   0.23571   0.00000  Uiso   1.00
C408   C     0.48597   0.67845   0.26361   0.00000  Uiso   1.00
C409   C     0.48936   0.72262   0.26045   0.00000  Uiso   1.00
C410   C     0.51014   0.94468   0.23997   0.00000  Uiso   1.00
C411   C     0.41120   0.85036   0.48986   0.00000  Uiso   1.00
C412   C     0.51935   0.81488   0.12925   0.00000  Uiso   1.00
C413   C     0.48139   0.85088   0.37110   0.00000  Uiso   1.00
C414   C     0.58493   0.81234   0.01029   0.00000  Uiso   1.00
C415   C     0.52989   0.80898   0.08049   0.00000  Uiso   1.00
C416   C     0.42508   0.85606   0.44420   0.00000  Uiso   1.00
C417   C     0.43905   0.84027   0.01286   0.00000  Uiso   1.00
C418   C     0.48281   0.83735   0.49108   0.00000  Uiso   1.00
C419   C     0.49802   0.84608   0.44501   0.00000  Uiso   1.00
C420   C     0.51200   0.82590   0.01344   0.00000  Uiso   1.00
C421   C     0.55567   0.82405   0.48950   0.00000  Uiso   1.00
C422   C     0.57043   0.83560   0.44548   0.00000  Uiso   1.00
C423   C     0.54241   0.84754   0.42401   0.00000  Uiso   1.00
Cl424  Cl    0.55775   0.67904   0.19371   0.00000  Uiso   1.00
Cl425  Cl    0.38519   0.86347   0.41785   0.00000  Uiso   1.00
H426   H     0.65214   0.80708   0.29105   0.00000  Uiso   1.00
H427   H     0.61051   0.76294   0.14031   0.00000  Uiso   1.00
H428   H     0.45942   0.99767   0.28935   0.00000  Uiso   1.00
H429   H     0.60412   0.83607   0.42766   0.00000  Uiso   1.00
H430   H     0.61808   0.81070   0.49151   0.00000  Uiso   1.00
H431   H     0.46793   0.82061   0.08020   0.00000  Uiso   1.00
H432   H     0.42496   0.83480   0.04769   0.00000  Uiso   1.00
H433   H     0.37780   0.85212   0.00756   0.00000  Uiso   1.00
H434   H     0.55630   0.85834   0.39076   0.00000  Uiso   1.00
H435   H     0.34950   0.86047   0.20889   0.00000  Uiso   1.00
O436   O     0.50000   0.83333   0.25000   0.00000  Uiso   1.00
O437   O     0.48784   0.79304   0.15459   0.00000  Uiso   1.00
O438   O     0.46274   0.87058   0.34968   0.00000  Uiso   1.00
O439   O     0.54157   0.84425   0.14606   0.00000  Uiso   1.00
O440   O     0.50785   0.82546   0.34968   0.00000  Uiso   1.00
O441   O     0.64502   0.77093   0.04682   0.00000  Uiso   1.00
O442   O     0.63325   0.83286   0.09835   0.00000  Uiso   1.00
O443   O     0.58840   0.76234   0.12360   0.00000  Uiso   1.00
O444   O     0.51264   0.74686   0.28214   0.00000  Uiso   1.00
O445   O     0.47965   0.92751   0.27014   0.00000  Uiso   1.00
O446   O     0.40745   0.79958   0.23413   0.00000  Uiso   1.00
O447   O     0.60026   0.85939   0.21361   0.00000  Uiso   1.00
O448   O     0.40405   0.85544   0.28213   0.00000  Uiso   1.00
O449   O     0.58824   0.81892   0.27014   0.00000  Uiso   1.00
O450   O     0.47093   0.73610   0.23413   0.00000  Uiso   1.00
O451   O     0.53678   0.92286   0.21361   0.00000  Uiso   1.00
S452   S     0.61172   0.79295   0.08089   0.00000  Uiso   1.00
Zn453  Zn    0.52672   0.80661   0.28734   0.00000  Uiso   1.00
Zn454  Zn    0.46713   0.79124   0.21876   0.00000  Uiso   1.00
Zn455  Zn    0.54389   0.86442   0.20657   0.00000  Uiso   1.00
Zn456  Zn    0.46226   0.87106   0.28734   0.00000  Uiso   1.00
C457   C     0.71947   0.82646   0.25994   0.00000  Uiso   1.00
C458   C     0.83309   0.81752   0.05918   0.00000  Uiso   1.00
C459   C     0.90584   0.80488   0.05568   0.00000  Uiso   1.00
C460   C     0.94758   0.84051   0.23985   0.00000  Uiso   1.00
C461   C     0.80192   0.85315   0.42082   0.00000  Uiso   1.00
C462   C     0.99356   0.84314   0.23544   0.00000  Uiso   1.00
C463   C     0.67412   0.82420   0.26401   0.00000  Uiso   1.00
C464   C     0.84790   0.98931   0.23571   0.00000  Uiso   1.00
C465   C     0.81930   0.67845   0.26361   0.00000  Uiso   1.00
C466   C     0.82269   0.72262   0.26045   0.00000  Uiso   1.00
C467   C     0.84347   0.94468   0.23997   0.00000  Uiso   1.00
C468   C     0.74453   0.85036   0.48986   0.00000  Uiso   1.00
C469   C     0.85269   0.81488   0.12925   0.00000  Uiso   1.00
C470   C     0.81472   0.85088   0.37110   0.00000  Uiso   1.00
C471   C     0.91826   0.81234   0.01029   0.00000  Uiso   1.00
C472   C     0.86322   0.80898   0.08049   0.00000  Uiso   1.00
C473   C     0.75842   0.85606   0.44420   0.00000  Uiso   1.00
C474   C     0.77238   0.84027   0.01286   0.00000  Uiso   1.00
C475   C     0.81615   0.83735   0.49108   0.00000  Uiso   1.00
C476   C     0.83135   0.84608   0.44501   0.00000  Uiso   1.00
C477   C     0.84534   0.82590   0.01344   0.00000  Uiso   1.00
C478   C     0.88900   0.82405   0.48950   0.00000  Uiso   1.00
C479   C     0.90377   0.83560   0.44548   0.00000  Uiso   1.00
C480   C     0.87574   0.84754   0.42401   0.00000  Uiso   1.00
Cl481  Cl    0.89108   0.67904   0.19371   0.00000  Uiso   1.00
Cl482  Cl    0.71853   0.86347   0.41785   0.00000  Uiso   1.00
H483   H     0.98547   0.80708   0.29105   0.00000  Uiso   1.00
H484   H     0.94384   0.76294   0.14031   0.00000  Uiso   1.00
H485   H     0.79275   0.99767   0.28935   0.00000  Uiso   1.00
H486   H     0.93746   0.83607   0.42766   0.00000  Uiso   1.00
H487   H     0.95141   0.81070   0.49151   0.00000  Uiso   1.00
H488   H     0.80126   0.82061   0.08020   0.00000  Uiso   1.00
H489   H     0.75829   0.83480   0.04769   0.00000  Uiso   1.00
H490   H     0.71114   0.85212   0.00756   0.00000  Uiso   1.00
H491   H     0.88963   0.85834   0.39076   0.00000  Uiso   1.00
H492   H     0.68283   0.86047   0.20889   0.00000  Uiso   1.00
O493   O     0.83333   0.83333   0.25000   0.00000  Uiso   1.00
O494   O     0.82118   0.79304   0.15459   0.00000  Uiso   1.00
O495   O     0.79607   0.87058   0.34968   0.00000  Uiso   1.00
O496   O     0.87491   0.84425   0.14606   0.00000  Uiso   1.00
O497   O     0.84118   0.82546   0.34968   0.00000  Uiso   1.00
O498   O     0.97835   0.77093   0.04682   0.00000  Uiso   1.00
O499   O     0.96658   0.83286   0.09835   0.00000  Uiso   1.00
O500   O     0.92173   0.76234   0.12360   0.00000  Uiso   1.00
O501   O     0.84597   0.74686   0.28214   0.00000  Uiso   1.00
O502   O     0.81298   0.92751   0.27014   0.00000  Uiso   1.00
O503   O     0.74078   0.79958   0.23413   0.00000  Uiso   1.00
O504   O     0.93360   0.85939   0.21361   0.00000  Uiso   1.00
O505   O     0.73738   0.85544   0.28213   0.00000  Uiso   1.00
O506   O     0.92158   0.81892   0.27014   0.00000  Uiso   1.00
O507   O     0.80426   0.73610   0.23413   0.00000  Uiso   1.00
O508   O     0.87012   0.92286   0.21361   0.00000  Uiso   1.00
S509   S     0.94505   0.79295   0.08089   0.00000  Uiso   1.00
Zn510  Zn    0.86005   0.80661   0.28734   0.00000  Uiso   1.00
Zn511  Zn    0.80046   0.79124   0.21876   0.00000  Uiso   1.00
Zn512  Zn    0.87723   0.86442   0.20657   0.00000  Uiso   1.00
Zn513  Zn    0.79560   0.87106   0.28734   0.00000  Uiso   1.00
C514   C     0.05280   0.15980   0.75994   0.00000  Uiso   1.00
C515   C     0.16642   0.15086   0.55918   0.00000  Uiso   1.00
C516   C     0.23917   0.13821   0.55568   0.00000  Uiso   1.00
C517   C     0.28091   0.17384   0.73985   0.00000  Uiso   1.00
C518   C     0.13525   0.18648   0.92082   0.00000  Uiso   1.00
C519   C     0.32689   0.17647   0.73544   0.00000  Uiso   1.00
C520   C     0.00746   0.15754   0.76401   0.00000  Uiso   1.00
C521   C     0.18123   0.32265   0.73571   0.00000  Uiso   1.00
C522   C     0.15264   0.01179   0.76361   0.00000  Uiso   1.00
C523   C     0.15602   0.05595   0.76045   0.00000  Uiso   1.00
C524   C     0.17681   0.27802   0.73997   0.00000  Uiso   1.00
C525   C     0.07786   0.18369   0.98986   0.00000  Uiso   1.00
C526   C     0.18602   0.14822   0.62925   0.00000  Uiso   1.00
C527   C     0.14806   0.18422   0.87110   0.00000  Uiso   1.00
C528   C     0.25159   0.14567   0.51029   0.00000  Uiso   1.00
C529   C     0.19655   0.14231   0.58049   0.00000  Uiso   1.00
C530   C     0.09175   0.18940   0.94420   0.00000  Uiso   1.00
C531   C     0.10572   0.17361   0.51286   0.00000  Uiso   1.00
C532   C     0.14948   0.17069   0.99108   0.00000  Uiso   1.00
C533   C     0.16469   0.17942   0.94501   0.00000  Uiso   1.00
C534   C     0.17867   0.15923   0.51344   0.00000  Uiso   1.00
C535   C     0.22233   0.15739   0.98950   0.00000  Uiso   1.00
C536   C     0.23710   0.16893   0.94548   0.00000  Uiso   1.00
C537   C     0.20908   0.18087   0.92401   0.00000  Uiso   1.00
Cl538  Cl    0.22441   0.01237   0.69371   0.00000  Uiso   1.00
Cl539  Cl    0.05186   0.19680   0.91785   0.00000  Uiso   1.00
H540   H     0.31880   0.14041   0.79105   0.00000  Uiso   1.00
H541   H     0.27718   0.09627   0.64031   0.00000  Uiso   1.00
H542   H     0.12609   0.33100   0.78935   0.00000  Uiso   1.00
H543   H     0.27079   0.16940   0.92766   0.00000  Uiso   1.00
H544   H     0.28474   0.14404   0.99151   0.00000  Uiso   1.00
H545   H     0.13459   0.15395   0.58020   0.00000  Uiso   1.00
H546   H     0.09162   0.16813   0.54769   0.00000  Uiso   1.00
H547   H     0.04447   0.18545   0.50756   0.00000  Uiso   1.00
H548   H     0.22296   0.19167   0.89076   0.00000  Uiso   1.00
H549   H     0.01617   0.19380   0.70889   0.00000  Uiso   1.00
O550   O     0.16667   0.16667   0.75000   0.00000  Uiso   1.00
O551   O     0.15451   0.12637   0.65459   0.00000  Uiso   1.00
O552   O     0.12940   0.20391   0.84968   0.00000  Uiso   1.00
O553   O     0.20824   0.17759   0.64606   0.00000  Uiso   1.00
O554   O     0.17451   0.15880   0.84968   0.00000  Uiso   1.00
O555   O     0.31169   0.10426   0.54682   0.00000  Uiso   1.00
O556   O     0.29991   0.16620   0.59835   0.00000  Uiso   1.00
O557   O     0.25506   0.09568   0.62360   0.00000  Uiso   1.00
O558   O     0.17930   0.08019   0.78214   0.00000  Uiso   1.00
O559   O     0.14632   0.26085   0.77014   0.00000  Uiso   1.00
O560   O     0.07412   0.13291   0.73413   0.00000  Uiso   1.00
O561   O     0.26693   0.19272   0.71361   0.00000  Uiso   1.00
O562   O     0.07071   0.18878   0.78213   0.00000  Uiso   1.00
O563   O     0.25491   0.15226   0.77014   0.00000  Uiso   1.00
O564   O     0.13760   0.06944   0.73413   0.00000  Uiso   1.00
O565   O     0.20345   0.25620   0.71361   0.00000  Uiso   1.00
S566   S     0.27839   0.12628   0.58089   0.00000  Uiso   1.00
Zn567  Zn    0.19338   0.13994   0.78734   0.00000  Uiso   1.00
Zn568  Zn    0.13379   0.12458   0.71876   0.00000  Uiso   1.00
Zn569  Zn    0.21056   0.19775   0.70657   0.00000  Uiso   1.00
Zn570  Zn    0.12893   0.20439   0.78734   0.00000  Uiso   1.00
C571   C     0.38613   0.15980   0.75994   0.00000  Uiso   1.00
C572   C     0.49975   0.15086   0.55918   0.00000  Uiso   1.00
C573   C     0.57250   0.13821   0.55568   0.00000  Uiso   1.00
C574   C     0.61425   0.17384   0.73985   0.00000  Uiso   1.00
C575   C     0.46859   0.18648   0.92082   0.00000  Uiso   1.00
C576   C     0.66023   0.17647   0.73544   0.00000  Uiso   1.00
C577   C     0.34079   0.15754   0.76401   0.00000  Uiso   1.00
C578   C     0.51456   0.32265   0.73571   0.00000  Uiso   1.00
C579   C     0.48597   0.01179   0.76361   0.00000  Uiso   1.00
C580   C     0.48936   0.05595   0.76045   0.00000  Uiso   1.00
C581   C     0.51014   0.27802   0.73997   0.00000  Uiso   1.00
C582   C     0.41120   0.18369   0.98986   0.00000  Uiso   1.00
C583   C     0.51935   0.14822   0.62925   0.00000  Uiso   1.00
C584   C     0.48139   0.18422   0.87110   0.00000  Uiso   1.00
C585   C     0.58493   0.14567   0.51029   0.00000  Uiso   1.00
C586   C     0.52989   0.14231   0.58049   0.00000  Uiso   1.00
C587   C     0.42508   0.18940   0.94420   0.00000  Uiso   1.00
C588   C     0.43905   0.17361   0.51286   0.00000  Uiso   1.00
C589   C     0.48281   0.17069   0.99108   0.00000  Uiso   1.00
C590   C     0.49802   0.17942   0.94501   0.00000  Uiso   1.00
C591   C     0.51200   0.15923   0.51344   0.00000  Uiso   1.00
C592   C     0.55567   0.15739   0.98950   0.00000  Uiso   1.00
C593   C     0.57043   0.16893   0.94548   0.00000  Uiso   1.00
C594   C     0.54241   0.18087   0.92401   0.00000  Uiso   1.00
Cl595  Cl    0.55775   0.01237   0.69371   0.00000  Uiso   1.00
Cl596  Cl    0.38519   0.19680   0.91785   0.00000  Uiso   1.00
H597   H     0.65214   0.14041   0.79105   0.00000  Uiso   1.00
H598   H     0.61051   0.09627   0.64031   0.00000  Uiso   1.00
H599   H     0.45942   0.33100   0.78935   0.00000  Uiso   1.00
H600   H     0.60412   0.16940   0.92766   0.00000  Uiso   1.00
H601   H     0.61808   0.14404   0.99151   0.00000  Uiso   1.00
H602   H     0.46793   0.15395   0.58020   0.00000  Uiso   1.00
H603   H     0.42496   0.16813   0.54769   0.00000  Uiso   1.00
H604   H     0.37780   0.18545   0.50756   0.00000  Uiso   1.00
H605   H     0.55630   0.19167   0.89076   0.00000  Uiso   1.00
H606   H     0.34950   0.19380   0.70889   0.00000  Uiso   1.00
O607   O     0.50000   0.16667   0.75000   0.00000  Uiso   1.00
O608   O     0.48784   0.12637   0.65459   0.00000  Uiso   1.00
O609   O     0.46274   0.20391   0.84968   0.00000  Uiso   1.00
O610   O     0.54157   0.17759   0.64606   0.00000  Uiso   1.00
O611   O     0.50785   0.15880   0.84968   0.00000  Uiso   1.00
O612   O     0.64502   0.10426   0.54682   0.00000  Uiso   1.00
O613   O     0.63325   0.16620   0.59835   0.00000  Uiso   1.00
O614   O     0.58840   0.09568   0.62360   0.00000  Uiso   1.00
O615   O     0.51264   0.08019   0.78214   0.00000  Uiso   1.00
O616   O     0.47965   0.26085   0.77014   0.00000  Uiso   1.00
O617   O     0.40745   0.13291   0.73413   0.00000  Uiso   1.00
O618   O     0.60026   0.19272   0.71361   0.00000  Uiso   1.00
O619   O     0.40405   0.18878   0.78213   0.00000  Uiso   1.00
O620   O     0.58824   0.15226   0.77014   0.00000  Uiso   1.00
O621   O     0.47093   0.06944   0.73413   0.00000  Uiso   1.00
O622   O     0.53678   0.25620   0.71361   0.00000  Uiso   1.00
S623   S     0.61172   0.12628   0.58089   0.00000  Uiso   1.00
Zn624  Zn    0.52672   0.13994   0.78734   0.00000  Uiso   1.00
Zn625  Zn    0.46713   0.12458   0.71876   0.00000  Uiso   1.00
Zn626  Zn    0.54389   0.19775   0.70657   0.00000  Uiso   1.00
Zn627  Zn    0.46226   0.20439   0.78734   0.00000  Uiso   1.00
C628   C     0.71947   0.15980   0.75994   0.00000  Uiso   1.00
C629   C     0.83309   0.15086   0.55918   0.00000  Uiso   1.00
C630   C     0.90584   0.13821   0.55568   0.00000  Uiso   1.00
C631   C     0.94758   0.17384   0.73985   0.00000  Uiso   1.00
C632   C     0.80192   0.18648   0.92082   0.00000  Uiso   1.00
C633   C     0.99356   0.17647   0.73544   0.00000  Uiso   1.00
C634   C     0.67412   0.15754   0.76401   0.00000  Uiso   1.00
C635   C     0.84790   0.32265   0.73571   0.00000  Uiso   1.00
C636   C     0.81930   0.01179   0.76361   0.00000  Uiso   1.00
C637   C     0.82269   0.05595   0.76045   0.00000  Uiso   1.00
C638   C     0.84347   0.27802   0.73997   0.00000  Uiso   1.00
C639   C     0.74453   0.18369   0.98986   0.00000  Uiso   1.00
C640   C     0.85269   0.14822   0.62925   0.00000  Uiso   1.00
C641   C     0.81472   0.18422   0.87110   0.00000  Uiso   1.00
C642   C     0.91826   0.14567   0.51029   0.00000  Uiso   1.00
C643   C     0.86322   0.14231   0.58049   0.00000  Uiso   1.00
C644   C     0.75842   0.18940   0.94420   0.00000  Uiso   1.00
C645   C     0.77238   0.17361   0.51286   0.00000  Uiso   1.00
C646   C     0.81615   0.17069   0.99108   0.00000  Uiso   1.00
C647   C     0.83135   0.17942   0.94501   0.00000  Uiso   1.00
C648   C     0.84534   0.15923   0.51344   0.00000  Uiso   1.00
C649   C     0.88900   0.15739   0.98950   0.00000  Uiso   1.00
C650   C     0.90377   0.16893   0.94548   0.00000  Uiso   1.00
C651   C     0.87574   0.18087   0.92401   0.00000  Uiso   1.00
Cl652  Cl    0.89108   0.01237   0.69371   0.00000  Uiso   1.00
Cl653  Cl    0.71853   0.19680   0.91785   0.00000  Uiso   1.00
H654   H     0.98547   0.14041   0.79105   0.00000  Uiso   1.00
H655   H     0.94384   0.09627   0.64031   0.00000  Uiso   1.00
H656   H     0.79275   0.33100   0.78935   0.00000  Uiso   1.00
H657   H     0.93746   0.16940   0.92766   0.00000  Uiso   1.00
H658   H     0.95141   0.14404   0.99151   0.00000  Uiso   1.00
H659   H     0.80126   0.15395   0.58020   0.00000  Uiso   1.00
H660   H     0.75829   0.16813   0.54769   0.00000  Uiso   1.00
H661   H     0.71114   0.18545   0.50756   0.00000  Uiso   1.00
H662   H     0.88963   0.19167   0.89076   0.00000  Uiso   1.00
H663   H     0.68283   0.19380   0.70889   0.00000  Uiso   1.00
O664   O     0.83333   0.16667   0.75000   0.00000  Uiso   1.00
O665   O     0.82118   0.12637   0.65459   0.00000  Uiso   1.00
O666   O     0.79607   0.20391   0.84968   0.00000  Uiso   1.00
O667   O     0.87491   0.17759   0.64606   0.00000  Uiso   1.00
O668   O     0.84118   0.15880   0.84968   0.00000  Uiso   1.00
O669   O     0.97835   0.10426   0.54682   0.00000  Uiso   1.00
O670   O     0.96658   0.16620   0.59835   0.00000  Uiso   1.00
O671   O     0.92173   0.09568   0.62360   0.00000  Uiso   1.00
O672   O     0.84597   0.08019   0.78214   0.00000  Uiso   1.00
O673   O     0.81298   0.26085   0.77014   0.00000  Uiso   1.00
O674   O     0.74078   0.13291   0.73413   0.00000  Uiso   1.00
O675   O     0.93360   0.19272   0.71361   0.00000  Uiso   1.00
O676   O     0.73738   0.18878   0.78213   0.00000  Uiso   1.00
O677   O     0.92158   0.15226   0.77014   0.00000  Uiso   1.00
O678   O     0.80426   0.06944   0.73413   0.00000  Uiso   1.00
O679   O     0.87012   0.25620   0.71361   0.00000  Uiso   1.00
S680   S     0.94505   0.12628   0.58089   0.00000  Uiso   1.00
Zn681  Zn    0.86005   0.13994   0.78734   0.00000  Uiso   1.00
Zn682  Zn    0.80046   0.12458   0.71876   0.00000  Uiso   1.00
Zn683  Zn    0.87723   0.19775   0.70657   0.00000  Uiso   1.00
Zn684  Zn    0.79560   0.20439   0.78734   0.00000  Uiso   1.00
C685   C     0.05280   0.49313   0.75994   0.00000  Uiso   1.00
C686   C     0.16642   0.48419   0.55918   0.00000  Uiso   1.00
C687   C     0.23917   0.47155   0.55568   0.00000  Uiso   1.00
C688   C     0.28091   0.50718   0.73985   0.00000  Uiso   1.00
C689   C     0.13525   0.51981   0.92082   0.00000  Uiso   1.00
C690   C     0.32689   0.50981   0.73544   0.00000  Uiso   1.00
C691   C     0.00746   0.49087   0.76401   0.00000  Uiso   1.00
C692   C     0.18123   0.65598   0.73571   0.00000  Uiso   1.00
C693   C     0.15264   0.34512   0.76361   0.00000  Uiso   1.00
C694   C     0.15602   0.38928   0.76045   0.00000  Uiso   1.00
C695   C     0.17681   0.61135   0.73997   0.00000  Uiso   1.00
C696   C     0.07786   0.51702   0.98986   0.00000  Uiso   1.00
C697   C     0.18602   0.48155   0.62925   0.00000  Uiso   1.00
C698   C     0.14806   0.51755   0.87110   0.00000  Uiso   1.00
C699   C     0.25159   0.47901   0.51029   0.00000  Uiso   1.00
C700   C     0.19655   0.47565   0.58049   0.00000  Uiso   1.00
C701   C     0.09175   0.52273   0.94420   0.00000  Uiso   1.00
C702   C     0.10572   0.50694   0.51286   0.00000  Uiso   1.00
C703   C     0.14948   0.50402   0.99108   0.00000  Uiso   1.00
C704   C     0.16469   0.51275   0.94501   0.00000  Uiso   1.00
C705   C     0.17867   0.49257   0.51344   0.00000  Uiso   1.00
C706   C     0.22233   0.49072   0.98950   0.00000  Uiso   1.00
C707   C     0.23710   0.50226   0.94548   0.00000  Uiso   1.00
C708   C     0.20908   0.51420   0.92401   0.00000  Uiso   1.00
Cl709  Cl    0.22441   0.34570   0.69371   0.00000  Uiso   1.00
Cl710  Cl    0.05186   0.53013   0.91785   0.00000  Uiso   1.00
H711   H     0.31880   0.47374   0.79105   0.00000  Uiso   1.00
H712   H     0.27718   0.42961   0.64031   0.00000  Uiso   1.00
H713   H     0.12609   0.66434   0.78935   0.00000  Uiso   1.00
H714   H     0.27079   0.50274   0.92766   0.00000  Uiso   1.00
H715   H     0.28474   0.47737   0.99151   0.00000  Uiso   1.00
H716   H     0.13459   0.48728   0.58020   0.00000  Uiso   1.00
H717   H     0.09162   0.50146   0.54769   0.00000  Uiso   1.00
H718   H     0.04447   0.51879   0.50756   0.00000  Uiso   1.00
H719   H     0.22296   0.52501   0.89076   0.00000  Uiso   1.00
H720   H     0.01617   0.52714   0.70889   0.00000  Uiso   1.00
O721   O     0.16667   0.50000   0.75000   0.00000  Uiso   1.00
O722   O     0.15451   0.45970   0.65459   0.00000  Uiso   1.00
O723   O     0.12940   0.53724   0.84968   0.00000  Uiso   1.00
O724   O     0.20824   0.51092   0.64606   0.00000  Uiso   1.00
O725   O     0.17451   0.49213   0.84968   0.00000  Uiso   1.00
O726   O     0.31169   0.43759   0.54682   0.00000  Uiso   1.00
O727   O     0.29991   0.49953   0.59835   0.00000  Uiso   1.00
O728   O     0.25506   0.42901   0.62360   0.00000  Uiso   1.00
O729   O     0.17930   0.41352   0.78214   0.00000  Uiso   1.00
O730   O     0.14632   0.59418   0.77014   0.00000  Uiso   1.00
O731   O     0.07412   0.46625   0.73413   0.00000  Uiso   1.00
O732   O     0.26693   0.52605   0.71361   0.00000  Uiso   1.00
O733   O     0.07071   0.52211   0.78213   0.00000  Uiso   1.00
O734   O     0.25491   0.48559   0.77014   0.00000  Uiso   1.00
O735   O     0.13760   0.40277   0.73413   0.00000  Uiso   1.00
O736   O     0.20345   0.58953   0.71361   0.00000  Uiso   1.00
S737   S     0.27839   0.45962   0.58089   0.00000  Uiso   1.00
Zn738  Zn    0.19338   0.47327   0.78734   0.00000  Uiso   1.00
Zn739  Zn    0.13379   0.45791   0.71876   0.00000  Uiso   1.00
Zn740  Zn    0.21056   0.53109   0.70657   0.00000  Uiso   1.00
Zn741  Zn    0.12893   0.53773   0.78734   0.00000  Uiso   1.00
C742   C     0.38613   0.49313   0.75994   0.00000  Uiso   1.00
C743   C     0.49975   0.48419   0.55918   0.00000  Uiso   1.00
C744   C     0.57250   0.47155   0.55568   0.00000  Uiso   1.00
C745   C     0.61425   0.50718   0.73985   0.00000  Uiso   1.00
C746   C     0.46859   0.51981   0.92082   0.00000  Uiso   1.00
C747   C     0.66023   0.50981   0.73544   0.00000  Uiso   1.00
C748   C     0.34079   0.49087   0.76401   0.00000  Uiso   1.00
C749   C     0.51456   0.65598   0.73571   0.00000  Uiso   1.00
C750   C     0.48597   0.34512   0.76361   0.00000  Uiso   1.00
C751   C     0.48936   0.38928   0.76045   0.00000  Uiso   1.00
C752   C     0.51014   0.61135   0.73997   0.00000  Uiso   1.00
C753   C     0.41120   0.51702   0.98986   0.00000  Uiso   1.00
C754   C     0.51935   0.48155   0.62925   0.00000  Uiso   1.00
C755   C     0.48139   0.51755   0.87110   0.00000  Uiso   1.00
C756   C     0.58493   0.47901   0.51029   0.00000  Uiso   1.00
C757   C     0.52989   0.47565   0.58049   0.00000  Uiso   1.00
C758   C     0.42508   0.52273   0.94420   0.00000  Uiso   1.00
C759   C     0.43905   0.50694   0.51286   0.00000  Uiso   1.00
C760   C     0.48281   0.50402   0.99108   0.00000  Uiso   1.00
C761   C     0.49802   0.51275   0.94501   0.00000  Uiso   1.00
C762   C     0.51200   0.49257   0.51344   0.00000  Uiso   1.00
C763   C     0.55567   0.49072   0.98950   0.00000  Uiso   1.00
C764   C     0.57043   0.50226   0.94548   0.00000  Uiso   1.00
C765   C     0.54241   0.51420   0.92401   0.00000  Uiso   1.00
Cl766  Cl    0.55775   0.34570   0.69371   0.00000  Uiso   1.00
Cl767  Cl    0.38519   0.53013   0.91785   0.00000  Uiso   1.00
H768   H     0.65214   0.47374   0.79105   0.00000  Uiso   1.00
H769   H     0.61051   0.42961   0.64031   0.00000  Uiso   1.00
H770   H     0.45942   0.66434   0.78935   0.00000  Uiso   1.00
H771   H     0.60412   0.50274   0.92766   0.00000  Uiso   1.00
H772   H     0.61808   0.47737   0.99151   0.00000  Uiso   1.00
H773   H     0.46793   0.48728   0.58020   0.00000  Uiso   1.00
H774   H     0.42496   0.50146   0.54769   0.00000  Uiso   1.00
H775   H     0.37780   0.51879   0.50756   0.00000  Uiso   1.00
H776   H     0.55630   0.52501   0.89076   0.00000  Uiso   1.00
H777   H     0.34950   0.52714   0.70889   0.00000  Uiso   1.00
O778   O     0.50000   0.50000   0.75000   0.00000  Uiso   1.00
O779   O     0.48784   0.45970   0.65459   0.00000  Uiso   1.00
O780   O     0.46274   0.53724   0.84968   0.00000  Uiso   1.00
O781   O     0.54157   0.51092   0.64606   0.00000  Uiso   1.00
O782   O     0.50785   0.49213   0.84968   0.00000  Uiso   1.00
O783   O     0.64502   0.43759   0.54682   0.00000  Uiso   1.00
O784   O     0.63325   0.49953   0.59835   0.00000  Uiso   1.00
O785   O     0.58840   0.42901   0.62360   0.00000  Uiso   1.00
O786   O     0.51264   0.41352   0.78214   0.00000  Uiso   1.00
O787   O     0.47965   0.59418   0.77014   0.00000  Uiso   1.00
O788   O     0.40745   0.46625   0.73413   0.00000  Uiso   1.00
O789   O     0.60026   0.52605   0.71361   0.00000  Uiso   1.00
O790   O     0.40405   0.52211   0.78213   0.00000  Uiso   1.00
O791   O     0.58824   0.48559   0.77014   0.00000  Uiso   1.00
O792   O     0.47093   0.40277   0.73413   0.00000  Uiso   1.00
O793   O     0.53678   0.58953   0.71361   0.00000  Uiso   1.00
S794   S     0.61172   0.45962   0.58089   0.00000  Uiso   1.00
Zn795  Zn    0.52672   0.47327   0.78734   0.00000  Uiso   1.00
Zn796  Zn    0.46713   0.45791   0.71876   0.00000  Uiso   1.00
Zn797  Zn    0.54389   0.53109   0.70657   0.00000  Uiso   1.00
Zn798  Zn    0.46226   0.53773   0.78734   0.00000  Uiso   1.00
C799   C     0.71947   0.49313   0.75994   0.00000  Uiso   1.00
C800   C     0.83309   0.48419   0.55918   0.00000  Uiso   1.00
C801   C     0.90584   0.47155   0.55568   0.00000  Uiso   1.00
C802   C     0.94758   0.50718   0.73985   0.00000  Uiso   1.00
C803   C     0.80192   0.51981   0.92082   0.00000  Uiso   1.00
C804   C     0.99356   0.50981   0.73544   0.00000  Uiso   1.00
C805   C     0.67412   0.49087   0.76401   0.00000  Uiso   1.00
C806   C     0.84790   0.65598   0.73571   0.00000  Uiso   1.00
C807   C     0.81930   0.34512   0.76361   0.00000  Uiso   1.00
C808   C     0.82269   0.38928   0.76045   0.00000  Uiso   1.00
C809   C     0.84347   0.61135   0.73997   0.00000  Uiso   1.00
C810   C     0.74453   0.51702   0.98986   0.00000  Uiso   1.00
C811   C     0.85269   0.48155   0.62925   0.00000  Uiso   1.00
C812   C     0.81472   0.51755   0.87110   0.00000  Uiso   1.00
C813   C     0.91826   0.47901   0.51029   0.00000  Uiso   1.00
C814   C     0.86322   0.47565   0.58049   0.00000  Uiso   1.00
C815   C     0.75842   0.52273   0.94420   0.00000  Uiso   1.00
C816   C     0.77238   0.50694   0.51286   0.00000  Uiso   1.00
C817   C     0.81615   0.50402   0.99108   0.00000  Uiso   1.00
C818   C     0.83135   0.51275   0.94501   0.00000  Uiso   1.00
C819   C     0.84534   0.49257   0.51344   0.00000  Uiso   1.00
C820   C     0.88900   0.49072   0.98950   0.00000  Uiso   1.00
C821   C     0.90377   0.50226   0.94548   0.00000  Uiso   1.00
C822   C     0.87574   0.51420   0.92401   0.00000  Uiso   1.00
Cl823  Cl    0.89108   0.34570   0.69371   0.00000  Uiso   1.00
Cl824  Cl    0.71853   0.53013   0.91785   0.00000  Uiso   1.00
H825   H     0.98547   0.47374   0.79105   0.00000  Uiso   1.00
H826   H     0.94384   0.42961   0.64031   0.00000  Uiso   1.00
H827   H     0.79275   0.66434   0.78935   0.00000  Uiso   1.00
H828   H     0.93746   0.50274   0.92766   0.00000  Uiso   1.00
H829   H     0.95141   0.47737   0.99151   0.00000  Uiso   1.00
H830   H     0.80126   0.48728   0.58020   0.00000  Uiso   1.00
H831   H     0.75829   0.50146   0.54769   0.00000  Uiso   1.00
H832   H     0.71114   0.51879   0.50756   0.00000  Uiso   1.00
H833   H     0.88963   0.52501   0.89076   0.00000  Uiso   1.00
H834   H     0.68283   0.52714   0.70889   0.00000  Uiso   1.00
O835   O     0.83333   0.50000   0.75000   0.00000  Uiso   1.00
O836   O     0.82118   0.45970   0.65459   0.00000  Uiso   1.00
O837   O     0.79607   0.53724   0.84968   0.00000  Uiso   1.00
O838   O     0.87491   0.51092   0.64606   0.00000  Uiso   1.00
O839   O     0.84118   0.49213   0.84968   0.00000  Uiso   1.00
O840   O     0.97835   0.43759   0.54682   0.00000  Uiso   1.00
O841   O     0.96658   0.49953   0.59835   0.00000  Uiso   1.00
O842   O     0.92173   0.42901   0.62360   0.00000  Uiso   1.00
O843   O     0.84597   0.41352   0.78214   0.00000  Uiso   1.00
O844   O     0.81298   0.59418   0.77014   0.00000  Uiso   1.00
O845   O     0.74078   0.46625   0.73413   0.00000  Uiso   1.00
O846   O     0.93360   0.52605   0.71361   0.00000  Uiso   1.00
O847   O     0.73738   0.52211   0.78213   0.00000  Uiso   1.00
O848   O     0.92158   0.48559   0.77014   0.00000  Uiso   1.00
O849   O     0.80426   0.40277   0.73413   0.00000  Uiso   1.00
O850   O     0.87012   0.58953   0.71361   0.00000  Uiso   1.00
S851   S     0.94505   0.45962   0.58089   0.00000  Uiso   1.00
Zn852  Zn    0.86005   0.47327   0.78734   0.00000  Uiso   1.00
Zn853  Zn    0.80046   0.45791   0.71876   0.00000  Uiso   1.00
Zn854  Zn    0.87723   0.53109   0.70657   0.00000  Uiso   1.00
Zn855  Zn    0.79560   0.53773   0.78734   0.00000  Uiso   1.00
C856   C     0.05280   0.82646   0.75994   0.00000  Uiso   1.00
C857   C     0.16642   0.81752   0.55918   0.00000  Uiso   1.00
C858   C     0.23917   0.80488   0.55568   0.00000  Uiso   1.00
C859   C     0.28091   0.84051   0.73985   0.00000  Uiso   1.00
C860   C     0.13525   0.85315   0.92082   0.00000  Uiso   1.00
C861   C     0.32689   0.84314   0.73544   0.00000  Uiso   1.00
C862   C     0.00746   0.82420   0.76401   0.00000  Uiso   1.00
C863   C     0.18123   0.98931   0.73571   0.00000  Uiso   1.00
C864   C     0.15264   0.67845   0.76361   0.00000  Uiso   1.00
C865   C     0.15602   0.72262   0.76045   0.00000  Uiso   1.00
C866   C     0.17681   0.94468   0.73997   0.00000  Uiso   1.00
C867   C     0.07786   0.85036   0.98986   0.00000  Uiso   1.00
C868   C     0.18602   0.81488   0.62925   0.00000  Uiso   1.00
C869   C     0.14806   0.85088   0.87110   0.00000  Uiso   1.00
C870   C     0.25159   0.81234   0.51029   0.00000  Uiso   1.00
C871   C     0.19655   0.80898   0.58049   0.00000  Uiso   1.00
C872   C     0.09175   0.85606   0.94420   0.00000  Uiso   1.00
C873   C     0.10572   0.84027   0.51286   0.00000  Uiso   1.00
C874   C     0.14948   0.83735   0.99108   0.00000  Uiso   1.00
C875   C     0.16469   0.84608   0.94501   0.00000  Uiso   1.00
C876   C     0.17867   0.82590   0.51344   0.00000  Uiso   1.00
C877   C     0.22233   0.82405   0.98950   0.00000  Uiso   1.00
C878   C     0.23710   0.83560   0.94548   0.00000  Uiso   1.00
C879   C     0.20908   0.84754   0.92401   0.00000  Uiso   1.00
Cl880  Cl    0.22441   0.67904   0.69371   0.00000  Uiso   1.00
Cl881  Cl    0.05186   0.86347   0.91785   0.00000  Uiso   1.00
H882   H     0.31880   0.80708   0.79105   0.00000  Uiso   1.00
H883   H     0.27718   0.76294   0.64031   0.00000  Uiso   1.00
H884   H     0.12609   0.99767   0.78935   0.00000  Uiso   1.00
H885   H     0.27079   0.83607   0.92766   0.00000  Uiso   1.00
H886   H     0.28474   0.81070   0.99151   0.00000  Uiso   1.00
H887   H     0.13459   0.82061   0.58020   0.00000  Uiso   1.00
H888   H     0.09162   0.83480   0.54769   0.00000  Uiso   1.00
H889   H     0.04447   0.85212   0.50756   0.00000  Uiso   1.00
H890   H     0.22296   0.85834   0.89076   0.00000  Uiso   1.00
H891   H     0.01617   0.86047   0.70889   0.00000  Uiso   1.00
O892   O     0.16667   0.83333   0.75000   0.00000  Uiso   1.00
O893   O     0.15451   0.79304   0.65459   0.00000  Uiso   1.00
O894   O     0.12940   0.87058   0.84968   0.00000  Uiso   1.00
O895   O     0.20824   0.84425   0.64606   0.00000  Uiso   1.00
O896   O     0.17451   0.82546   0.84968   0.00000  Uiso   1.00
O897   O     0.31169   0.77093   0.54682   0.00000  Uiso   1.00
O898   O     0.29991   0.83286   0.59835   0.00000  Uiso   1.00
O899   O     0.25506   0.76234   0.62360   0.00000  Uiso   1.00
O900   O     0.17930   0.74686   0.78214   0.00000  Uiso   1.00
O901   O     0.14632   0.92751   0.77014   0.00000  Uiso   1.00
O902   O     0.07412   0.79958   0.73413   0.00000  Uiso   1.00
O903   O     0.26693   0.85939   0.71361   0.00000  Uiso   1.00
O904   O     0.07071   0.85544   0.78213   0.00000  Uiso   1.00
O905   O     0.25491   0.81892   0.77014   0.00000  Uiso   1.00
O906   O     0.13760   0.73610   0.73413   0.00000  Uiso   1.00
O907   O     0.20345   0.92286   0.71361   0.00000  Uiso   1.00
S908   S     0.27839   0.79295   0.58089   0.00000  Uiso   1.00
Zn909  Zn    0.19338   0.80661   0.78734   0.00000  Uiso   1.00
Zn910  Zn    0.13379   0.79124   0.71876   0.00000  Uiso   1.00
Zn911  Zn    0.21056   0.86442   0.70657   0.00000  Uiso   1.00
Zn912  Zn    0.12893   0.87106   0.78734   0.00000  Uiso   1.00
C913   C     0.38613   0.82646   0.75994   0.00000  Uiso   1.00
C914   C     0.49975   0.81752   0.55918   0.00000  Uiso   1.00
C915   C     0.57250   0.80488   0.55568   0.00000  Uiso   1.00
C916   C     0.61425   0.84051   0.73985   0.00000  Uiso   1.00
C917   C     0.46859   0.85315   0.92082   0.00000  Uiso   1.00
C918   C     0.66023   0.84314   0.73544   0.00000  Uiso   1.00
C919   C     0.34079   0.82420   0.76401   0.00000  Uiso   1.00
C920   C     0.51456   0.98931   0.73571   0.00000  Uiso   1.00
C921   C     0.48597   0.67845   0.76361   0.00000  Uiso   1.00
C922   C     0.48936   0.72262   0.76045   0.00000  Uiso   1.00
C923   C     0.51014   0.94468   0.73997   0.00000  Uiso   1.00
C924   C     0.41120   0.85036   0.98986   0.00000  Uiso   1.00
C925   C     0.51935   0.81488   0.62925   0.00000  Uiso   1.00
C926   C     0.48139   0.85088   0.87110   0.00000  Uiso   1.00
C927   C     0.58493   0.81234   0.51029   0.00000  Uiso   1.00
C928   C     0.52989   0.80898   0.58049   0.00000  Uiso   1.00
C929   C     0.42508   0.85606   0.94420   0.00000  Uiso   1.00
C930   C     0.43905   0.84027   0.51286   0.00000  Uiso   1.00
C931   C     0.48281   0.83735   0.99108   0.00000  Uiso   1.00
C932   C     0.49802   0.84608   0.94501   0.00000  Uiso   1.00
C933   C     0.51200   0.82590   0.51344   0.00000  Uiso   1.00
C934   C     0.55567   0.82405   0.98950   0.00000  Uiso   1.00
C935   C     0.57043   0.83560   0.94548   0.00000  Uiso   1.00
C936   C     0.54241   0.84754   0.92401   0.00000  Uiso   1.00
Cl937  Cl    0.55775   0.67904   0.69371   0.00000  Uiso   1.00
Cl938  Cl    0.38519   0.86347   0.91785   0.00000  Uiso   1.00
H939   H     0.65214   0.80708   0.79105   0.00000  Uiso   1.00
H940   H     0.61051   0.76294   0.64031   0.00000  Uiso   1.00
H941   H     0.45942   0.99767   0.78935   0.00000  Uiso   1.00
H942   H     0.60412   0.83607   0.92766   0.00000  Uiso   1.00
H943   H     0.61808   0.81070   0.99151   0.00000  Uiso   1.00
H944   H     0.46793   0.82061   0.58020   0.00000  Uiso   1.00
H945   H     0.42496   0.83480   0.54769   0.00000  Uiso   1.00
H946   H     0.37780   0.85212   0.50756   0.00000  Uiso   1.00
H947   H     0.55630   0.85834   0.89076   0.00000  Uiso   1.00
H948   H     0.34950   0.86047   0.70889   0.00000  Uiso   1.00
O949   O     0.50000   0.83333   0.75000   0.00000  Uiso   1.00
O950   O     0.48784   0.79304   0.65459   0.00000  Uiso   1.00
O951   O     0.46274   0.87058   0.84968   0.00000  Uiso   1.00
O952   O     0.54157   0.84425   0.64606   0.00000  Uiso   1.00
O953   O     0.50785   0.82546   0.84968   0.00000  Uiso   1.00
O954   O     0.64502   0.77093   0.54682   0.00000  Uiso   1.00
O955   O     0.63325   0.83286   0.59835   0.00000  Uiso   1.00
O956   O     0.58840   0.76234   0.62360   0.00000  Uiso   1.00
O957   O     0.51264   0.74686   0.78214   0.00000  Uiso   1.00
O958   O     0.47965   0.92751   0.77014   0.00000  Uiso   1.00
O959   O     0.40745   0.79958   0.73413   0.00000  Uiso   1.00
O960   O     0.60026   0.85939   0.71361   0.00000  Uiso   1.00
O961   O     0.40405   0.85544   0.78213   0.00000  Uiso   1.00
O962   O     0.58824   0.81892   0.77014   0.00000  Uiso   1.00
O963   O     0.47093   0.73610   0.73413   0.00000  Uiso   1.00
O964   O     0.53678   0.92286   0.71361   0.00000  Uiso   1.00
S965   S     0.61172   0.79295   0.58089   0.00000  Uiso   1.00
Zn966  Zn    0.52672   0.80661   0.78734   0.00000  Uiso   1.00
Zn967  Zn    0.46713   0.79124   0.71876   0.00000  Uiso   1.00
Zn968  Zn    0.54389   0.86442   0.70657   0.00000  Uiso   1.00
Zn969  Zn    0.46226   0.87106   0.78734   0.00000  Uiso   1.00
C970   C     0.71947   0.82646   0.75994   0.00000  Uiso   1.00
C971   C     0.83309   0.81752   0.55918   0.00000  Uiso   1.00
C972   C     0.90584   0.80488   0.55568   0.00000  Uiso   1.00
C973   C     0.94758   0.84051   0.73985   0.00000  Uiso   1.00
C974   C     0.80192   0.85315   0.92082   0.00000  Uiso   1.00
C975   C     0.99356   0.84314   0.73544   0.00000  Uiso   1.00
C976   C     0.67412   0.82420   0.76401   0.00000  Uiso   1.00
C977   C     0.84790   0.98931   0.73571   0.00000  Uiso   1.00
C978   C     0.81930   0.67845   0.76361   0.00000  Uiso   1.00
C979   C     0.82269   0.72262   0.76045   0.00000  Uiso   1.00
C980   C     0.84347   0.94468   0.73997   0.00000  Uiso   1.00
C981   C     0.74453   0.85036   0.98986   0.00000  Uiso   1.00
C982   C     0.85269   0.81488   0.62925   0.00000  Uiso   1.00
C983   C     0.81472   0.85088   0.87110   0.00000  Uiso   1.00
C984   C     0.91826   0.81234   0.51029   0.00000  Uiso   1.00
C985   C     0.86322   0.80898   0.58049   0.00000  Uiso   1.00
C986   C     0.75842   0.85606   0.94420   0.00000  Uiso   1.00
C987   C     0.77238   0.84027   0.51286   0.00000  Uiso   1.00
C988   C     0.81615   0.83735   0.99108   0.00000  Uiso   1.00
C989   C     0.83135   0.84608   0.94501   0.00000  Uiso   1.00
C990   C     0.84534   0.82590   0.51344   0.00000  Uiso   1.00
C991   C     0.88900   0.82405   0.98950   0.00000  Uiso   1.00
C992   C     0.90377   0.83560   0.94548   0.00000  Uiso   1.00
C993   C     0.87574   0.84754   0.92401   0.00000  Uiso   1.00
Cl994  Cl    0.89108   0.67904   0.69371   0.00000  Uiso   1.00
Cl995  Cl    0.71853   0.86347   0.91785   0.00000  Uiso   1.00
H996   H     0.98547   0.80708   0.79105   0.00000  Uiso   1.00
H997   H     0.94384   0.76294   0.64031   0.00000  Uiso   1.00
H998   H     0.79275   0.99767   0.78935   0.00000  Uiso   1.00
H999   H     0.93746   0.83607   0.92766   0.00000  Uiso   1.00
H1000  H     0.95141   0.81070   0.99151   0.00000  Uiso   1.00
H1001  H     0.80126   0.82061   0.58020   0.00000  Uiso   1.00
H1002  H     0.75829   0.83480   0.54769   0.00000  Uiso   1.00
H1003  H     0.71114   0.85212   0.50756   0.00000  Uiso   1.00
H1004  H     0.88963   0.85834   0.89076   0.00000  Uiso   1.00
H1005  H     0.68283   0.86047   0.70889   0.00000  Uiso   1.00
O1006  O     0.83333   0.83333   0.75000   0.00000  Uiso   1.00
O1007  O     0.82118   0.79304   0.65459   0.00000  Uiso   1.00
O1008  O     0.79607   0.87058   0.84968   0.00000  Uiso   1.00
O1009  O     0.87491   0.84425   0.64606   0.00000  Uiso   1.00
O1010  O     0.84118   0.82546   0.84968   0.00000  Uiso   1.00
O1011  O     0.97835   0.77093   0.54682   0.00000  Uiso   1.00
O1012  O     0.96658   0.83286   0.59835   0.00000  Uiso   1.00
O1013  O     0.92173   0.76234   0.62360   0.00000  Uiso   1.00
O1014  O     0.84597   0.74686   0.78214   0.00000  Uiso   1.00
O1015  O     0.81298   0.92751   0.77014   0.00000  Uiso   1.00
O1016  O     0.74078   0.79958   0.73413   0.00000  Uiso   1.00
O1017  O     0.93360   0.85939   0.71361   0.00000  Uiso   1.00
O1018  O     0.73738   0.85544   0.78213   0.00000  Uiso   1.00
O1019  O     0.92158   0.81892   0.77014   0.00000  Uiso   1.00
O1020  O     0.80426   0.73610   0.73413   0.00000  Uiso   1.00
O1021  O     0.87012   0.92286   0.71361   0.00000  Uiso   1.00
S1022  S     0.94505   0.79295   0.58089   0.00000  Uiso   1.00
Zn1023 Zn    0.86005   0.80661   0.78734   0.00000  Uiso   1.00
Zn1024 Zn    0.80046   0.79124   0.71876   0.00000  Uiso   1.00
Zn1025 Zn    0.87723   0.86442   0.70657   0.00000  Uiso   1.00
Zn1026 Zn    0.79560   0.87106   0.78734   0.00000  Uiso   1.00
loop_
_geom_bond_atom_site_label_1
_geom_bond_atom_site_label_2
_geom_bond_distance
_geom_bond_site_symmetry_2
_ccdc_geom_bond_type
C1     O47     1.274   .     A
C1     C7      1.437   .     S
C1     O49     1.273   .     A
C2     C16     1.394   .     A
C2     C21     1.410   .     A
C2     H32     1.077   .     S
C3     S53     1.772   .     S
C3     C16     1.410   .     A
C3     C15     1.393   .     A
C4     C6      1.455   .     S
C4     O48     1.278   .     A
C4     O50     1.274   .     A
C5     C14     1.482   .     S
C5     C20     1.422   .     A
C5     C17     1.417   .     A
C6     C64     1.335   .     S
C6     H93     1.088   .     S
C7     C120    1.335   1_455 S
C7     H141    1.086   1_455 S
C8     C11     1.455   .     S
C8     C180    1.336   .     S
C8     Cl196   1.770   .     S
C9     C10     1.437   .     S
C9     C350    1.336   1_545 S
C9     H371    1.086   1_545 S
C10    O45     1.279   .     A
C10    O51     1.279   .     A
C11    O52     1.267   .     A
C11    O46     1.270   .     A
C12    C17     1.389   .     A
C12    C531    1.387   .     S
C12    H547    1.084   .     S
C13    O38     1.280   .     A
C13    C16     1.457   .     S
C13    O40     1.266   .     A
C14    O41     1.287   .     A
C14    O39     1.282   .     A
C15    C535    1.399   1_554 S
C15    H544    1.084   1_554 S
C17    Cl26    1.765   .     S
C18    H33     1.076   .     S
C18    C525    1.387   1_554 S
C18    C532    1.414   1_554 S
C19    C20     1.424   .     A
C19    C531    1.414   .     S
C19    C534    1.427   .     S
C20    C24     1.410   .     A
C21    C532    1.427   1_554 S
C21    C535    1.421   1_554 S
C22    C23     1.391   .     A
C22    C528    1.399   .     S
C22    C534    1.421   .     S
C23    C24     1.383   .     A
C23    H30     1.084   .     S
C24    H35     1.081   .     S
Cl25   C350    1.770   1_545 S
H27    C64     1.086   .     S
H28    O44     0.991   .     S
H29    C180    1.086   .     S
H31    C528    1.084   .     S
H34    C525    1.084   1_554 S
H36    C120    1.088   1_455 S
O37    Zn54    1.957   .     S
O37    Zn56    1.921   .     S
O37    Zn57    1.934   .     S
O37    Zn55    1.951   .     S
O38    Zn55    1.926   .     S
O39    Zn57    1.940   .     S
O40    Zn56    1.941   .     S
O41    Zn54    1.928   .     S
O42    S53     1.503   .     D
O43    S53     1.503   .     D
O44    S53     1.682   .     S
O45    Zn54    1.931   .     S
O46    Zn57    1.927   .     S
O47    Zn55    1.923   .     S
O48    Zn56    1.936   .     S
O49    Zn57    1.932   .     S
O50    Zn54    1.918   .     S
O51    Zn55    1.934   .     S
O52    Zn56    1.933   .     S
C58    O104    1.274   .     A
C58    C64     1.437   .     S
C58    O106    1.273   .     A
C59    C73     1.394   .     A
C59    C78     1.410   .     A
C59    H89     1.077   .     S
C60    S110    1.772   .     S
C60    C73     1.410   .     A
C60    C72     1.393   .     A
C61    C63     1.455   .     S
C61    O105    1.278   .     A
C61    O107    1.274   .     A
C62    C71     1.482   .     S
C62    C77     1.422   .     A
C62    C74     1.417   .     A
C63    C121    1.335   .     S
C63    H150    1.088   .     S
C65    C68     1.455   .     S
C65    C237    1.336   .     S
C65    Cl253   1.770   .     S
C66    C67     1.437   .     S
C66    C407    1.336   1_545 S
C66    H428    1.086   1_545 S
C67    O102    1.279   .     A
C67    O108    1.279   .     A
C68    O109    1.267   .     A
C68    O103    1.270   .     A
C69    C74     1.389   .     A
C69    C588    1.387   .     S
C69    H604    1.084   .     S
C70    O95     1.280   .     A
C70    C73     1.457   .     S
C70    O97     1.266   .     A
C71    O98     1.287   .     A
C71    O96     1.282   .     A
C72    C592    1.399   1_554 S
C72    H601    1.084   1_554 S
C74    Cl83    1.765   .     S
C75    H90     1.076   .     S
C75    C582    1.387   1_554 S
C75    C589    1.414   1_554 S
C76    C77     1.424   .     A
C76    C588    1.414   .     S
C76    C591    1.427   .     S
C77    C81     1.410   .     A
C78    C589    1.427   1_554 S
C78    C592    1.421   1_554 S
C79    C80     1.391   .     A
C79    C585    1.399   .     S
C79    C591    1.421   .     S
C80    C81     1.383   .     A
C80    H87     1.084   .     S
C81    H92     1.081   .     S
Cl82   C407    1.770   1_545 S
H84    C121    1.086   .     S
H85    O101    0.991   .     S
H86    C237    1.086   .     S
H88    C585    1.084   .     S
H91    C582    1.084   1_554 S
O94    Zn111   1.957   .     S
O94    Zn113   1.921   .     S
O94    Zn114   1.934   .     S
O94    Zn112   1.951   .     S
O95    Zn112   1.926   .     S
O96    Zn114   1.940   .     S
O97    Zn113   1.941   .     S
O98    Zn111   1.928   .     S
O99    S110    1.503   .     D
O100   S110    1.503   .     D
O101   S110    1.682   .     S
O102   Zn111   1.931   .     S
O103   Zn114   1.927   .     S
O104   Zn112   1.923   .     S
O105   Zn113   1.936   .     S
O106   Zn114   1.932   .     S
O107   Zn111   1.918   .     S
O108   Zn112   1.934   .     S
O109   Zn113   1.933   .     S
C115   O161    1.274   .     A
C115   C121    1.437   .     S
C115   O163    1.273   .     A
C116   C130    1.394   .     A
C116   C135    1.410   .     A
C116   H146    1.077   .     S
C117   S167    1.772   .     S
C117   C130    1.410   .     A
C117   C129    1.393   .     A
C118   C120    1.455   .     S
C118   O162    1.278   .     A
C118   O164    1.274   .     A
C119   C128    1.482   .     S
C119   C134    1.422   .     A
C119   C131    1.417   .     A
C120   C7      1.335   1_655 S
C120   H36     1.088   1_655 S
C122   C125    1.455   .     S
C122   C294    1.336   .     S
C122   Cl310   1.770   .     S
C123   C124    1.437   .     S
C123   C464    1.336   1_545 S
C123   H485    1.086   1_545 S
C124   O159    1.279   .     A
C124   O165    1.279   .     A
C125   O166    1.267   .     A
C125   O160    1.270   .     A
C126   C131    1.389   .     A
C126   C645    1.387   .     S
C126   H661    1.084   .     S
C127   O152    1.280   .     A
C127   C130    1.457   .     S
C127   O154    1.266   .     A
C128   O155    1.287   .     A
C128   O153    1.282   .     A
C129   C649    1.399   1_554 S
C129   H658    1.084   1_554 S
C131   Cl140   1.765   .     S
C132   H147    1.076   .     S
C132   C639    1.387   1_554 S
C132   C646    1.414   1_554 S
C133   C134    1.424   .     A
C133   C645    1.414   .     S
C133   C648    1.427   .     S
C134   C138    1.410   .     A
C135   C646    1.427   1_554 S
C135   C649    1.421   1_554 S
C136   C137    1.391   .     A
C136   C642    1.399   .     S
C136   C648    1.421   .     S
C137   C138    1.383   .     A
C137   H144    1.084   .     S
C138   H149    1.081   .     S
Cl139  C464    1.770   1_545 S
H141   C7      1.086   1_655 S
H142   O158    0.991   .     S
H143   C294    1.086   .     S
H145   C642    1.084   .     S
H148   C639    1.084   1_554 S
O151   Zn168   1.957   .     S
O151   Zn170   1.921   .     S
O151   Zn171   1.934   .     S
O151   Zn169   1.951   .     S
O152   Zn169   1.926   .     S
O153   Zn171   1.940   .     S
O154   Zn170   1.941   .     S
O155   Zn168   1.928   .     S
O156   S167    1.503   .     D
O157   S167    1.503   .     D
O158   S167    1.682   .     S
O159   Zn168   1.931   .     S
O160   Zn171   1.927   .     S
O161   Zn169   1.923   .     S
O162   Zn170   1.936   .     S
O163   Zn171   1.932   .     S
O164   Zn168   1.918   .     S
O165   Zn169   1.934   .     S
O166   Zn170   1.933   .     S
C172   O218    1.274   .     A
C172   C178    1.437   .     S
C172   O220    1.273   .     A
C173   C187    1.394   .     A
C173   C192    1.410   .     A
C173   H203    1.077   .     S
C174   S224    1.772   .     S
C174   C187    1.410   .     A
C174   C186    1.393   .     A
C175   C177    1.455   .     S
C175   O219    1.278   .     A
C175   O221    1.274   .     A
C176   C185    1.482   .     S
C176   C191    1.422   .     A
C176   C188    1.417   .     A
C177   C235    1.335   .     S
C177   H264    1.088   .     S
C178   C291    1.335   1_455 S
C178   H312    1.086   1_455 S
C179   C182    1.455   .     S
C179   C351    1.336   .     S
C179   Cl367   1.770   .     S
C180   C181    1.437   .     S
C181   O216    1.279   .     A
C181   O222    1.279   .     A
C182   O223    1.267   .     A
C182   O217    1.270   .     A
C183   C188    1.389   .     A
C183   C702    1.387   .     S
C183   H718    1.084   .     S
C184   O209    1.280   .     A
C184   C187    1.457   .     S
C184   O211    1.266   .     A
C185   O212    1.287   .     A
C185   O210    1.282   .     A
C186   C706    1.399   1_554 S
C186   H715    1.084   1_554 S
C188   Cl197   1.765   .     S
C189   H204    1.076   .     S
C189   C696    1.387   1_554 S
C189   C703    1.414   1_554 S
C190   C191    1.424   .     A
C190   C702    1.414   .     S
C190   C705    1.427   .     S
C191   C195    1.410   .     A
C192   C703    1.427   1_554 S
C192   C706    1.421   1_554 S
C193   C194    1.391   .     A
C193   C699    1.399   .     S
C193   C705    1.421   .     S
C194   C195    1.383   .     A
C194   H201    1.084   .     S
C195   H206    1.081   .     S
H198   C235    1.086   .     S
H199   O215    0.991   .     S
H200   C351    1.086   .     S
H202   C699    1.084   .     S
H205   C696    1.084   1_554 S
H207   C291    1.088   1_455 S
O208   Zn225   1.957   .     S
O208   Zn227   1.921   .     S
O208   Zn228   1.934   .     S
O208   Zn226   1.951   .     S
O209   Zn226   1.926   .     S
O210   Zn228   1.940   .     S
O211   Zn227   1.941   .     S
O212   Zn225   1.928   .     S
O213   S224    1.503   .     D
O214   S224    1.503   .     D
O215   S224    1.682   .     S
O216   Zn225   1.931   .     S
O217   Zn228   1.927   .     S
O218   Zn226   1.923   .     S
O219   Zn227   1.936   .     S
O220   Zn228   1.932   .     S
O221   Zn225   1.918   .     S
O222   Zn226   1.934   .     S
O223   Zn227   1.933   .     S
C229   O275    1.274   .     A
C229   C235    1.437   .     S
C229   O277    1.273   .     A
C230   C244    1.394   .     A
C230   C249    1.410   .     A
C230   H260    1.077   .     S
C231   S281    1.772   .     S
C231   C244    1.410   .     A
C231   C243    1.393   .     A
C232   C234    1.455   .     S
C232   O276    1.278   .     A
C232   O278    1.274   .     A
C233   C242    1.482   .     S
C233   C248    1.422   .     A
C233   C245    1.417   .     A
C234   C292    1.335   .     S
C234   H321    1.088   .     S
C236   C239    1.455   .     S
C236   C408    1.336   .     S
C236   Cl424   1.770   .     S
C237   C238    1.437   .     S
C238   O273    1.279   .     A
C238   O279    1.279   .     A
C239   O280    1.267   .     A
C239   O274    1.270   .     A
C240   C245    1.389   .     A
C240   C759    1.387   .     S
C240   H775    1.084   .     S
C241   O266    1.280   .     A
C241   C244    1.457   .     S
C241   O268    1.266   .     A
C242   O269    1.287   .     A
C242   O267    1.282   .     A
C243   C763    1.399   1_554 S
C243   H772    1.084   1_554 S
C245   Cl254   1.765   .     S
C246   H261    1.076   .     S
C246   C753    1.387   1_554 S
C246   C760    1.414   1_554 S
C247   C248    1.424   .     A
C247   C759    1.414   .     S
C247   C762    1.427   .     S
C248   C252    1.410   .     A
C249   C760    1.427   1_554 S
C249   C763    1.421   1_554 S
C250   C251    1.391   .     A
C250   C756    1.399   .     S
C250   C762    1.421   .     S
C251   C252    1.383   .     A
C251   H258    1.084   .     S
C252   H263    1.081   .     S
H255   C292    1.086   .     S
H256   O272    0.991   .     S
H257   C408    1.086   .     S
H259   C756    1.084   .     S
H262   C753    1.084   1_554 S
O265   Zn282   1.957   .     S
O265   Zn284   1.921   .     S
O265   Zn285   1.934   .     S
O265   Zn283   1.951   .     S
O266   Zn283   1.926   .     S
O267   Zn285   1.940   .     S
O268   Zn284   1.941   .     S
O269   Zn282   1.928   .     S
O270   S281    1.503   .     D
O271   S281    1.503   .     D
O272   S281    1.682   .     S
O273   Zn282   1.931   .     S
O274   Zn285   1.927   .     S
O275   Zn283   1.923   .     S
O276   Zn284   1.936   .     S
O277   Zn285   1.932   .     S
O278   Zn282   1.918   .     S
O279   Zn283   1.934   .     S
O280   Zn284   1.933   .     S
C286   O332    1.274   .     A
C286   C292    1.437   .     S
C286   O334    1.273   .     A
C287   C301    1.394   .     A
C287   C306    1.410   .     A
C287   H317    1.077   .     S
C288   S338    1.772   .     S
C288   C301    1.410   .     A
C288   C300    1.393   .     A
C289   C291    1.455   .     S
C289   O333    1.278   .     A
C289   O335    1.274   .     A
C290   C299    1.482   .     S
C290   C305    1.422   .     A
C290   C302    1.417   .     A
C291   C178    1.335   1_655 S
C291   H207    1.088   1_655 S
C293   C296    1.455   .     S
C293   C465    1.336   .     S
C293   Cl481   1.770   .     S
C294   C295    1.437   .     S
C295   O330    1.279   .     A
C295   O336    1.279   .     A
C296   O337    1.267   .     A
C296   O331    1.270   .     A
C297   C302    1.389   .     A
C297   C816    1.387   .     S
C297   H832    1.084   .     S
C298   O323    1.280   .     A
C298   C301    1.457   .     S
C298   O325    1.266   .     A
C299   O326    1.287   .     A
C299   O324    1.282   .     A
C300   C820    1.399   1_554 S
C300   H829    1.084   1_554 S
C302   Cl311   1.765   .     S
C303   H318    1.076   .     S
C303   C810    1.387   1_554 S
C303   C817    1.414   1_554 S
C304   C305    1.424   .     A
C304   C816    1.414   .     S
C304   C819    1.427   .     S
C305   C309    1.410   .     A
C306   C817    1.427   1_554 S
C306   C820    1.421   1_554 S
C307   C308    1.391   .     A
C307   C813    1.399   .     S
C307   C819    1.421   .     S
C308   C309    1.383   .     A
C308   H315    1.084   .     S
C309   H320    1.081   .     S
H312   C178    1.086   1_655 S
H313   O329    0.991   .     S
H314   C465    1.086   .     S
H316   C813    1.084   .     S
H319   C810    1.084   1_554 S
O322   Zn339   1.957   .     S
O322   Zn341   1.921   .     S
O322   Zn342   1.934   .     S
O322   Zn340   1.951   .     S
O323   Zn340   1.926   .     S
O324   Zn342   1.940   .     S
O325   Zn341   1.941   .     S
O326   Zn339   1.928   .     S
O327   S338    1.503   .     D
O328   S338    1.503   .     D
O329   S338    1.682   .     S
O330   Zn339   1.931   .     S
O331   Zn342   1.927   .     S
O332   Zn340   1.923   .     S
O333   Zn341   1.936   .     S
O334   Zn342   1.932   .     S
O335   Zn339   1.918   .     S
O336   Zn340   1.934   .     S
O337   Zn341   1.933   .     S
C343   O389    1.274   .     A
C343   C349    1.437   .     S
C343   O391    1.273   .     A
C344   C358    1.394   .     A
C344   C363    1.410   .     A
C344   H374    1.077   .     S
C345   S395    1.772   .     S
C345   C358    1.410   .     A
C345   C357    1.393   .     A
C346   C348    1.455   .     S
C346   O390    1.278   .     A
C346   O392    1.274   .     A
C347   C356    1.482   .     S
C347   C362    1.422   .     A
C347   C359    1.417   .     A
C348   C406    1.335   .     S
C348   H435    1.088   .     S
C349   C462    1.335   1_455 S
C349   H483    1.086   1_455 S
C350   C353    1.455   .     S
C350   C9      1.336   1_565 S
C350   Cl25    1.770   1_565 S
C351   C352    1.437   .     S
C352   O387    1.279   .     A
C352   O393    1.279   .     A
C353   O394    1.267   .     A
C353   O388    1.270   .     A
C354   C359    1.389   .     A
C354   C873    1.387   .     S
C354   H889    1.084   .     S
C355   O380    1.280   .     A
C355   C358    1.457   .     S
C355   O382    1.266   .     A
C356   O383    1.287   .     A
C356   O381    1.282   .     A
C357   C877    1.399   1_554 S
C357   H886    1.084   1_554 S
C359   Cl368   1.765   .     S
C360   H375    1.076   .     S
C360   C867    1.387   1_554 S
C360   C874    1.414   1_554 S
C361   C362    1.424   .     A
C361   C873    1.414   .     S
C361   C876    1.427   .     S
C362   C366    1.410   .     A
C363   C874    1.427   1_554 S
C363   C877    1.421   1_554 S
C364   C365    1.391   .     A
C364   C870    1.399   .     S
C364   C876    1.421   .     S
C365   C366    1.383   .     A
C365   H372    1.084   .     S
C366   H377    1.081   .     S
H369   C406    1.086   .     S
H370   O386    0.991   .     S
H371   C9      1.086   1_565 S
H373   C870    1.084   .     S
H376   C867    1.084   1_554 S
H378   C462    1.088   1_455 S
O379   Zn396   1.957   .     S
O379   Zn398   1.921   .     S
O379   Zn399   1.934   .     S
O379   Zn397   1.951   .     S
O380   Zn397   1.926   .     S
O381   Zn399   1.940   .     S
O382   Zn398   1.941   .     S
O383   Zn396   1.928   .     S
O384   S395    1.503   .     D
O385   S395    1.503   .     D
O386   S395    1.682   .     S
O387   Zn396   1.931   .     S
O388   Zn399   1.927   .     S
O389   Zn397   1.923   .     S
O390   Zn398   1.936   .     S
O391   Zn399   1.932   .     S
O392   Zn396   1.918   .     S
O393   Zn397   1.934   .     S
O394   Zn398   1.933   .     S
C400   O446    1.274   .     A
C400   C406    1.437   .     S
C400   O448    1.273   .     A
C401   C415    1.394   .     A
C401   C420    1.410   .     A
C401   H431    1.077   .     S
C402   S452    1.772   .     S
C402   C415    1.410   .     A
C402   C414    1.393   .     A
C403   C405    1.455   .     S
C403   O447    1.278   .     A
C403   O449    1.274   .     A
C404   C413    1.482   .     S
C404   C419    1.422   .     A
C404   C416    1.417   .     A
C405   C463    1.335   .     S
C405   H492    1.088   .     S
C407   C410    1.455   .     S
C407   C66     1.336   1_565 S
C407   Cl82    1.770   1_565 S
C408   C409    1.437   .     S
C409   O444    1.279   .     A
C409   O450    1.279   .     A
C410   O451    1.267   .     A
C410   O445    1.270   .     A
C411   C416    1.389   .     A
C411   C930    1.387   .     S
C411   H946    1.084   .     S
C412   O437    1.280   .     A
C412   C415    1.457   .     S
C412   O439    1.266   .     A
C413   O440    1.287   .     A
C413   O438    1.282   .     A
C414   C934    1.399   1_554 S
C414   H943    1.084   1_554 S
C416   Cl425   1.765   .     S
C417   H432    1.076   .     S
C417   C924    1.387   1_554 S
C417   C931    1.414   1_554 S
C418   C419    1.424   .     A
C418   C930    1.414   .     S
C418   C933    1.427   .     S
C419   C423    1.410   .     A
C420   C931    1.427   1_554 S
C420   C934    1.421   1_554 S
C421   C422    1.391   .     A
C421   C927    1.399   .     S
C421   C933    1.421   .     S
C422   C423    1.383   .     A
C422   H429    1.084   .     S
C423   H434    1.081   .     S
H426   C463    1.086   .     S
H427   O443    0.991   .     S
H428   C66     1.086   1_565 S
H430   C927    1.084   .     S
H433   C924    1.084   1_554 S
O436   Zn453   1.957   .     S
O436   Zn455   1.921   .     S
O436   Zn456   1.934   .     S
O436   Zn454   1.951   .     S
O437   Zn454   1.926   .     S
O438   Zn456   1.940   .     S
O439   Zn455   1.941   .     S
O440   Zn453   1.928   .     S
O441   S452    1.503   .     D
O442   S452    1.503   .     D
O443   S452    1.682   .     S
O444   Zn453   1.931   .     S
O445   Zn456   1.927   .     S
O446   Zn454   1.923   .     S
O447   Zn455   1.936   .     S
O448   Zn456   1.932   .     S
O449   Zn453   1.918   .     S
O450   Zn454   1.934   .     S
O451   Zn455   1.933   .     S
C457   O503    1.274   .     A
C457   C463    1.437   .     S
C457   O505    1.273   .     A
C458   C472    1.394   .     A
C458   C477    1.410   .     A
C458   H488    1.077   .     S
C459   S509    1.772   .     S
C459   C472    1.410   .     A
C459   C471    1.393   .     A
C460   C462    1.455   .     S
C460   O504    1.278   .     A
C460   O506    1.274   .     A
C461   C470    1.482   .     S
C461   C476    1.422   .     A
C461   C473    1.417   .     A
C462   C349    1.335   1_655 S
C462   H378    1.088   1_655 S
C464   C467    1.455   .     S
C464   C123    1.336   1_565 S
C464   Cl139   1.770   1_565 S
C465   C466    1.437   .     S
C466   O501    1.279   .     A
C466   O507    1.279   .     A
C467   O508    1.267   .     A
C467   O502    1.270   .     A
C468   C473    1.389   .     A
C468   C987    1.387   .     S
C468   H1003   1.084   .     S
C469   O494    1.280   .     A
C469   C472    1.457   .     S
C469   O496    1.266   .     A
C470   O497    1.287   .     A
C470   O495    1.282   .     A
C471   C991    1.399   1_554 S
C471   H1000   1.084   1_554 S
C473   Cl482   1.765   .     S
C474   H489    1.076   .     S
C474   C981    1.387   1_554 S
C474   C988    1.414   1_554 S
C475   C476    1.424   .     A
C475   C987    1.414   .     S
C475   C990    1.427   .     S
C476   C480    1.410   .     A
C477   C988    1.427   1_554 S
C477   C991    1.421   1_554 S
C478   C479    1.391   .     A
C478   C984    1.399   .     S
C478   C990    1.421   .     S
C479   C480    1.383   .     A
C479   H486    1.084   .     S
C480   H491    1.081   .     S
H483   C349    1.086   1_655 S
H484   O500    0.991   .     S
H485   C123    1.086   1_565 S
H487   C984    1.084   .     S
H490   C981    1.084   1_554 S
O493   Zn510   1.957   .     S
O493   Zn512   1.921   .     S
O493   Zn513   1.934   .     S
O493   Zn511   1.951   .     S
O494   Zn511   1.926   .     S
O495   Zn513   1.940   .     S
O496   Zn512   1.941   .     S
O497   Zn510   1.928   .     S
O498   S509    1.503   .     D
O499   S509    1.503   .     D
O500   S509    1.682   .     S
O501   Zn510   1.931   .     S
O502   Zn513   1.927   .     S
O503   Zn511   1.923   .     S
O504   Zn512   1.936   .     S
O505   Zn513   1.932   .     S
O506   Zn510   1.918   .     S
O507   Zn511   1.934   .     S
O508   Zn512   1.933   .     S
C514   O560    1.274   .     A
C514   C520    1.437   .     S
C514   O562    1.273   .     A
C515   C529    1.394   .     A
C515   C534    1.410   .     A
C515   H545    1.077   .     S
C516   S566    1.772   .     S
C516   C529    1.410   .     A
C516   C528    1.393   .     A
C517   C519    1.455   .     S
C517   O561    1.278   .     A
C517   O563    1.274   .     A
C518   C527    1.482   .     S
C518   C533    1.422   .     A
C518   C530    1.417   .     A
C519   C577    1.335   .     S
C519   H606    1.088   .     S
C520   C633    1.335   1_455 S
C520   H654    1.086   1_455 S
C521   C524    1.455   .     S
C521   C693    1.336   .     S
C521   Cl709   1.770   .     S
C522   C523    1.437   .     S
C522   C863    1.336   1_545 S
C522   H884    1.086   1_545 S
C523   O558    1.279   .     A
C523   O564    1.279   .     A
C524   O565    1.267   .     A
C524   O559    1.270   .     A
C525   C530    1.389   .     A
C525   C18     1.387   1_556 S
C525   H34     1.084   1_556 S
C526   O551    1.280   .     A
C526   C529    1.457   .     S
C526   O553    1.266   .     A
C527   O554    1.287   .     A
C527   O552    1.282   .     A
C530   Cl539   1.765   .     S
C531   H546    1.076   .     S
C532   C533    1.424   .     A
C532   C18     1.414   1_556 S
C532   C21     1.427   1_556 S
C533   C537    1.410   .     A
C535   C536    1.391   .     A
C535   C15     1.399   1_556 S
C535   C21     1.421   1_556 S
C536   C537    1.383   .     A
C536   H543    1.084   .     S
C537   H548    1.081   .     S
Cl538  C863    1.770   1_545 S
H540   C577    1.086   .     S
H541   O557    0.991   .     S
H542   C693    1.086   .     S
H544   C15     1.084   1_556 S
H549   C633    1.088   1_455 S
O550   Zn567   1.957   .     S
O550   Zn569   1.921   .     S
O550   Zn570   1.934   .     S
O550   Zn568   1.951   .     S
O551   Zn568   1.926   .     S
O552   Zn570   1.940   .     S
O553   Zn569   1.941   .     S
O554   Zn567   1.928   .     S
O555   S566    1.503   .     D
O556   S566    1.503   .     D
O557   S566    1.682   .     S
O558   Zn567   1.931   .     S
O559   Zn570   1.927   .     S
O560   Zn568   1.923   .     S
O561   Zn569   1.936   .     S
O562   Zn570   1.932   .     S
O563   Zn567   1.918   .     S
O564   Zn568   1.934   .     S
O565   Zn569   1.933   .     S
C571   O617    1.274   .     A
C571   C577    1.437   .     S
C571   O619    1.273   .     A
C572   C586    1.394   .     A
C572   C591    1.410   .     A
C572   H602    1.077   .     S
C573   S623    1.772   .     S
C573   C586    1.410   .     A
C573   C585    1.393   .     A
C574   C576    1.455   .     S
C574   O618    1.278   .     A
C574   O620    1.274   .     A
C575   C584    1.482   .     S
C575   C590    1.422   .     A
C575   C587    1.417   .     A
C576   C634    1.335   .     S
C576   H663    1.088   .     S
C578   C581    1.455   .     S
C578   C750    1.336   .     S
C578   Cl766   1.770   .     S
C579   C580    1.437   .     S
C579   C920    1.336   1_545 S
C579   H941    1.086   1_545 S
C580   O615    1.279   .     A
C580   O621    1.279   .     A
C581   O622    1.267   .     A
C581   O616    1.270   .     A
C582   C587    1.389   .     A
C582   C75     1.387   1_556 S
C582   H91     1.084   1_556 S
C583   O608    1.280   .     A
C583   C586    1.457   .     S
C583   O610    1.266   .     A
C584   O611    1.287   .     A
C584   O609    1.282   .     A
C587   Cl596   1.765   .     S
C588   H603    1.076   .     S
C589   C590    1.424   .     A
C589   C75     1.414   1_556 S
C589   C78     1.427   1_556 S
C590   C594    1.410   .     A
C592   C593    1.391   .     A
C592   C72     1.399   1_556 S
C592   C78     1.421   1_556 S
C593   C594    1.383   .     A
C593   H600    1.084   .     S
C594   H605    1.081   .     S
Cl595  C920    1.770   1_545 S
H597   C634    1.086   .     S
H598   O614    0.991   .     S
H599   C750    1.086   .     S
H601   C72     1.084   1_556 S
O607   Zn624   1.957   .     S
O607   Zn626   1.921   .     S
O607   Zn627   1.934   .     S
O607   Zn625   1.951   .     S
O608   Zn625   1.926   .     S
O609   Zn627   1.940   .     S
O610   Zn626   1.941   .     S
O611   Zn624   1.928   .     S
O612   S623    1.503   .     D
O613   S623    1.503   .     D
O614   S623    1.682   .     S
O615   Zn624   1.931   .     S
O616   Zn627   1.927   .     S
O617   Zn625   1.923   .     S
O618   Zn626   1.936   .     S
O619   Zn627   1.932   .     S
O620   Zn624   1.918   .     S
O621   Zn625   1.934   .     S
O622   Zn626   1.933   .     S
C628   O674    1.274   .     A
C628   C634    1.437   .     S
C628   O676    1.273   .     A
C629   C643    1.394   .     A
C629   C648    1.410   .     A
C629   H659    1.077   .     S
C630   S680    1.772   .     S
C630   C643    1.410   .     A
C630   C642    1.393   .     A
C631   C633    1.455   .     S
C631   O675    1.278   .     A
C631   O677    1.274   .     A
C632   C641    1.482   .     S
C632   C647    1.422   .     A
C632   C644    1.417   .     A
C633   C520    1.335   1_655 S
C633   H549    1.088   1_655 S
C635   C638    1.455   .     S
C635   C807    1.336   .     S
C635   Cl823   1.770   .     S
C636   C637    1.437   .     S
C636   C977    1.336   1_545 S
C636   H998    1.086   1_545 S
C637   O672    1.279   .     A
C637   O678    1.279   .     A
C638   O679    1.267   .     A
C638   O673    1.270   .     A
C639   C644    1.389   .     A
C639   C132    1.387   1_556 S
C639   H148    1.084   1_556 S
C640   O665    1.280   .     A
C640   C643    1.457   .     S
C640   O667    1.266   .     A
C641   O668    1.287   .     A
C641   O666    1.282   .     A
C644   Cl653   1.765   .     S
C645   H660    1.076   .     S
C646   C647    1.424   .     A
C646   C132    1.414   1_556 S
C646   C135    1.427   1_556 S
C647   C651    1.410   .     A
C649   C650    1.391   .     A
C649   C129    1.399   1_556 S
C649   C135    1.421   1_556 S
C650   C651    1.383   .     A
C650   H657    1.084   .     S
C651   H662    1.081   .     S
Cl652  C977    1.770   1_545 S
H654   C520    1.086   1_655 S
H655   O671    0.991   .     S
H656   C807    1.086   .     S
H658   C129    1.084   1_556 S
O664   Zn681   1.957   .     S
O664   Zn683   1.921   .     S
O664   Zn684   1.934   .     S
O664   Zn682   1.951   .     S
O665   Zn682   1.926   .     S
O666   Zn684   1.940   .     S
O667   Zn683   1.941   .     S
O668   Zn681   1.928   .     S
O669   S680    1.503   .     D
O670   S680    1.503   .     D
O671   S680    1.682   .     S
O672   Zn681   1.931   .     S
O673   Zn684   1.927   .     S
O674   Zn682   1.923   .     S
O675   Zn683   1.936   .     S
O676   Zn684   1.932   .     S
O677   Zn681   1.918   .     S
O678   Zn682   1.934   .     S
O679   Zn683   1.933   .     S
C685   O731    1.274   .     A
C685   C691    1.437   .     S
C685   O733    1.273   .     A
C686   C700    1.394   .     A
C686   C705    1.410   .     A
C686   H716    1.077   .     S
C687   S737    1.772   .     S
C687   C700    1.410   .     A
C687   C699    1.393   .     A
C688   C690    1.455   .     S
C688   O732    1.278   .     A
C688   O734    1.274   .     A
C689   C698    1.482   .     S
C689   C704    1.422   .     A
C689   C701    1.417   .     A
C690   C748    1.335   .     S
C690   H777    1.088   .     S
C691   C804    1.335   1_455 S
C691   H825    1.086   1_455 S
C692   C695    1.455   .     S
C692   C864    1.336   .     S
C692   Cl880   1.770   .     S
C693   C694    1.437   .     S
C694   O729    1.279   .     A
C694   O735    1.279   .     A
C695   O736    1.267   .     A
C695   O730    1.270   .     A
C696   C701    1.389   .     A
C696   C189    1.387   1_556 S
C696   H205    1.084   1_556 S
C697   O722    1.280   .     A
C697   C700    1.457   .     S
C697   O724    1.266   .     A
C698   O725    1.287   .     A
C698   O723    1.282   .     A
C701   Cl710   1.765   .     S
C702   H717    1.076   .     S
C703   C704    1.424   .     A
C703   C189    1.414   1_556 S
C703   C192    1.427   1_556 S
C704   C708    1.410   .     A
C706   C707    1.391   .     A
C706   C186    1.399   1_556 S
C706   C192    1.421   1_556 S
C707   C708    1.383   .     A
C707   H714    1.084   .     S
C708   H719    1.081   .     S
H711   C748    1.086   .     S
H712   O728    0.991   .     S
H713   C864    1.086   .     S
H715   C186    1.084   1_556 S
H720   C804    1.088   1_455 S
O721   Zn738   1.957   .     S
O721   Zn740   1.921   .     S
O721   Zn741   1.934   .     S
O721   Zn739   1.951   .     S
O722   Zn739   1.926   .     S
O723   Zn741   1.940   .     S
O724   Zn740   1.941   .     S
O725   Zn738   1.928   .     S
O726   S737    1.503   .     D
O727   S737    1.503   .     D
O728   S737    1.682   .     S
O729   Zn738   1.931   .     S
O730   Zn741   1.927   .     S
O731   Zn739   1.923   .     S
O732   Zn740   1.936   .     S
O733   Zn741   1.932   .     S
O734   Zn738   1.918   .     S
O735   Zn739   1.934   .     S
O736   Zn740   1.933   .     S
C742   O788    1.274   .     A
C742   C748    1.437   .     S
C742   O790    1.273   .     A
C743   C757    1.394   .     A
C743   C762    1.410   .     A
C743   H773    1.077   .     S
C744   S794    1.772   .     S
C744   C757    1.410   .     A
C744   C756    1.393   .     A
C745   C747    1.455   .     S
C745   O789    1.278   .     A
C745   O791    1.274   .     A
C746   C755    1.482   .     S
C746   C761    1.422   .     A
C746   C758    1.417   .     A
C747   C805    1.335   .     S
C747   H834    1.088   .     S
C749   C752    1.455   .     S
C749   C921    1.336   .     S
C749   Cl937   1.770   .     S
C750   C751    1.437   .     S
C751   O786    1.279   .     A
C751   O792    1.279   .     A
C752   O793    1.267   .     A
C752   O787    1.270   .     A
C753   C758    1.389   .     A
C753   C246    1.387   1_556 S
C753   H262    1.084   1_556 S
C754   O779    1.280   .     A
C754   C757    1.457   .     S
C754   O781    1.266   .     A
C755   O782    1.287   .     A
C755   O780    1.282   .     A
C758   Cl767   1.765   .     S
C759   H774    1.076   .     S
C760   C761    1.424   .     A
C760   C246    1.414   1_556 S
C760   C249    1.427   1_556 S
C761   C765    1.410   .     A
C763   C764    1.391   .     A
C763   C243    1.399   1_556 S
C763   C249    1.421   1_556 S
C764   C765    1.383   .     A
C764   H771    1.084   .     S
C765   H776    1.081   .     S
H768   C805    1.086   .     S
H769   O785    0.991   .     S
H770   C921    1.086   .     S
H772   C243    1.084   1_556 S
O778   Zn795   1.957   .     S
O778   Zn797   1.921   .     S
O778   Zn798   1.934   .     S
O778   Zn796   1.951   .     S
O779   Zn796   1.926   .     S
O780   Zn798   1.940   .     S
O781   Zn797   1.941   .     S
O782   Zn795   1.928   .     S
O783   S794    1.503   .     D
O784   S794    1.503   .     D
O785   S794    1.682   .     S
O786   Zn795   1.931   .     S
O787   Zn798   1.927   .     S
O788   Zn796   1.923   .     S
O789   Zn797   1.936   .     S
O790   Zn798   1.932   .     S
O791   Zn795   1.918   .     S
O792   Zn796   1.934   .     S
O793   Zn797   1.933   .     S
C799   O845    1.274   .     A
C799   C805    1.437   .     S
C799   O847    1.273   .     A
C800   C814    1.394   .     A
C800   C819    1.410   .     A
C800   H830    1.077   .     S
C801   S851    1.772   .     S
C801   C814    1.410   .     A
C801   C813    1.393   .     A
C802   C804    1.455   .     S
C802   O846    1.278   .     A
C802   O848    1.274   .     A
C803   C812    1.482   .     S
C803   C818    1.422   .     A
C803   C815    1.417   .     A
C804   C691    1.335   1_655 S
C804   H720    1.088   1_655 S
C806   C809    1.455   .     S
C806   C978    1.336   .     S
C806   Cl994   1.770   .     S
C807   C808    1.437   .     S
C808   O843    1.279   .     A
C808   O849    1.279   .     A
C809   O850    1.267   .     A
C809   O844    1.270   .     A
C810   C815    1.389   .     A
C810   C303    1.387   1_556 S
C810   H319    1.084   1_556 S
C811   O836    1.280   .     A
C811   C814    1.457   .     S
C811   O838    1.266   .     A
C812   O839    1.287   .     A
C812   O837    1.282   .     A
C815   Cl824   1.765   .     S
C816   H831    1.076   .     S
C817   C818    1.424   .     A
C817   C303    1.414   1_556 S
C817   C306    1.427   1_556 S
C818   C822    1.410   .     A
C820   C821    1.391   .     A
C820   C300    1.399   1_556 S
C820   C306    1.421   1_556 S
C821   C822    1.383   .     A
C821   H828    1.084   .     S
C822   H833    1.081   .     S
H825   C691    1.086   1_655 S
H826   O842    0.991   .     S
H827   C978    1.086   .     S
H829   C300    1.084   1_556 S
O835   Zn852   1.957   .     S
O835   Zn854   1.921   .     S
O835   Zn855   1.934   .     S
O835   Zn853   1.951   .     S
O836   Zn853   1.926   .     S
O837   Zn855   1.940   .     S
O838   Zn854   1.941   .     S
O839   Zn852   1.928   .     S
O840   S851    1.503   .     D
O841   S851    1.503   .     D
O842   S851    1.682   .     S
O843   Zn852   1.931   .     S
O844   Zn855   1.927   .     S
O845   Zn853   1.923   .     S
O846   Zn854   1.936   .     S
O847   Zn855   1.932   .     S
O848   Zn852   1.918   .     S
O849   Zn853   1.934   .     S
O850   Zn854   1.933   .     S
C856   O902    1.274   .     A
C856   C862    1.437   .     S
C856   O904    1.273   .     A
C857   C871    1.394   .     A
C857   C876    1.410   .     A
C857   H887    1.077   .     S
C858   S908    1.772   .     S
C858   C871    1.410   .     A
C858   C870    1.393   .     A
C859   C861    1.455   .     S
C859   O903    1.278   .     A
C859   O905    1.274   .     A
C860   C869    1.482   .     S
C860   C875    1.422   .     A
C860   C872    1.417   .     A
C861   C919    1.335   .     S
C861   H948    1.088   .     S
C862   C975    1.335   1_455 S
C862   H996    1.086   1_455 S
C863   C866    1.455   .     S
C863   C522    1.336   1_565 S
C863   Cl538   1.770   1_565 S
C864   C865    1.437   .     S
C865   O900    1.279   .     A
C865   O906    1.279   .     A
C866   O907    1.267   .     A
C866   O901    1.270   .     A
C867   C872    1.389   .     A
C867   C360    1.387   1_556 S
C867   H376    1.084   1_556 S
C868   O893    1.280   .     A
C868   C871    1.457   .     S
C868   O895    1.266   .     A
C869   O896    1.287   .     A
C869   O894    1.282   .     A
C872   Cl881   1.765   .     S
C873   H888    1.076   .     S
C874   C875    1.424   .     A
C874   C360    1.414   1_556 S
C874   C363    1.427   1_556 S
C875   C879    1.410   .     A
C877   C878    1.391   .     A
C877   C357    1.399   1_556 S
C877   C363    1.421   1_556 S
C878   C879    1.383   .     A
C878   H885    1.084   .     S
C879   H890    1.081   .     S
H882   C919    1.086   .     S
H883   O899    0.991   .     S
H884   C522    1.086   1_565 S
H886   C357    1.084   1_556 S
H891   C975    1.088   1_455 S
O892   Zn909   1.957   .     S
O892   Zn911   1.921   .     S
O892   Zn912   1.934   .     S
O892   Zn910   1.951   .     S
O893   Zn910   1.926   .     S
O894   Zn912   1.940   .     S
O895   Zn911   1.941   .     S
O896   Zn909   1.928   .     S
O897   S908    1.503   .     D
O898   S908    1.503   .     D
O899   S908    1.682   .     S
O900   Zn909   1.931   .     S
O901   Zn912   1.927   .     S
O902   Zn910   1.923   .     S
O903   Zn911   1.936   .     S
O904   Zn912   1.932   .     S
O905   Zn909   1.918   .     S
O906   Zn910   1.934   .     S
O907   Zn911   1.933   .     S
C913   O959    1.274   .     A
C913   C919    1.437   .     S
C913   O961    1.273   .     A
C914   C928    1.394   .     A
C914   C933    1.410   .     A
C914   H944    1.077   .     S
C915   S965    1.772   .     S
C915   C928    1.410   .     A
C915   C927    1.393   .     A
C916   C918    1.455   .     S
C916   O960    1.278   .     A
C916   O962    1.274   .     A
C917   C926    1.482   .     S
C917   C932    1.422   .     A
C917   C929    1.417   .     A
C918   C976    1.335   .     S
C918   H1005   1.088   .     S
C920   C923    1.455   .     S
C920   C579    1.336   1_565 S
C920   Cl595   1.770   1_565 S
C921   C922    1.437   .     S
C922   O957    1.279   .     A
C922   O963    1.279   .     A
C923   O964    1.267   .     A
C923   O958    1.270   .     A
C924   C929    1.389   .     A
C924   C417    1.387   1_556 S
C924   H433    1.084   1_556 S
C925   O950    1.280   .     A
C925   C928    1.457   .     S
C925   O952    1.266   .     A
C926   O953    1.287   .     A
C926   O951    1.282   .     A
C929   Cl938   1.765   .     S
C930   H945    1.076   .     S
C931   C932    1.424   .     A
C931   C417    1.414   1_556 S
C931   C420    1.427   1_556 S
C932   C936    1.410   .     A
C934   C935    1.391   .     A
C934   C414    1.399   1_556 S
C934   C420    1.421   1_556 S
C935   C936    1.383   .     A
C935   H942    1.084   .     S
C936   H947    1.081   .     S
H939   C976    1.086   .     S
H940   O956    0.991   .     S
H941   C579    1.086   1_565 S
H943   C414    1.084   1_556 S
O949   Zn966   1.957   .     S
O949   Zn968   1.921   .     S
O949   Zn969   1.934   .     S
O949   Zn967   1.951   .     S
O950   Zn967   1.926   .     S
O951   Zn969   1.940   .     S
O952   Zn968   1.941   .     S
O953   Zn966   1.928   .     S
O954   S965    1.503   .     D
O955   S965    1.503   .     D
O956   S965    1.682   .     S
O957   Zn966   1.931   .     S
O958   Zn969   1.927   .     S
O959   Zn967   1.923   .     S
O960   Zn968   1.936   .     S
O961   Zn969   1.932   .     S
O962   Zn966   1.918   .     S
O963   Zn967   1.934   .     S
O964   Zn968   1.933   .     S
C970   O1016   1.274   .     A
C970   C976    1.437   .     S
C970   O1018   1.273   .     A
C971   C985    1.394   .     A
C971   C990    1.410   .     A
C971   H1001   1.077   .     S
C972   S1022   1.772   .     S
C972   C985    1.410   .     A
C972   C984    1.393   .     A
C973   C975    1.455   .     S
C973   O1017   1.278   .     A
C973   O1019   1.274   .     A
C974   C983    1.482   .     S
C974   C989    1.422   .     A
C974   C986    1.417   .     A
C975   C862    1.335   1_655 S
C975   H891    1.088   1_655 S
C977   C980    1.455   .     S
C977   C636    1.336   1_565 S
C977   Cl652   1.770   1_565 S
C978   C979    1.437   .     S
C979   O1014   1.279   .     A
C979   O1020   1.279   .     A
C980   O1021   1.267   .     A
C980   O1015   1.270   .     A
C981   C986    1.389   .     A
C981   C474    1.387   1_556 S
C981   H490    1.084   1_556 S
C982   O1007   1.280   .     A
C982   C985    1.457   .     S
C982   O1009   1.266   .     A
C983   O1010   1.287   .     A
C983   O1008   1.282   .     A
C986   Cl995   1.765   .     S
C987   H1002   1.076   .     S
C988   C989    1.424   .     A
C988   C474    1.414   1_556 S
C988   C477    1.427   1_556 S
C989   C993    1.410   .     A
C991   C992    1.391   .     A
C991   C471    1.399   1_556 S
C991   C477    1.421   1_556 S
C992   C993    1.383   .     A
C992   H999    1.084   .     S
C993   H1004   1.081   .     S
H996   C862    1.086   1_655 S
H997   O1013   0.991   .     S
H998   C636    1.086   1_565 S
H1000  C471    1.084   1_556 S
O1006  Zn1023  1.957   .     S
O1006  Zn1025  1.921   .     S
O1006  Zn1026  1.934   .     S
O1006  Zn1024  1.951   .     S
O1007  Zn1024  1.926   .     S
O1008  Zn1026  1.940   .     S
O1009  Zn1025  1.941   .     S
O1010  Zn1023  1.928   .     S
O1011  S1022   1.503   .     D
O1012  S1022   1.503   .     D
O1013  S1022   1.682   .     S
O1014  Zn1023  1.931   .     S
O1015  Zn1026  1.927   .     S
O1016  Zn1024  1.923   .     S
O1017  Zn1025  1.936   .     S
O1018  Zn1026  1.932   .     S
O1019  Zn1023  1.918   .     S
O1020  Zn1024  1.934   .     S
O1021  Zn1025  1.933   .     S
