data_str_m1_o1_o2_pcu_sym.10
_audit_creation_date              2020-01-03
_audit_creation_method            'Materials Studio'
_symmetry_space_group_name_H-M    'P1'
_symmetry_Int_Tables_number       1
_symmetry_cell_setting            triclinic
loop_
_symmetry_equiv_pos_as_xyz
  x,y,z
_cell_length_a                    36.7074
_cell_length_b                    36.7076
_cell_length_c                    34.3894
_cell_angle_alpha                 89.9998
_cell_angle_beta                  89.9998
_cell_angle_gamma                 90.0000
loop_
_atom_site_label
_atom_site_type_symbol
_atom_site_fract_x
_atom_site_fract_y
_atom_site_fract_z
_atom_site_U_iso_or_equiv
_atom_site_adp_type
_atom_site_occupancy
C1     C     0.23549   0.47033   0.04166   0.00000  Uiso   1.00
C2     C     0.01450   0.22033   0.45834   0.00000  Uiso   1.00
C3     C     0.34807   0.40178   0.75012   0.00000  Uiso   1.00
C4     C     0.40178   0.15193   0.24988   0.00000  Uiso   1.00
C5     C     0.09807   0.34822   0.74988   0.00000  Uiso   1.00
C6     C     0.34822   0.40193   0.25012   0.00000  Uiso   1.00
C7     C     0.15193   0.09822   0.75012   0.00000  Uiso   1.00
C8     C     0.09822   0.15193   0.75012   0.00000  Uiso   1.00
C9     C     0.40193   0.34822   0.25012   0.00000  Uiso   1.00
C10    C     0.15178   0.40193   0.74988   0.00000  Uiso   1.00
C11    C     0.34807   0.09822   0.24988   0.00000  Uiso   1.00
C12    C     0.40178   0.34807   0.75012   0.00000  Uiso   1.00
C13    C     0.22033   0.48550   0.54166   0.00000  Uiso   1.00
C14    C     0.09807   0.15178   0.25012   0.00000  Uiso   1.00
C15    C     0.34822   0.09807   0.74988   0.00000  Uiso   1.00
C16    C     0.15193   0.40178   0.24988   0.00000  Uiso   1.00
C17    C     0.25000   0.00000   0.10259   0.00000  Uiso   1.00
C18    C     0.25000   0.00000   0.89741   0.00000  Uiso   1.00
C19    C    -0.00000   0.25000   0.10258   0.00000  Uiso   1.00
C20    C    -0.00000   0.25000   0.89741   0.00000  Uiso   1.00
C21    C     0.00000   0.25000   0.60259   0.00000  Uiso   1.00
C22    C    -0.00000   0.25000   0.39741   0.00000  Uiso   1.00
C23    C     0.25000  -0.00000   0.60259   0.00000  Uiso   1.00
C24    C     0.22033   0.01451   0.45834   0.00000  Uiso   1.00
C25    C     0.25000   0.00000   0.39741   0.00000  Uiso   1.00
C26    C     0.01449   0.27968   0.54166   0.00000  Uiso   1.00
C27    C     0.48550   0.27967   0.45834   0.00000  Uiso   1.00
C28    C     0.27967   0.01450   0.54166   0.00000  Uiso   1.00
C29    C     0.27967   0.48549   0.45834   0.00000  Uiso   1.00
C30    C     0.23515   0.47027   0.08216   0.00000  Uiso   1.00
C31    C     0.26484   0.47026   0.91784   0.00000  Uiso   1.00
C32    C     0.47030   0.23509   0.08215   0.00000  Uiso   1.00
C33    C     0.26450   0.47033   0.95834   0.00000  Uiso   1.00
C34    C     0.47026   0.26483   0.91784   0.00000  Uiso   1.00
C35    C     0.26485   0.02973   0.08216   0.00000  Uiso   1.00
C36    C     0.23515   0.02974   0.91784   0.00000  Uiso   1.00
C37    C     0.02970   0.26491   0.08215   0.00000  Uiso   1.00
C38    C     0.02974   0.23517   0.91784   0.00000  Uiso   1.00
C39    C     0.48517   0.22025   0.58216   0.00000  Uiso   1.00
C40    C     0.01484   0.22026   0.41784   0.00000  Uiso   1.00
C41    C     0.22026   0.48516   0.58216   0.00000  Uiso   1.00
C42    C     0.22027   0.01485   0.41784   0.00000  Uiso   1.00
C43    C     0.01483   0.27975   0.58216   0.00000  Uiso   1.00
C44    C     0.47036   0.23544   0.04165   0.00000  Uiso   1.00
C45    C     0.48516   0.27974   0.41784   0.00000  Uiso   1.00
C46    C     0.27974   0.01485   0.58216   0.00000  Uiso   1.00
C47    C     0.27973   0.48515   0.41784   0.00000  Uiso   1.00
C48    C     0.25000   0.00000   0.02130   0.00000  Uiso   1.00
C49    C     0.25000   0.00000   0.97870   0.00000  Uiso   1.00
C50    C    -0.00000   0.25000   0.02130   0.00000  Uiso   1.00
C51    C    -0.00000   0.25000   0.97870   0.00000  Uiso   1.00
C52    C     0.00000   0.25000   0.52130   0.00000  Uiso   1.00
C53    C    -0.00000   0.25000   0.47870   0.00000  Uiso   1.00
C54    C     0.25000  -0.00000   0.52130   0.00000  Uiso   1.00
C55    C     0.47032   0.26449   0.95834   0.00000  Uiso   1.00
C56    C     0.25000   0.00000   0.47870   0.00000  Uiso   1.00
C57    C     0.25000   0.00000   0.35511   0.00000  Uiso   1.00
C58    C     0.25000  -0.00000   0.64489   0.00000  Uiso   1.00
C59    C    -0.00000   0.25000   0.35511   0.00000  Uiso   1.00
C60    C     0.00000   0.25000   0.64489   0.00000  Uiso   1.00
C61    C     0.00000   0.25000   0.85511   0.00000  Uiso   1.00
C62    C    -0.00000   0.25000   0.14489   0.00000  Uiso   1.00
C63    C     0.25000  -0.00000   0.85511   0.00000  Uiso   1.00
C64    C     0.25000   0.00000   0.14489   0.00000  Uiso   1.00
C65    C     0.17989   0.07007   0.25004   0.00000  Uiso   1.00
C66    C     0.26451   0.02967   0.04166   0.00000  Uiso   1.00
C67    C     0.32007   0.42989   0.75004   0.00000  Uiso   1.00
C68    C     0.42989   0.17993   0.24996   0.00000  Uiso   1.00
C69    C     0.07007   0.32011   0.74996   0.00000  Uiso   1.00
C70    C     0.32011   0.42993   0.25004   0.00000  Uiso   1.00
C71    C     0.17993   0.07011   0.75004   0.00000  Uiso   1.00
C72    C     0.07011   0.32007   0.24996   0.00000  Uiso   1.00
C73    C     0.42993   0.17989   0.74996   0.00000  Uiso   1.00
C74    C     0.17989   0.42993   0.74996   0.00000  Uiso   1.00
C75    C     0.32007   0.07011   0.24996   0.00000  Uiso   1.00
C76    C     0.42989   0.32007   0.75003   0.00000  Uiso   1.00
C77    C     0.23550   0.02967   0.95834   0.00000  Uiso   1.00
C78    C     0.07007   0.17989   0.25004   0.00000  Uiso   1.00
C79    C     0.32011   0.07007   0.74996   0.00000  Uiso   1.00
C80    C     0.17993   0.42989   0.24996   0.00000  Uiso   1.00
C81    C     0.07011   0.17993   0.75003   0.00000  Uiso   1.00
C82    C     0.42993   0.32011   0.25004   0.00000  Uiso   1.00
C83    C     0.12237   0.40434   0.22421   0.00000  Uiso   1.00
C84    C     0.37783   0.09546   0.77546   0.00000  Uiso   1.00
C85    C     0.09546   0.12217   0.22453   0.00000  Uiso   1.00
C86    C     0.40435   0.37763   0.77579   0.00000  Uiso   1.00
C87    C     0.37763   0.09566   0.22421   0.00000  Uiso   1.00
C88    C     0.02964   0.26456   0.04165   0.00000  Uiso   1.00
C89    C     0.12217   0.40454   0.77546   0.00000  Uiso   1.00
C90    C     0.40454   0.37783   0.22453   0.00000  Uiso   1.00
C91    C     0.09565   0.12237   0.77579   0.00000  Uiso   1.00
C92    C     0.12237   0.09565   0.77579   0.00000  Uiso   1.00
C93    C     0.37783   0.40454   0.22453   0.00000  Uiso   1.00
C94    C     0.09546   0.37783   0.77546   0.00000  Uiso   1.00
C95    C     0.40434   0.12237   0.22421   0.00000  Uiso   1.00
C96    C     0.37763   0.40435   0.77579   0.00000  Uiso   1.00
C97    C     0.12217   0.09546   0.22453   0.00000  Uiso   1.00
C98    C     0.40454   0.12217   0.77546   0.00000  Uiso   1.00
C99    C     0.02968   0.23551   0.95834   0.00000  Uiso   1.00
C100   C     0.09566   0.37763   0.22421   0.00000  Uiso   1.00
C101   C     0.37237   0.15435   0.72421   0.00000  Uiso   1.00
C102   C     0.12783   0.34546   0.27547   0.00000  Uiso   1.00
C103   C     0.34546   0.37217   0.72453   0.00000  Uiso   1.00
C104   C     0.15435   0.12763   0.27579   0.00000  Uiso   1.00
C105   C     0.12763   0.34565   0.72421   0.00000  Uiso   1.00
C106   C     0.37217   0.15454   0.27547   0.00000  Uiso   1.00
C107   C     0.15454   0.12783   0.72453   0.00000  Uiso   1.00
C108   C     0.34565   0.37237   0.27579   0.00000  Uiso   1.00
C109   C     0.37237   0.34565   0.27579   0.00000  Uiso   1.00
C110   C     0.48551   0.22032   0.54166   0.00000  Uiso   1.00
C111   C     0.12783   0.15454   0.72453   0.00000  Uiso   1.00
C112   C     0.34546   0.12783   0.27547   0.00000  Uiso   1.00
C113   C     0.15435   0.37237   0.72421   0.00000  Uiso   1.00
C114   C     0.12763   0.15435   0.27579   0.00000  Uiso   1.00
C115   C     0.37217   0.34546   0.72453   0.00000  Uiso   1.00
C116   C     0.15454   0.37217   0.27547   0.00000  Uiso   1.00
C117   C     0.34565   0.12763   0.72421   0.00000  Uiso   1.00
C118   C     0.09822   0.34807   0.24988   0.00000  Uiso   1.00
C119   C     0.40193   0.15178   0.74988   0.00000  Uiso   1.00
C120   C     0.15178   0.09807   0.25012   0.00000  Uiso   1.00
H121   H     0.22411   0.44738   0.02601   0.00000  Uiso   1.00
H122   H     0.02587   0.19737   0.47398   0.00000  Uiso   1.00
H123   H     0.19737   0.47413   0.52602   0.00000  Uiso   1.00
H124   H     0.19737   0.02588   0.47398   0.00000  Uiso   1.00
H125   H     0.02584   0.30264   0.52602   0.00000  Uiso   1.00
H126   H     0.47413   0.30263   0.47398   0.00000  Uiso   1.00
H127   H     0.30263   0.02587   0.52601   0.00000  Uiso   1.00
H128   H     0.30262   0.47412   0.47398   0.00000  Uiso   1.00
H129   H     0.11986   0.42694   0.20413   0.00000  Uiso   1.00
H130   H     0.38036   0.07285   0.79552   0.00000  Uiso   1.00
H131   H     0.07285   0.11964   0.20447   0.00000  Uiso   1.00
H132   H     0.27587   0.44737   0.97398   0.00000  Uiso   1.00
H133   H     0.42694   0.38015   0.79587   0.00000  Uiso   1.00
H134   H     0.38014   0.07306   0.20413   0.00000  Uiso   1.00
H135   H     0.11964   0.42715   0.79552   0.00000  Uiso   1.00
H136   H     0.42715   0.38036   0.20447   0.00000  Uiso   1.00
H137   H     0.07306   0.11985   0.79587   0.00000  Uiso   1.00
H138   H     0.11985   0.07306   0.79587   0.00000  Uiso   1.00
H139   H     0.38036   0.42715   0.20447   0.00000  Uiso   1.00
H140   H     0.07285   0.38036   0.79552   0.00000  Uiso   1.00
H141   H     0.42694   0.11986   0.20413   0.00000  Uiso   1.00
H142   H     0.38015   0.42694   0.79587   0.00000  Uiso   1.00
H143   H     0.44743   0.22402   0.02601   0.00000  Uiso   1.00
H144   H     0.11964   0.07285   0.20447   0.00000  Uiso   1.00
H145   H     0.42715   0.11964   0.79552   0.00000  Uiso   1.00
H146   H     0.07306   0.38014   0.20413   0.00000  Uiso   1.00
H147   H     0.36985   0.17694   0.70413   0.00000  Uiso   1.00
H148   H     0.13036   0.32285   0.29553   0.00000  Uiso   1.00
H149   H     0.32285   0.36964   0.70447   0.00000  Uiso   1.00
H150   H     0.17694   0.13015   0.29587   0.00000  Uiso   1.00
H151   H     0.13015   0.32306   0.70413   0.00000  Uiso   1.00
H152   H     0.36964   0.17715   0.29553   0.00000  Uiso   1.00
H153   H     0.17715   0.13036   0.70447   0.00000  Uiso   1.00
H154   H     0.44736   0.27585   0.97398   0.00000  Uiso   1.00
H155   H     0.32306   0.36985   0.29587   0.00000  Uiso   1.00
H156   H     0.36985   0.32306   0.29587   0.00000  Uiso   1.00
H157   H     0.13036   0.17715   0.70447   0.00000  Uiso   1.00
H158   H     0.32285   0.13036   0.29553   0.00000  Uiso   1.00
H159   H     0.17694   0.36985   0.70413   0.00000  Uiso   1.00
H160   H     0.13015   0.17694   0.29587   0.00000  Uiso   1.00
H161   H     0.36964   0.32285   0.70447   0.00000  Uiso   1.00
H162   H     0.17715   0.36964   0.29553   0.00000  Uiso   1.00
H163   H     0.32306   0.13015   0.70413   0.00000  Uiso   1.00
H164   H     0.27589   0.05262   0.02601   0.00000  Uiso   1.00
H165   H     0.22413   0.05263   0.97398   0.00000  Uiso   1.00
H166   H     0.05257   0.27598   0.02601   0.00000  Uiso   1.00
H167   H     0.05264   0.22415   0.97398   0.00000  Uiso   1.00
H168   H     0.47416   0.19735   0.52602   0.00000  Uiso   1.00
I169   I     0.21307   0.42387   0.11063   0.00000  Uiso   1.00
I170   I     0.03690   0.17386   0.38937   0.00000  Uiso   1.00
I171   I     0.17386   0.46310   0.61063   0.00000  Uiso   1.00
I172   I     0.17387   0.03692   0.38937   0.00000  Uiso   1.00
I173   I     0.03686   0.32616   0.61063   0.00000  Uiso   1.00
I174   I     0.46310   0.32614   0.38937   0.00000  Uiso   1.00
I175   I     0.32614   0.03690   0.61063   0.00000  Uiso   1.00
I176   I     0.32613   0.46308   0.38937   0.00000  Uiso   1.00
I177   I     0.28690   0.42386   0.88937   0.00000  Uiso   1.00
I178   I     0.42394   0.21294   0.11062   0.00000  Uiso   1.00
I179   I     0.42385   0.28688   0.88937   0.00000  Uiso   1.00
I180   I     0.28693   0.07613   0.11063   0.00000  Uiso   1.00
I181   I     0.21310   0.07614   0.88937   0.00000  Uiso   1.00
I182   I     0.07606   0.28706   0.11062   0.00000  Uiso   1.00
I183   I     0.07615   0.21312   0.88937   0.00000  Uiso   1.00
I184   I     0.46314   0.17384   0.61063   0.00000  Uiso   1.00
O185   O     0.25000  -0.00000   0.25000   0.00000  Uiso   1.00
O186   O     0.25000   0.46964   0.66317   0.00000  Uiso   1.00
O187   O     0.46964   0.25000   0.33683   0.00000  Uiso   1.00
O188   O     0.03036   0.25000   0.66317   0.00000  Uiso   1.00
O189   O     0.00000   0.21964   0.83683   0.00000  Uiso   1.00
O190   O     0.00000   0.28036   0.16317   0.00000  Uiso   1.00
O191   O     0.28036  -0.00000   0.83683   0.00000  Uiso   1.00
O192   O     0.21964  -0.00000   0.16317   0.00000  Uiso   1.00
O193   O     0.00000   0.28036   0.83683   0.00000  Uiso   1.00
O194   O    -0.00000   0.21964   0.16317   0.00000  Uiso   1.00
O195   O     0.21964  -0.00000   0.83683   0.00000  Uiso   1.00
O196   O     0.25000  -0.00000   0.75000   0.00000  Uiso   1.00
O197   O     0.28036  -0.00000   0.16317   0.00000  Uiso   1.00
O198   O     0.20725   0.07307   0.27282   0.00000  Uiso   1.00
O199   O     0.29274   0.42693   0.72718   0.00000  Uiso   1.00
O200   O     0.42693   0.20725   0.27282   0.00000  Uiso   1.00
O201   O     0.07307   0.29275   0.72718   0.00000  Uiso   1.00
O202   O     0.29274   0.42693   0.27282   0.00000  Uiso   1.00
O203   O     0.20725   0.07307   0.72718   0.00000  Uiso   1.00
O204   O     0.07307   0.29275   0.27282   0.00000  Uiso   1.00
O205   O     0.42693   0.20725   0.72718   0.00000  Uiso   1.00
O206   O     0.20725   0.42693   0.72718   0.00000  Uiso   1.00
O207   O     0.00000   0.25000   0.25000   0.00000  Uiso   1.00
O208   O     0.29274   0.07307   0.27282   0.00000  Uiso   1.00
O209   O     0.42693   0.29274   0.72718   0.00000  Uiso   1.00
O210   O     0.07307   0.20726   0.27282   0.00000  Uiso   1.00
O211   O     0.29274   0.07307   0.72718   0.00000  Uiso   1.00
O212   O     0.20725   0.42693   0.27282   0.00000  Uiso   1.00
O213   O     0.07307   0.20726   0.72718   0.00000  Uiso   1.00
O214   O     0.42693   0.29274   0.27282   0.00000  Uiso   1.00
O215   O     0.45725   0.32307   0.77282   0.00000  Uiso   1.00
O216   O     0.04274   0.17693   0.22718   0.00000  Uiso   1.00
O217   O     0.17693   0.45726   0.77282   0.00000  Uiso   1.00
O218   O     0.00000   0.25000   0.75000   0.00000  Uiso   1.00
O219   O     0.32307   0.04274   0.22718   0.00000  Uiso   1.00
O220   O     0.04274   0.17693   0.77282   0.00000  Uiso   1.00
O221   O     0.45725   0.32307   0.22718   0.00000  Uiso   1.00
O222   O     0.32307   0.04274   0.77282   0.00000  Uiso   1.00
O223   O     0.17693   0.45726   0.22718   0.00000  Uiso   1.00
O224   O     0.45725   0.17693   0.22718   0.00000  Uiso   1.00
O225   O     0.04274   0.32307   0.77282   0.00000  Uiso   1.00
O226   O     0.17693   0.04274   0.22718   0.00000  Uiso   1.00
O227   O     0.32307   0.45726   0.77282   0.00000  Uiso   1.00
O228   O     0.04274   0.32307   0.22718   0.00000  Uiso   1.00
O229   O     0.25000   0.46964   0.33683   0.00000  Uiso   1.00
O230   O     0.45725   0.17693   0.77282   0.00000  Uiso   1.00
O231   O     0.32307   0.45726   0.22718   0.00000  Uiso   1.00
O232   O     0.17693   0.04274   0.77282   0.00000  Uiso   1.00
O233   O     0.25000   0.03036   0.66317   0.00000  Uiso   1.00
O234   O     0.03036   0.25000   0.33683   0.00000  Uiso   1.00
O235   O     0.46964   0.25000   0.66317   0.00000  Uiso   1.00
O236   O     0.25000   0.03036   0.33683   0.00000  Uiso   1.00
Zn237  Zn    0.20660  -0.00000   0.21760   0.00000  Uiso   1.00
Zn238  Zn    0.04340   0.25000   0.28240   0.00000  Uiso   1.00
Zn239  Zn    0.25000   0.45660   0.71760   0.00000  Uiso   1.00
Zn240  Zn    0.25000   0.04340   0.28240   0.00000  Uiso   1.00
Zn241  Zn    0.04340   0.25000   0.71760   0.00000  Uiso   1.00
Zn242  Zn    0.45660   0.25000   0.28240   0.00000  Uiso   1.00
Zn243  Zn    0.25000   0.04340   0.71760   0.00000  Uiso   1.00
Zn244  Zn    0.25000   0.45660   0.28240   0.00000  Uiso   1.00
Zn245  Zn    0.29340  -0.00000   0.78240   0.00000  Uiso   1.00
Zn246  Zn   -0.00000   0.20660   0.21760   0.00000  Uiso   1.00
Zn247  Zn    0.00000   0.29340   0.78240   0.00000  Uiso   1.00
Zn248  Zn    0.29340  -0.00000   0.21760   0.00000  Uiso   1.00
Zn249  Zn    0.20660  -0.00000   0.78240   0.00000  Uiso   1.00
Zn250  Zn    0.00000   0.29340   0.21760   0.00000  Uiso   1.00
Zn251  Zn    0.00000   0.20660   0.78240   0.00000  Uiso   1.00
Zn252  Zn    0.45660   0.25000   0.71760   0.00000  Uiso   1.00
C253   C     0.73549   0.47033   0.04166   0.00000  Uiso   1.00
C254   C     0.51450   0.22033   0.45834   0.00000  Uiso   1.00
C255   C     0.84807   0.40178   0.75012   0.00000  Uiso   1.00
C256   C     0.90178   0.15193   0.24988   0.00000  Uiso   1.00
C257   C     0.59807   0.34822   0.74988   0.00000  Uiso   1.00
C258   C     0.84822   0.40193   0.25012   0.00000  Uiso   1.00
C259   C     0.65193   0.09822   0.75012   0.00000  Uiso   1.00
C260   C     0.59822   0.15193   0.75012   0.00000  Uiso   1.00
C261   C     0.90193   0.34822   0.25012   0.00000  Uiso   1.00
C262   C     0.65178   0.40193   0.74988   0.00000  Uiso   1.00
C263   C     0.84807   0.09822   0.24988   0.00000  Uiso   1.00
C264   C     0.90178   0.34807   0.75012   0.00000  Uiso   1.00
C265   C     0.72033   0.48550   0.54166   0.00000  Uiso   1.00
C266   C     0.59807   0.15178   0.25012   0.00000  Uiso   1.00
C267   C     0.84822   0.09807   0.74988   0.00000  Uiso   1.00
C268   C     0.65193   0.40178   0.24988   0.00000  Uiso   1.00
C269   C     0.75000   0.00000   0.10259   0.00000  Uiso   1.00
C270   C     0.75000   0.00000   0.89741   0.00000  Uiso   1.00
C271   C     0.50000   0.25000   0.10258   0.00000  Uiso   1.00
C272   C     0.50000   0.25000   0.89741   0.00000  Uiso   1.00
C273   C     0.50000   0.25000   0.60259   0.00000  Uiso   1.00
C274   C     0.50000   0.25000   0.39741   0.00000  Uiso   1.00
C275   C     0.75000  -0.00000   0.60259   0.00000  Uiso   1.00
C276   C     0.72033   0.01451   0.45834   0.00000  Uiso   1.00
C277   C     0.75000   0.00000   0.39741   0.00000  Uiso   1.00
C278   C     0.51449   0.27968   0.54166   0.00000  Uiso   1.00
C279   C     0.98550   0.27967   0.45834   0.00000  Uiso   1.00
C280   C     0.77967   0.01450   0.54166   0.00000  Uiso   1.00
C281   C     0.77967   0.48549   0.45834   0.00000  Uiso   1.00
C282   C     0.73515   0.47027   0.08216   0.00000  Uiso   1.00
C283   C     0.76484   0.47026   0.91784   0.00000  Uiso   1.00
C284   C     0.97030   0.23509   0.08215   0.00000  Uiso   1.00
C285   C     0.76450   0.47033   0.95834   0.00000  Uiso   1.00
C286   C     0.97026   0.26483   0.91784   0.00000  Uiso   1.00
C287   C     0.76485   0.02973   0.08216   0.00000  Uiso   1.00
C288   C     0.73515   0.02974   0.91784   0.00000  Uiso   1.00
C289   C     0.52970   0.26491   0.08215   0.00000  Uiso   1.00
C290   C     0.52974   0.23517   0.91784   0.00000  Uiso   1.00
C291   C     0.98517   0.22025   0.58216   0.00000  Uiso   1.00
C292   C     0.51484   0.22026   0.41784   0.00000  Uiso   1.00
C293   C     0.72026   0.48516   0.58216   0.00000  Uiso   1.00
C294   C     0.72027   0.01485   0.41784   0.00000  Uiso   1.00
C295   C     0.51483   0.27975   0.58216   0.00000  Uiso   1.00
C296   C     0.97036   0.23544   0.04165   0.00000  Uiso   1.00
C297   C     0.98516   0.27974   0.41784   0.00000  Uiso   1.00
C298   C     0.77974   0.01485   0.58216   0.00000  Uiso   1.00
C299   C     0.77973   0.48515   0.41784   0.00000  Uiso   1.00
C300   C     0.75000   0.00000   0.02130   0.00000  Uiso   1.00
C301   C     0.75000   0.00000   0.97870   0.00000  Uiso   1.00
C302   C     0.50000   0.25000   0.02130   0.00000  Uiso   1.00
C303   C     0.50000   0.25000   0.97870   0.00000  Uiso   1.00
C304   C     0.50000   0.25000   0.52130   0.00000  Uiso   1.00
C305   C     0.50000   0.25000   0.47870   0.00000  Uiso   1.00
C306   C     0.75000  -0.00000   0.52130   0.00000  Uiso   1.00
C307   C     0.97032   0.26449   0.95834   0.00000  Uiso   1.00
C308   C     0.75000   0.00000   0.47870   0.00000  Uiso   1.00
C309   C     0.75000   0.00000   0.35511   0.00000  Uiso   1.00
C310   C     0.75000  -0.00000   0.64489   0.00000  Uiso   1.00
C311   C     0.50000   0.25000   0.35511   0.00000  Uiso   1.00
C312   C     0.50000   0.25000   0.64489   0.00000  Uiso   1.00
C313   C     0.50000   0.25000   0.85511   0.00000  Uiso   1.00
C314   C     0.50000   0.25000   0.14489   0.00000  Uiso   1.00
C315   C     0.75000  -0.00000   0.85511   0.00000  Uiso   1.00
C316   C     0.75000   0.00000   0.14489   0.00000  Uiso   1.00
C317   C     0.67989   0.07007   0.25004   0.00000  Uiso   1.00
C318   C     0.76451   0.02967   0.04166   0.00000  Uiso   1.00
C319   C     0.82007   0.42989   0.75004   0.00000  Uiso   1.00
C320   C     0.92989   0.17993   0.24996   0.00000  Uiso   1.00
C321   C     0.57007   0.32011   0.74996   0.00000  Uiso   1.00
C322   C     0.82011   0.42993   0.25004   0.00000  Uiso   1.00
C323   C     0.67993   0.07011   0.75004   0.00000  Uiso   1.00
C324   C     0.57011   0.32007   0.24996   0.00000  Uiso   1.00
C325   C     0.92993   0.17989   0.74996   0.00000  Uiso   1.00
C326   C     0.67989   0.42993   0.74996   0.00000  Uiso   1.00
C327   C     0.82007   0.07011   0.24996   0.00000  Uiso   1.00
C328   C     0.92989   0.32007   0.75003   0.00000  Uiso   1.00
C329   C     0.73550   0.02967   0.95834   0.00000  Uiso   1.00
C330   C     0.57007   0.17989   0.25004   0.00000  Uiso   1.00
C331   C     0.82011   0.07007   0.74996   0.00000  Uiso   1.00
C332   C     0.67993   0.42989   0.24996   0.00000  Uiso   1.00
C333   C     0.57011   0.17993   0.75003   0.00000  Uiso   1.00
C334   C     0.92993   0.32011   0.25004   0.00000  Uiso   1.00
C335   C     0.62237   0.40434   0.22421   0.00000  Uiso   1.00
C336   C     0.87783   0.09546   0.77546   0.00000  Uiso   1.00
C337   C     0.59546   0.12217   0.22453   0.00000  Uiso   1.00
C338   C     0.90435   0.37763   0.77579   0.00000  Uiso   1.00
C339   C     0.87763   0.09566   0.22421   0.00000  Uiso   1.00
C340   C     0.52964   0.26456   0.04165   0.00000  Uiso   1.00
C341   C     0.62217   0.40454   0.77546   0.00000  Uiso   1.00
C342   C     0.90454   0.37783   0.22453   0.00000  Uiso   1.00
C343   C     0.59565   0.12237   0.77579   0.00000  Uiso   1.00
C344   C     0.62237   0.09565   0.77579   0.00000  Uiso   1.00
C345   C     0.87783   0.40454   0.22453   0.00000  Uiso   1.00
C346   C     0.59546   0.37783   0.77546   0.00000  Uiso   1.00
C347   C     0.90434   0.12237   0.22421   0.00000  Uiso   1.00
C348   C     0.87763   0.40435   0.77579   0.00000  Uiso   1.00
C349   C     0.62217   0.09546   0.22453   0.00000  Uiso   1.00
C350   C     0.90454   0.12217   0.77546   0.00000  Uiso   1.00
C351   C     0.52968   0.23551   0.95834   0.00000  Uiso   1.00
C352   C     0.59566   0.37763   0.22421   0.00000  Uiso   1.00
C353   C     0.87237   0.15435   0.72421   0.00000  Uiso   1.00
C354   C     0.62783   0.34546   0.27547   0.00000  Uiso   1.00
C355   C     0.84546   0.37217   0.72453   0.00000  Uiso   1.00
C356   C     0.65435   0.12763   0.27579   0.00000  Uiso   1.00
C357   C     0.62763   0.34565   0.72421   0.00000  Uiso   1.00
C358   C     0.87217   0.15454   0.27547   0.00000  Uiso   1.00
C359   C     0.65454   0.12783   0.72453   0.00000  Uiso   1.00
C360   C     0.84565   0.37237   0.27579   0.00000  Uiso   1.00
C361   C     0.87237   0.34565   0.27579   0.00000  Uiso   1.00
C362   C     0.98551   0.22032   0.54166   0.00000  Uiso   1.00
C363   C     0.62783   0.15454   0.72453   0.00000  Uiso   1.00
C364   C     0.84546   0.12783   0.27547   0.00000  Uiso   1.00
C365   C     0.65435   0.37237   0.72421   0.00000  Uiso   1.00
C366   C     0.62763   0.15435   0.27579   0.00000  Uiso   1.00
C367   C     0.87217   0.34546   0.72453   0.00000  Uiso   1.00
C368   C     0.65454   0.37217   0.27547   0.00000  Uiso   1.00
C369   C     0.84565   0.12763   0.72421   0.00000  Uiso   1.00
C370   C     0.59822   0.34807   0.24988   0.00000  Uiso   1.00
C371   C     0.90193   0.15178   0.74988   0.00000  Uiso   1.00
C372   C     0.65178   0.09807   0.25012   0.00000  Uiso   1.00
H373   H     0.72411   0.44738   0.02601   0.00000  Uiso   1.00
H374   H     0.52587   0.19737   0.47398   0.00000  Uiso   1.00
H375   H     0.69737   0.47413   0.52602   0.00000  Uiso   1.00
H376   H     0.69737   0.02588   0.47398   0.00000  Uiso   1.00
H377   H     0.52584   0.30264   0.52602   0.00000  Uiso   1.00
H378   H     0.97413   0.30263   0.47398   0.00000  Uiso   1.00
H379   H     0.80263   0.02587   0.52601   0.00000  Uiso   1.00
H380   H     0.80262   0.47412   0.47398   0.00000  Uiso   1.00
H381   H     0.61986   0.42694   0.20413   0.00000  Uiso   1.00
H382   H     0.88036   0.07285   0.79552   0.00000  Uiso   1.00
H383   H     0.57285   0.11964   0.20447   0.00000  Uiso   1.00
H384   H     0.77587   0.44737   0.97398   0.00000  Uiso   1.00
H385   H     0.92694   0.38015   0.79587   0.00000  Uiso   1.00
H386   H     0.88014   0.07306   0.20413   0.00000  Uiso   1.00
H387   H     0.61964   0.42715   0.79552   0.00000  Uiso   1.00
H388   H     0.92715   0.38036   0.20447   0.00000  Uiso   1.00
H389   H     0.57306   0.11985   0.79587   0.00000  Uiso   1.00
H390   H     0.61985   0.07306   0.79587   0.00000  Uiso   1.00
H391   H     0.88036   0.42715   0.20447   0.00000  Uiso   1.00
H392   H     0.57285   0.38036   0.79552   0.00000  Uiso   1.00
H393   H     0.92694   0.11986   0.20413   0.00000  Uiso   1.00
H394   H     0.88015   0.42694   0.79587   0.00000  Uiso   1.00
H395   H     0.94743   0.22402   0.02601   0.00000  Uiso   1.00
H396   H     0.61964   0.07285   0.20447   0.00000  Uiso   1.00
H397   H     0.92715   0.11964   0.79552   0.00000  Uiso   1.00
H398   H     0.57306   0.38014   0.20413   0.00000  Uiso   1.00
H399   H     0.86985   0.17694   0.70413   0.00000  Uiso   1.00
H400   H     0.63036   0.32285   0.29553   0.00000  Uiso   1.00
H401   H     0.82285   0.36964   0.70447   0.00000  Uiso   1.00
H402   H     0.67694   0.13015   0.29587   0.00000  Uiso   1.00
H403   H     0.63015   0.32306   0.70413   0.00000  Uiso   1.00
H404   H     0.86964   0.17715   0.29553   0.00000  Uiso   1.00
H405   H     0.67715   0.13036   0.70447   0.00000  Uiso   1.00
H406   H     0.94736   0.27585   0.97398   0.00000  Uiso   1.00
H407   H     0.82306   0.36985   0.29587   0.00000  Uiso   1.00
H408   H     0.86985   0.32306   0.29587   0.00000  Uiso   1.00
H409   H     0.63036   0.17715   0.70447   0.00000  Uiso   1.00
H410   H     0.82285   0.13036   0.29553   0.00000  Uiso   1.00
H411   H     0.67694   0.36985   0.70413   0.00000  Uiso   1.00
H412   H     0.63015   0.17694   0.29587   0.00000  Uiso   1.00
H413   H     0.86964   0.32285   0.70447   0.00000  Uiso   1.00
H414   H     0.67715   0.36964   0.29553   0.00000  Uiso   1.00
H415   H     0.82306   0.13015   0.70413   0.00000  Uiso   1.00
H416   H     0.77589   0.05262   0.02601   0.00000  Uiso   1.00
H417   H     0.72413   0.05263   0.97398   0.00000  Uiso   1.00
H418   H     0.55257   0.27598   0.02601   0.00000  Uiso   1.00
H419   H     0.55264   0.22415   0.97398   0.00000  Uiso   1.00
H420   H     0.97416   0.19735   0.52602   0.00000  Uiso   1.00
I421   I     0.71307   0.42387   0.11063   0.00000  Uiso   1.00
I422   I     0.53690   0.17386   0.38937   0.00000  Uiso   1.00
I423   I     0.67386   0.46310   0.61063   0.00000  Uiso   1.00
I424   I     0.67387   0.03692   0.38937   0.00000  Uiso   1.00
I425   I     0.53686   0.32616   0.61063   0.00000  Uiso   1.00
I426   I     0.96310   0.32614   0.38937   0.00000  Uiso   1.00
I427   I     0.82614   0.03690   0.61063   0.00000  Uiso   1.00
I428   I     0.82613   0.46308   0.38937   0.00000  Uiso   1.00
I429   I     0.78690   0.42386   0.88937   0.00000  Uiso   1.00
I430   I     0.92394   0.21294   0.11062   0.00000  Uiso   1.00
I431   I     0.92385   0.28688   0.88937   0.00000  Uiso   1.00
I432   I     0.78693   0.07613   0.11063   0.00000  Uiso   1.00
I433   I     0.71310   0.07614   0.88937   0.00000  Uiso   1.00
I434   I     0.57606   0.28706   0.11062   0.00000  Uiso   1.00
I435   I     0.57615   0.21312   0.88937   0.00000  Uiso   1.00
I436   I     0.96314   0.17384   0.61063   0.00000  Uiso   1.00
O437   O     0.75000  -0.00000   0.25000   0.00000  Uiso   1.00
O438   O     0.75000   0.46964   0.66317   0.00000  Uiso   1.00
O439   O     0.96964   0.25000   0.33683   0.00000  Uiso   1.00
O440   O     0.53036   0.25000   0.66317   0.00000  Uiso   1.00
O441   O     0.50000   0.21964   0.83683   0.00000  Uiso   1.00
O442   O     0.50000   0.28036   0.16317   0.00000  Uiso   1.00
O443   O     0.78036  -0.00000   0.83683   0.00000  Uiso   1.00
O444   O     0.71964  -0.00000   0.16317   0.00000  Uiso   1.00
O445   O     0.50000   0.28036   0.83683   0.00000  Uiso   1.00
O446   O     0.50000   0.21964   0.16317   0.00000  Uiso   1.00
O447   O     0.71964  -0.00000   0.83683   0.00000  Uiso   1.00
O448   O     0.75000  -0.00000   0.75000   0.00000  Uiso   1.00
O449   O     0.78036  -0.00000   0.16317   0.00000  Uiso   1.00
O450   O     0.70725   0.07307   0.27282   0.00000  Uiso   1.00
O451   O     0.79274   0.42693   0.72718   0.00000  Uiso   1.00
O452   O     0.92693   0.20725   0.27282   0.00000  Uiso   1.00
O453   O     0.57307   0.29275   0.72718   0.00000  Uiso   1.00
O454   O     0.79274   0.42693   0.27282   0.00000  Uiso   1.00
O455   O     0.70725   0.07307   0.72718   0.00000  Uiso   1.00
O456   O     0.57307   0.29275   0.27282   0.00000  Uiso   1.00
O457   O     0.92693   0.20725   0.72718   0.00000  Uiso   1.00
O458   O     0.70725   0.42693   0.72718   0.00000  Uiso   1.00
O459   O     0.50000   0.25000   0.25000   0.00000  Uiso   1.00
O460   O     0.79274   0.07307   0.27282   0.00000  Uiso   1.00
O461   O     0.92693   0.29274   0.72718   0.00000  Uiso   1.00
O462   O     0.57307   0.20726   0.27282   0.00000  Uiso   1.00
O463   O     0.79274   0.07307   0.72718   0.00000  Uiso   1.00
O464   O     0.70725   0.42693   0.27282   0.00000  Uiso   1.00
O465   O     0.57307   0.20726   0.72718   0.00000  Uiso   1.00
O466   O     0.92693   0.29274   0.27282   0.00000  Uiso   1.00
O467   O     0.95725   0.32307   0.77282   0.00000  Uiso   1.00
O468   O     0.54274   0.17693   0.22718   0.00000  Uiso   1.00
O469   O     0.67693   0.45726   0.77282   0.00000  Uiso   1.00
O470   O     0.50000   0.25000   0.75000   0.00000  Uiso   1.00
O471   O     0.82307   0.04274   0.22718   0.00000  Uiso   1.00
O472   O     0.54274   0.17693   0.77282   0.00000  Uiso   1.00
O473   O     0.95725   0.32307   0.22718   0.00000  Uiso   1.00
O474   O     0.82307   0.04274   0.77282   0.00000  Uiso   1.00
O475   O     0.67693   0.45726   0.22718   0.00000  Uiso   1.00
O476   O     0.95725   0.17693   0.22718   0.00000  Uiso   1.00
O477   O     0.54274   0.32307   0.77282   0.00000  Uiso   1.00
O478   O     0.67693   0.04274   0.22718   0.00000  Uiso   1.00
O479   O     0.82307   0.45726   0.77282   0.00000  Uiso   1.00
O480   O     0.54274   0.32307   0.22718   0.00000  Uiso   1.00
O481   O     0.75000   0.46964   0.33683   0.00000  Uiso   1.00
O482   O     0.95725   0.17693   0.77282   0.00000  Uiso   1.00
O483   O     0.82307   0.45726   0.22718   0.00000  Uiso   1.00
O484   O     0.67693   0.04274   0.77282   0.00000  Uiso   1.00
O485   O     0.75000   0.03036   0.66317   0.00000  Uiso   1.00
O486   O     0.53036   0.25000   0.33683   0.00000  Uiso   1.00
O487   O     0.96964   0.25000   0.66317   0.00000  Uiso   1.00
O488   O     0.75000   0.03036   0.33683   0.00000  Uiso   1.00
Zn489  Zn    0.70660  -0.00000   0.21760   0.00000  Uiso   1.00
Zn490  Zn    0.54340   0.25000   0.28240   0.00000  Uiso   1.00
Zn491  Zn    0.75000   0.45660   0.71760   0.00000  Uiso   1.00
Zn492  Zn    0.75000   0.04340   0.28240   0.00000  Uiso   1.00
Zn493  Zn    0.54340   0.25000   0.71760   0.00000  Uiso   1.00
Zn494  Zn    0.95660   0.25000   0.28240   0.00000  Uiso   1.00
Zn495  Zn    0.75000   0.04340   0.71760   0.00000  Uiso   1.00
Zn496  Zn    0.75000   0.45660   0.28240   0.00000  Uiso   1.00
Zn497  Zn    0.79340  -0.00000   0.78240   0.00000  Uiso   1.00
Zn498  Zn    0.50000   0.20660   0.21760   0.00000  Uiso   1.00
Zn499  Zn    0.50000   0.29340   0.78240   0.00000  Uiso   1.00
Zn500  Zn    0.79340  -0.00000   0.21760   0.00000  Uiso   1.00
Zn501  Zn    0.70660  -0.00000   0.78240   0.00000  Uiso   1.00
Zn502  Zn    0.50000   0.29340   0.21760   0.00000  Uiso   1.00
Zn503  Zn    0.50000   0.20660   0.78240   0.00000  Uiso   1.00
Zn504  Zn    0.95660   0.25000   0.71760   0.00000  Uiso   1.00
C505   C     0.23549   0.97033   0.04166   0.00000  Uiso   1.00
C506   C     0.01450   0.72033   0.45834   0.00000  Uiso   1.00
C507   C     0.34807   0.90178   0.75012   0.00000  Uiso   1.00
C508   C     0.40178   0.65193   0.24988   0.00000  Uiso   1.00
C509   C     0.09807   0.84822   0.74988   0.00000  Uiso   1.00
C510   C     0.34822   0.90193   0.25012   0.00000  Uiso   1.00
C511   C     0.15193   0.59822   0.75012   0.00000  Uiso   1.00
C512   C     0.09822   0.65193   0.75012   0.00000  Uiso   1.00
C513   C     0.40193   0.84822   0.25012   0.00000  Uiso   1.00
C514   C     0.15178   0.90193   0.74988   0.00000  Uiso   1.00
C515   C     0.34807   0.59822   0.24988   0.00000  Uiso   1.00
C516   C     0.40178   0.84807   0.75012   0.00000  Uiso   1.00
C517   C     0.22033   0.98550   0.54166   0.00000  Uiso   1.00
C518   C     0.09807   0.65178   0.25012   0.00000  Uiso   1.00
C519   C     0.34822   0.59807   0.74988   0.00000  Uiso   1.00
C520   C     0.15193   0.90178   0.24988   0.00000  Uiso   1.00
C521   C     0.25000   0.50000   0.10259   0.00000  Uiso   1.00
C522   C     0.25000   0.50000   0.89741   0.00000  Uiso   1.00
C523   C    -0.00000   0.75000   0.10258   0.00000  Uiso   1.00
C524   C    -0.00000   0.75000   0.89741   0.00000  Uiso   1.00
C525   C     0.00000   0.75000   0.60259   0.00000  Uiso   1.00
C526   C    -0.00000   0.75000   0.39741   0.00000  Uiso   1.00
C527   C     0.25000   0.50000   0.60259   0.00000  Uiso   1.00
C528   C     0.22033   0.51451   0.45834   0.00000  Uiso   1.00
C529   C     0.25000   0.50000   0.39741   0.00000  Uiso   1.00
C530   C     0.01449   0.77968   0.54166   0.00000  Uiso   1.00
C531   C     0.48550   0.77967   0.45834   0.00000  Uiso   1.00
C532   C     0.27967   0.51450   0.54166   0.00000  Uiso   1.00
C533   C     0.27967   0.98549   0.45834   0.00000  Uiso   1.00
C534   C     0.23515   0.97027   0.08216   0.00000  Uiso   1.00
C535   C     0.26484   0.97026   0.91784   0.00000  Uiso   1.00
C536   C     0.47030   0.73509   0.08215   0.00000  Uiso   1.00
C537   C     0.26450   0.97033   0.95834   0.00000  Uiso   1.00
C538   C     0.47026   0.76483   0.91784   0.00000  Uiso   1.00
C539   C     0.26485   0.52973   0.08216   0.00000  Uiso   1.00
C540   C     0.23515   0.52974   0.91784   0.00000  Uiso   1.00
C541   C     0.02970   0.76491   0.08215   0.00000  Uiso   1.00
C542   C     0.02974   0.73517   0.91784   0.00000  Uiso   1.00
C543   C     0.48517   0.72025   0.58216   0.00000  Uiso   1.00
C544   C     0.01484   0.72026   0.41784   0.00000  Uiso   1.00
C545   C     0.22026   0.98516   0.58216   0.00000  Uiso   1.00
C546   C     0.22027   0.51485   0.41784   0.00000  Uiso   1.00
C547   C     0.01483   0.77975   0.58216   0.00000  Uiso   1.00
C548   C     0.47036   0.73544   0.04165   0.00000  Uiso   1.00
C549   C     0.48516   0.77974   0.41784   0.00000  Uiso   1.00
C550   C     0.27974   0.51485   0.58216   0.00000  Uiso   1.00
C551   C     0.27973   0.98515   0.41784   0.00000  Uiso   1.00
C552   C     0.25000   0.50000   0.02130   0.00000  Uiso   1.00
C553   C     0.25000   0.50000   0.97870   0.00000  Uiso   1.00
C554   C    -0.00000   0.75000   0.02130   0.00000  Uiso   1.00
C555   C    -0.00000   0.75000   0.97870   0.00000  Uiso   1.00
C556   C     0.00000   0.75000   0.52130   0.00000  Uiso   1.00
C557   C    -0.00000   0.75000   0.47870   0.00000  Uiso   1.00
C558   C     0.25000   0.50000   0.52130   0.00000  Uiso   1.00
C559   C     0.47032   0.76449   0.95834   0.00000  Uiso   1.00
C560   C     0.25000   0.50000   0.47870   0.00000  Uiso   1.00
C561   C     0.25000   0.50000   0.35511   0.00000  Uiso   1.00
C562   C     0.25000   0.50000   0.64489   0.00000  Uiso   1.00
C563   C    -0.00000   0.75000   0.35511   0.00000  Uiso   1.00
C564   C     0.00000   0.75000   0.64489   0.00000  Uiso   1.00
C565   C     0.00000   0.75000   0.85511   0.00000  Uiso   1.00
C566   C    -0.00000   0.75000   0.14489   0.00000  Uiso   1.00
C567   C     0.25000   0.50000   0.85511   0.00000  Uiso   1.00
C568   C     0.25000   0.50000   0.14489   0.00000  Uiso   1.00
C569   C     0.17989   0.57007   0.25004   0.00000  Uiso   1.00
C570   C     0.26451   0.52967   0.04166   0.00000  Uiso   1.00
C571   C     0.32007   0.92989   0.75004   0.00000  Uiso   1.00
C572   C     0.42989   0.67993   0.24996   0.00000  Uiso   1.00
C573   C     0.07007   0.82011   0.74996   0.00000  Uiso   1.00
C574   C     0.32011   0.92993   0.25004   0.00000  Uiso   1.00
C575   C     0.17993   0.57011   0.75004   0.00000  Uiso   1.00
C576   C     0.07011   0.82007   0.24996   0.00000  Uiso   1.00
C577   C     0.42993   0.67989   0.74996   0.00000  Uiso   1.00
C578   C     0.17989   0.92993   0.74996   0.00000  Uiso   1.00
C579   C     0.32007   0.57011   0.24996   0.00000  Uiso   1.00
C580   C     0.42989   0.82007   0.75003   0.00000  Uiso   1.00
C581   C     0.23550   0.52967   0.95834   0.00000  Uiso   1.00
C582   C     0.07007   0.67989   0.25004   0.00000  Uiso   1.00
C583   C     0.32011   0.57007   0.74996   0.00000  Uiso   1.00
C584   C     0.17993   0.92989   0.24996   0.00000  Uiso   1.00
C585   C     0.07011   0.67993   0.75003   0.00000  Uiso   1.00
C586   C     0.42993   0.82011   0.25004   0.00000  Uiso   1.00
C587   C     0.12237   0.90434   0.22421   0.00000  Uiso   1.00
C588   C     0.37783   0.59546   0.77546   0.00000  Uiso   1.00
C589   C     0.09546   0.62217   0.22453   0.00000  Uiso   1.00
C590   C     0.40435   0.87763   0.77579   0.00000  Uiso   1.00
C591   C     0.37763   0.59566   0.22421   0.00000  Uiso   1.00
C592   C     0.02964   0.76456   0.04165   0.00000  Uiso   1.00
C593   C     0.12217   0.90454   0.77546   0.00000  Uiso   1.00
C594   C     0.40454   0.87783   0.22453   0.00000  Uiso   1.00
C595   C     0.09565   0.62237   0.77579   0.00000  Uiso   1.00
C596   C     0.12237   0.59565   0.77579   0.00000  Uiso   1.00
C597   C     0.37783   0.90454   0.22453   0.00000  Uiso   1.00
C598   C     0.09546   0.87783   0.77546   0.00000  Uiso   1.00
C599   C     0.40434   0.62237   0.22421   0.00000  Uiso   1.00
C600   C     0.37763   0.90435   0.77579   0.00000  Uiso   1.00
C601   C     0.12217   0.59546   0.22453   0.00000  Uiso   1.00
C602   C     0.40454   0.62217   0.77546   0.00000  Uiso   1.00
C603   C     0.02968   0.73551   0.95834   0.00000  Uiso   1.00
C604   C     0.09566   0.87763   0.22421   0.00000  Uiso   1.00
C605   C     0.37237   0.65435   0.72421   0.00000  Uiso   1.00
C606   C     0.12783   0.84546   0.27547   0.00000  Uiso   1.00
C607   C     0.34546   0.87217   0.72453   0.00000  Uiso   1.00
C608   C     0.15435   0.62763   0.27579   0.00000  Uiso   1.00
C609   C     0.12763   0.84565   0.72421   0.00000  Uiso   1.00
C610   C     0.37217   0.65454   0.27547   0.00000  Uiso   1.00
C611   C     0.15454   0.62783   0.72453   0.00000  Uiso   1.00
C612   C     0.34565   0.87237   0.27579   0.00000  Uiso   1.00
C613   C     0.37237   0.84565   0.27579   0.00000  Uiso   1.00
C614   C     0.48551   0.72032   0.54166   0.00000  Uiso   1.00
C615   C     0.12783   0.65454   0.72453   0.00000  Uiso   1.00
C616   C     0.34546   0.62783   0.27547   0.00000  Uiso   1.00
C617   C     0.15435   0.87237   0.72421   0.00000  Uiso   1.00
C618   C     0.12763   0.65435   0.27579   0.00000  Uiso   1.00
C619   C     0.37217   0.84546   0.72453   0.00000  Uiso   1.00
C620   C     0.15454   0.87217   0.27547   0.00000  Uiso   1.00
C621   C     0.34565   0.62763   0.72421   0.00000  Uiso   1.00
C622   C     0.09822   0.84807   0.24988   0.00000  Uiso   1.00
C623   C     0.40193   0.65178   0.74988   0.00000  Uiso   1.00
C624   C     0.15178   0.59807   0.25012   0.00000  Uiso   1.00
H625   H     0.22411   0.94738   0.02601   0.00000  Uiso   1.00
H626   H     0.02587   0.69737   0.47398   0.00000  Uiso   1.00
H627   H     0.19737   0.97413   0.52602   0.00000  Uiso   1.00
H628   H     0.19737   0.52588   0.47398   0.00000  Uiso   1.00
H629   H     0.02584   0.80264   0.52602   0.00000  Uiso   1.00
H630   H     0.47413   0.80263   0.47398   0.00000  Uiso   1.00
H631   H     0.30263   0.52587   0.52601   0.00000  Uiso   1.00
H632   H     0.30262   0.97412   0.47398   0.00000  Uiso   1.00
H633   H     0.11986   0.92694   0.20413   0.00000  Uiso   1.00
H634   H     0.38036   0.57285   0.79552   0.00000  Uiso   1.00
H635   H     0.07285   0.61964   0.20447   0.00000  Uiso   1.00
H636   H     0.27587   0.94737   0.97398   0.00000  Uiso   1.00
H637   H     0.42694   0.88015   0.79587   0.00000  Uiso   1.00
H638   H     0.38014   0.57306   0.20413   0.00000  Uiso   1.00
H639   H     0.11964   0.92715   0.79552   0.00000  Uiso   1.00
H640   H     0.42715   0.88036   0.20447   0.00000  Uiso   1.00
H641   H     0.07306   0.61985   0.79587   0.00000  Uiso   1.00
H642   H     0.11985   0.57306   0.79587   0.00000  Uiso   1.00
H643   H     0.38036   0.92715   0.20447   0.00000  Uiso   1.00
H644   H     0.07285   0.88036   0.79552   0.00000  Uiso   1.00
H645   H     0.42694   0.61986   0.20413   0.00000  Uiso   1.00
H646   H     0.38015   0.92694   0.79587   0.00000  Uiso   1.00
H647   H     0.44743   0.72402   0.02601   0.00000  Uiso   1.00
H648   H     0.11964   0.57285   0.20447   0.00000  Uiso   1.00
H649   H     0.42715   0.61964   0.79552   0.00000  Uiso   1.00
H650   H     0.07306   0.88014   0.20413   0.00000  Uiso   1.00
H651   H     0.36985   0.67694   0.70413   0.00000  Uiso   1.00
H652   H     0.13036   0.82285   0.29553   0.00000  Uiso   1.00
H653   H     0.32285   0.86964   0.70447   0.00000  Uiso   1.00
H654   H     0.17694   0.63015   0.29587   0.00000  Uiso   1.00
H655   H     0.13015   0.82306   0.70413   0.00000  Uiso   1.00
H656   H     0.36964   0.67715   0.29553   0.00000  Uiso   1.00
H657   H     0.17715   0.63036   0.70447   0.00000  Uiso   1.00
H658   H     0.44736   0.77585   0.97398   0.00000  Uiso   1.00
H659   H     0.32306   0.86985   0.29587   0.00000  Uiso   1.00
H660   H     0.36985   0.82306   0.29587   0.00000  Uiso   1.00
H661   H     0.13036   0.67715   0.70447   0.00000  Uiso   1.00
H662   H     0.32285   0.63036   0.29553   0.00000  Uiso   1.00
H663   H     0.17694   0.86985   0.70413   0.00000  Uiso   1.00
H664   H     0.13015   0.67694   0.29587   0.00000  Uiso   1.00
H665   H     0.36964   0.82285   0.70447   0.00000  Uiso   1.00
H666   H     0.17715   0.86964   0.29553   0.00000  Uiso   1.00
H667   H     0.32306   0.63015   0.70413   0.00000  Uiso   1.00
H668   H     0.27589   0.55262   0.02601   0.00000  Uiso   1.00
H669   H     0.22413   0.55263   0.97398   0.00000  Uiso   1.00
H670   H     0.05257   0.77598   0.02601   0.00000  Uiso   1.00
H671   H     0.05264   0.72415   0.97398   0.00000  Uiso   1.00
H672   H     0.47416   0.69735   0.52602   0.00000  Uiso   1.00
I673   I     0.21307   0.92387   0.11063   0.00000  Uiso   1.00
I674   I     0.03690   0.67386   0.38937   0.00000  Uiso   1.00
I675   I     0.17386   0.96310   0.61063   0.00000  Uiso   1.00
I676   I     0.17387   0.53692   0.38937   0.00000  Uiso   1.00
I677   I     0.03686   0.82616   0.61063   0.00000  Uiso   1.00
I678   I     0.46310   0.82614   0.38937   0.00000  Uiso   1.00
I679   I     0.32614   0.53690   0.61063   0.00000  Uiso   1.00
I680   I     0.32613   0.96308   0.38937   0.00000  Uiso   1.00
I681   I     0.28690   0.92386   0.88937   0.00000  Uiso   1.00
I682   I     0.42394   0.71294   0.11062   0.00000  Uiso   1.00
I683   I     0.42385   0.78688   0.88937   0.00000  Uiso   1.00
I684   I     0.28693   0.57613   0.11063   0.00000  Uiso   1.00
I685   I     0.21310   0.57614   0.88937   0.00000  Uiso   1.00
I686   I     0.07606   0.78706   0.11062   0.00000  Uiso   1.00
I687   I     0.07615   0.71312   0.88937   0.00000  Uiso   1.00
I688   I     0.46314   0.67384   0.61063   0.00000  Uiso   1.00
O689   O     0.25000   0.50000   0.25000   0.00000  Uiso   1.00
O690   O     0.25000   0.96964   0.66317   0.00000  Uiso   1.00
O691   O     0.46964   0.75000   0.33683   0.00000  Uiso   1.00
O692   O     0.03036   0.75000   0.66317   0.00000  Uiso   1.00
O693   O     0.00000   0.71964   0.83683   0.00000  Uiso   1.00
O694   O     0.00000   0.78036   0.16317   0.00000  Uiso   1.00
O695   O     0.28036   0.50000   0.83683   0.00000  Uiso   1.00
O696   O     0.21964   0.50000   0.16317   0.00000  Uiso   1.00
O697   O     0.00000   0.78036   0.83683   0.00000  Uiso   1.00
O698   O    -0.00000   0.71964   0.16317   0.00000  Uiso   1.00
O699   O     0.21964   0.50000   0.83683   0.00000  Uiso   1.00
O700   O     0.25000   0.50000   0.75000   0.00000  Uiso   1.00
O701   O     0.28036   0.50000   0.16317   0.00000  Uiso   1.00
O702   O     0.20725   0.57307   0.27282   0.00000  Uiso   1.00
O703   O     0.29274   0.92693   0.72718   0.00000  Uiso   1.00
O704   O     0.42693   0.70725   0.27282   0.00000  Uiso   1.00
O705   O     0.07307   0.79275   0.72718   0.00000  Uiso   1.00
O706   O     0.29274   0.92693   0.27282   0.00000  Uiso   1.00
O707   O     0.20725   0.57307   0.72718   0.00000  Uiso   1.00
O708   O     0.07307   0.79275   0.27282   0.00000  Uiso   1.00
O709   O     0.42693   0.70725   0.72718   0.00000  Uiso   1.00
O710   O     0.20725   0.92693   0.72718   0.00000  Uiso   1.00
O711   O     0.00000   0.75000   0.25000   0.00000  Uiso   1.00
O712   O     0.29274   0.57307   0.27282   0.00000  Uiso   1.00
O713   O     0.42693   0.79274   0.72718   0.00000  Uiso   1.00
O714   O     0.07307   0.70726   0.27282   0.00000  Uiso   1.00
O715   O     0.29274   0.57307   0.72718   0.00000  Uiso   1.00
O716   O     0.20725   0.92693   0.27282   0.00000  Uiso   1.00
O717   O     0.07307   0.70726   0.72718   0.00000  Uiso   1.00
O718   O     0.42693   0.79274   0.27282   0.00000  Uiso   1.00
O719   O     0.45725   0.82307   0.77282   0.00000  Uiso   1.00
O720   O     0.04274   0.67693   0.22718   0.00000  Uiso   1.00
O721   O     0.17693   0.95726   0.77282   0.00000  Uiso   1.00
O722   O     0.00000   0.75000   0.75000   0.00000  Uiso   1.00
O723   O     0.32307   0.54274   0.22718   0.00000  Uiso   1.00
O724   O     0.04274   0.67693   0.77282   0.00000  Uiso   1.00
O725   O     0.45725   0.82307   0.22718   0.00000  Uiso   1.00
O726   O     0.32307   0.54274   0.77282   0.00000  Uiso   1.00
O727   O     0.17693   0.95726   0.22718   0.00000  Uiso   1.00
O728   O     0.45725   0.67693   0.22718   0.00000  Uiso   1.00
O729   O     0.04274   0.82307   0.77282   0.00000  Uiso   1.00
O730   O     0.17693   0.54274   0.22718   0.00000  Uiso   1.00
O731   O     0.32307   0.95726   0.77282   0.00000  Uiso   1.00
O732   O     0.04274   0.82307   0.22718   0.00000  Uiso   1.00
O733   O     0.25000   0.96964   0.33683   0.00000  Uiso   1.00
O734   O     0.45725   0.67693   0.77282   0.00000  Uiso   1.00
O735   O     0.32307   0.95726   0.22718   0.00000  Uiso   1.00
O736   O     0.17693   0.54274   0.77282   0.00000  Uiso   1.00
O737   O     0.25000   0.53036   0.66317   0.00000  Uiso   1.00
O738   O     0.03036   0.75000   0.33683   0.00000  Uiso   1.00
O739   O     0.46964   0.75000   0.66317   0.00000  Uiso   1.00
O740   O     0.25000   0.53036   0.33683   0.00000  Uiso   1.00
Zn741  Zn    0.20660   0.50000   0.21760   0.00000  Uiso   1.00
Zn742  Zn    0.04340   0.75000   0.28240   0.00000  Uiso   1.00
Zn743  Zn    0.25000   0.95660   0.71760   0.00000  Uiso   1.00
Zn744  Zn    0.25000   0.54340   0.28240   0.00000  Uiso   1.00
Zn745  Zn    0.04340   0.75000   0.71760   0.00000  Uiso   1.00
Zn746  Zn    0.45660   0.75000   0.28240   0.00000  Uiso   1.00
Zn747  Zn    0.25000   0.54340   0.71760   0.00000  Uiso   1.00
Zn748  Zn    0.25000   0.95660   0.28240   0.00000  Uiso   1.00
Zn749  Zn    0.29340   0.50000   0.78240   0.00000  Uiso   1.00
Zn750  Zn   -0.00000   0.70660   0.21760   0.00000  Uiso   1.00
Zn751  Zn    0.00000   0.79340   0.78240   0.00000  Uiso   1.00
Zn752  Zn    0.29340   0.50000   0.21760   0.00000  Uiso   1.00
Zn753  Zn    0.20660   0.50000   0.78240   0.00000  Uiso   1.00
Zn754  Zn    0.00000   0.79340   0.21760   0.00000  Uiso   1.00
Zn755  Zn    0.00000   0.70660   0.78240   0.00000  Uiso   1.00
Zn756  Zn    0.45660   0.75000   0.71760   0.00000  Uiso   1.00
C757   C     0.73549   0.97033   0.04166   0.00000  Uiso   1.00
C758   C     0.51450   0.72033   0.45834   0.00000  Uiso   1.00
C759   C     0.84807   0.90178   0.75012   0.00000  Uiso   1.00
C760   C     0.90178   0.65193   0.24988   0.00000  Uiso   1.00
C761   C     0.59807   0.84822   0.74988   0.00000  Uiso   1.00
C762   C     0.84822   0.90193   0.25012   0.00000  Uiso   1.00
C763   C     0.65193   0.59822   0.75012   0.00000  Uiso   1.00
C764   C     0.59822   0.65193   0.75012   0.00000  Uiso   1.00
C765   C     0.90193   0.84822   0.25012   0.00000  Uiso   1.00
C766   C     0.65178   0.90193   0.74988   0.00000  Uiso   1.00
C767   C     0.84807   0.59822   0.24988   0.00000  Uiso   1.00
C768   C     0.90178   0.84807   0.75012   0.00000  Uiso   1.00
C769   C     0.72033   0.98550   0.54166   0.00000  Uiso   1.00
C770   C     0.59807   0.65178   0.25012   0.00000  Uiso   1.00
C771   C     0.84822   0.59807   0.74988   0.00000  Uiso   1.00
C772   C     0.65193   0.90178   0.24988   0.00000  Uiso   1.00
C773   C     0.75000   0.50000   0.10259   0.00000  Uiso   1.00
C774   C     0.75000   0.50000   0.89741   0.00000  Uiso   1.00
C775   C     0.50000   0.75000   0.10258   0.00000  Uiso   1.00
C776   C     0.50000   0.75000   0.89741   0.00000  Uiso   1.00
C777   C     0.50000   0.75000   0.60259   0.00000  Uiso   1.00
C778   C     0.50000   0.75000   0.39741   0.00000  Uiso   1.00
C779   C     0.75000   0.50000   0.60259   0.00000  Uiso   1.00
C780   C     0.72033   0.51451   0.45834   0.00000  Uiso   1.00
C781   C     0.75000   0.50000   0.39741   0.00000  Uiso   1.00
C782   C     0.51449   0.77968   0.54166   0.00000  Uiso   1.00
C783   C     0.98550   0.77967   0.45834   0.00000  Uiso   1.00
C784   C     0.77967   0.51450   0.54166   0.00000  Uiso   1.00
C785   C     0.77967   0.98549   0.45834   0.00000  Uiso   1.00
C786   C     0.73515   0.97027   0.08216   0.00000  Uiso   1.00
C787   C     0.76484   0.97026   0.91784   0.00000  Uiso   1.00
C788   C     0.97030   0.73509   0.08215   0.00000  Uiso   1.00
C789   C     0.76450   0.97033   0.95834   0.00000  Uiso   1.00
C790   C     0.97026   0.76483   0.91784   0.00000  Uiso   1.00
C791   C     0.76485   0.52973   0.08216   0.00000  Uiso   1.00
C792   C     0.73515   0.52974   0.91784   0.00000  Uiso   1.00
C793   C     0.52970   0.76491   0.08215   0.00000  Uiso   1.00
C794   C     0.52974   0.73517   0.91784   0.00000  Uiso   1.00
C795   C     0.98517   0.72025   0.58216   0.00000  Uiso   1.00
C796   C     0.51484   0.72026   0.41784   0.00000  Uiso   1.00
C797   C     0.72026   0.98516   0.58216   0.00000  Uiso   1.00
C798   C     0.72027   0.51485   0.41784   0.00000  Uiso   1.00
C799   C     0.51483   0.77975   0.58216   0.00000  Uiso   1.00
C800   C     0.97036   0.73544   0.04165   0.00000  Uiso   1.00
C801   C     0.98516   0.77974   0.41784   0.00000  Uiso   1.00
C802   C     0.77974   0.51485   0.58216   0.00000  Uiso   1.00
C803   C     0.77973   0.98515   0.41784   0.00000  Uiso   1.00
C804   C     0.75000   0.50000   0.02130   0.00000  Uiso   1.00
C805   C     0.75000   0.50000   0.97870   0.00000  Uiso   1.00
C806   C     0.50000   0.75000   0.02130   0.00000  Uiso   1.00
C807   C     0.50000   0.75000   0.97870   0.00000  Uiso   1.00
C808   C     0.50000   0.75000   0.52130   0.00000  Uiso   1.00
C809   C     0.50000   0.75000   0.47870   0.00000  Uiso   1.00
C810   C     0.75000   0.50000   0.52130   0.00000  Uiso   1.00
C811   C     0.97032   0.76449   0.95834   0.00000  Uiso   1.00
C812   C     0.75000   0.50000   0.47870   0.00000  Uiso   1.00
C813   C     0.75000   0.50000   0.35511   0.00000  Uiso   1.00
C814   C     0.75000   0.50000   0.64489   0.00000  Uiso   1.00
C815   C     0.50000   0.75000   0.35511   0.00000  Uiso   1.00
C816   C     0.50000   0.75000   0.64489   0.00000  Uiso   1.00
C817   C     0.50000   0.75000   0.85511   0.00000  Uiso   1.00
C818   C     0.50000   0.75000   0.14489   0.00000  Uiso   1.00
C819   C     0.75000   0.50000   0.85511   0.00000  Uiso   1.00
C820   C     0.75000   0.50000   0.14489   0.00000  Uiso   1.00
C821   C     0.67989   0.57007   0.25004   0.00000  Uiso   1.00
C822   C     0.76451   0.52967   0.04166   0.00000  Uiso   1.00
C823   C     0.82007   0.92989   0.75004   0.00000  Uiso   1.00
C824   C     0.92989   0.67993   0.24996   0.00000  Uiso   1.00
C825   C     0.57007   0.82011   0.74996   0.00000  Uiso   1.00
C826   C     0.82011   0.92993   0.25004   0.00000  Uiso   1.00
C827   C     0.67993   0.57011   0.75004   0.00000  Uiso   1.00
C828   C     0.57011   0.82007   0.24996   0.00000  Uiso   1.00
C829   C     0.92993   0.67989   0.74996   0.00000  Uiso   1.00
C830   C     0.67989   0.92993   0.74996   0.00000  Uiso   1.00
C831   C     0.82007   0.57011   0.24996   0.00000  Uiso   1.00
C832   C     0.92989   0.82007   0.75003   0.00000  Uiso   1.00
C833   C     0.73550   0.52967   0.95834   0.00000  Uiso   1.00
C834   C     0.57007   0.67989   0.25004   0.00000  Uiso   1.00
C835   C     0.82011   0.57007   0.74996   0.00000  Uiso   1.00
C836   C     0.67993   0.92989   0.24996   0.00000  Uiso   1.00
C837   C     0.57011   0.67993   0.75003   0.00000  Uiso   1.00
C838   C     0.92993   0.82011   0.25004   0.00000  Uiso   1.00
C839   C     0.62237   0.90434   0.22421   0.00000  Uiso   1.00
C840   C     0.87783   0.59546   0.77546   0.00000  Uiso   1.00
C841   C     0.59546   0.62217   0.22453   0.00000  Uiso   1.00
C842   C     0.90435   0.87763   0.77579   0.00000  Uiso   1.00
C843   C     0.87763   0.59566   0.22421   0.00000  Uiso   1.00
C844   C     0.52964   0.76456   0.04165   0.00000  Uiso   1.00
C845   C     0.62217   0.90454   0.77546   0.00000  Uiso   1.00
C846   C     0.90454   0.87783   0.22453   0.00000  Uiso   1.00
C847   C     0.59565   0.62237   0.77579   0.00000  Uiso   1.00
C848   C     0.62237   0.59565   0.77579   0.00000  Uiso   1.00
C849   C     0.87783   0.90454   0.22453   0.00000  Uiso   1.00
C850   C     0.59546   0.87783   0.77546   0.00000  Uiso   1.00
C851   C     0.90434   0.62237   0.22421   0.00000  Uiso   1.00
C852   C     0.87763   0.90435   0.77579   0.00000  Uiso   1.00
C853   C     0.62217   0.59546   0.22453   0.00000  Uiso   1.00
C854   C     0.90454   0.62217   0.77546   0.00000  Uiso   1.00
C855   C     0.52968   0.73551   0.95834   0.00000  Uiso   1.00
C856   C     0.59566   0.87763   0.22421   0.00000  Uiso   1.00
C857   C     0.87237   0.65435   0.72421   0.00000  Uiso   1.00
C858   C     0.62783   0.84546   0.27547   0.00000  Uiso   1.00
C859   C     0.84546   0.87217   0.72453   0.00000  Uiso   1.00
C860   C     0.65435   0.62763   0.27579   0.00000  Uiso   1.00
C861   C     0.62763   0.84565   0.72421   0.00000  Uiso   1.00
C862   C     0.87217   0.65454   0.27547   0.00000  Uiso   1.00
C863   C     0.65454   0.62783   0.72453   0.00000  Uiso   1.00
C864   C     0.84565   0.87237   0.27579   0.00000  Uiso   1.00
C865   C     0.87237   0.84565   0.27579   0.00000  Uiso   1.00
C866   C     0.98551   0.72032   0.54166   0.00000  Uiso   1.00
C867   C     0.62783   0.65454   0.72453   0.00000  Uiso   1.00
C868   C     0.84546   0.62783   0.27547   0.00000  Uiso   1.00
C869   C     0.65435   0.87237   0.72421   0.00000  Uiso   1.00
C870   C     0.62763   0.65435   0.27579   0.00000  Uiso   1.00
C871   C     0.87217   0.84546   0.72453   0.00000  Uiso   1.00
C872   C     0.65454   0.87217   0.27547   0.00000  Uiso   1.00
C873   C     0.84565   0.62763   0.72421   0.00000  Uiso   1.00
C874   C     0.59822   0.84807   0.24988   0.00000  Uiso   1.00
C875   C     0.90193   0.65178   0.74988   0.00000  Uiso   1.00
C876   C     0.65178   0.59807   0.25012   0.00000  Uiso   1.00
H877   H     0.72411   0.94738   0.02601   0.00000  Uiso   1.00
H878   H     0.52587   0.69737   0.47398   0.00000  Uiso   1.00
H879   H     0.69737   0.97413   0.52602   0.00000  Uiso   1.00
H880   H     0.69737   0.52588   0.47398   0.00000  Uiso   1.00
H881   H     0.52584   0.80264   0.52602   0.00000  Uiso   1.00
H882   H     0.97413   0.80263   0.47398   0.00000  Uiso   1.00
H883   H     0.80263   0.52587   0.52601   0.00000  Uiso   1.00
H884   H     0.80262   0.97412   0.47398   0.00000  Uiso   1.00
H885   H     0.61986   0.92694   0.20413   0.00000  Uiso   1.00
H886   H     0.88036   0.57285   0.79552   0.00000  Uiso   1.00
H887   H     0.57285   0.61964   0.20447   0.00000  Uiso   1.00
H888   H     0.77587   0.94737   0.97398   0.00000  Uiso   1.00
H889   H     0.92694   0.88015   0.79587   0.00000  Uiso   1.00
H890   H     0.88014   0.57306   0.20413   0.00000  Uiso   1.00
H891   H     0.61964   0.92715   0.79552   0.00000  Uiso   1.00
H892   H     0.92715   0.88036   0.20447   0.00000  Uiso   1.00
H893   H     0.57306   0.61985   0.79587   0.00000  Uiso   1.00
H894   H     0.61985   0.57306   0.79587   0.00000  Uiso   1.00
H895   H     0.88036   0.92715   0.20447   0.00000  Uiso   1.00
H896   H     0.57285   0.88036   0.79552   0.00000  Uiso   1.00
H897   H     0.92694   0.61986   0.20413   0.00000  Uiso   1.00
H898   H     0.88015   0.92694   0.79587   0.00000  Uiso   1.00
H899   H     0.94743   0.72402   0.02601   0.00000  Uiso   1.00
H900   H     0.61964   0.57285   0.20447   0.00000  Uiso   1.00
H901   H     0.92715   0.61964   0.79552   0.00000  Uiso   1.00
H902   H     0.57306   0.88014   0.20413   0.00000  Uiso   1.00
H903   H     0.86985   0.67694   0.70413   0.00000  Uiso   1.00
H904   H     0.63036   0.82285   0.29553   0.00000  Uiso   1.00
H905   H     0.82285   0.86964   0.70447   0.00000  Uiso   1.00
H906   H     0.67694   0.63015   0.29587   0.00000  Uiso   1.00
H907   H     0.63015   0.82306   0.70413   0.00000  Uiso   1.00
H908   H     0.86964   0.67715   0.29553   0.00000  Uiso   1.00
H909   H     0.67715   0.63036   0.70447   0.00000  Uiso   1.00
H910   H     0.94736   0.77585   0.97398   0.00000  Uiso   1.00
H911   H     0.82306   0.86985   0.29587   0.00000  Uiso   1.00
H912   H     0.86985   0.82306   0.29587   0.00000  Uiso   1.00
H913   H     0.63036   0.67715   0.70447   0.00000  Uiso   1.00
H914   H     0.82285   0.63036   0.29553   0.00000  Uiso   1.00
H915   H     0.67694   0.86985   0.70413   0.00000  Uiso   1.00
H916   H     0.63015   0.67694   0.29587   0.00000  Uiso   1.00
H917   H     0.86964   0.82285   0.70447   0.00000  Uiso   1.00
H918   H     0.67715   0.86964   0.29553   0.00000  Uiso   1.00
H919   H     0.82306   0.63015   0.70413   0.00000  Uiso   1.00
H920   H     0.77589   0.55262   0.02601   0.00000  Uiso   1.00
H921   H     0.72413   0.55263   0.97398   0.00000  Uiso   1.00
H922   H     0.55257   0.77598   0.02601   0.00000  Uiso   1.00
H923   H     0.55264   0.72415   0.97398   0.00000  Uiso   1.00
H924   H     0.97416   0.69735   0.52602   0.00000  Uiso   1.00
I925   I     0.71307   0.92387   0.11063   0.00000  Uiso   1.00
I926   I     0.53690   0.67386   0.38937   0.00000  Uiso   1.00
I927   I     0.67386   0.96310   0.61063   0.00000  Uiso   1.00
I928   I     0.67387   0.53692   0.38937   0.00000  Uiso   1.00
I929   I     0.53686   0.82616   0.61063   0.00000  Uiso   1.00
I930   I     0.96310   0.82614   0.38937   0.00000  Uiso   1.00
I931   I     0.82614   0.53690   0.61063   0.00000  Uiso   1.00
I932   I     0.82613   0.96308   0.38937   0.00000  Uiso   1.00
I933   I     0.78690   0.92386   0.88937   0.00000  Uiso   1.00
I934   I     0.92394   0.71294   0.11062   0.00000  Uiso   1.00
I935   I     0.92385   0.78688   0.88937   0.00000  Uiso   1.00
I936   I     0.78693   0.57613   0.11063   0.00000  Uiso   1.00
I937   I     0.71310   0.57614   0.88937   0.00000  Uiso   1.00
I938   I     0.57606   0.78706   0.11062   0.00000  Uiso   1.00
I939   I     0.57615   0.71312   0.88937   0.00000  Uiso   1.00
I940   I     0.96314   0.67384   0.61063   0.00000  Uiso   1.00
O941   O     0.75000   0.50000   0.25000   0.00000  Uiso   1.00
O942   O     0.75000   0.96964   0.66317   0.00000  Uiso   1.00
O943   O     0.96964   0.75000   0.33683   0.00000  Uiso   1.00
O944   O     0.53036   0.75000   0.66317   0.00000  Uiso   1.00
O945   O     0.50000   0.71964   0.83683   0.00000  Uiso   1.00
O946   O     0.50000   0.78036   0.16317   0.00000  Uiso   1.00
O947   O     0.78036   0.50000   0.83683   0.00000  Uiso   1.00
O948   O     0.71964   0.50000   0.16317   0.00000  Uiso   1.00
O949   O     0.50000   0.78036   0.83683   0.00000  Uiso   1.00
O950   O     0.50000   0.71964   0.16317   0.00000  Uiso   1.00
O951   O     0.71964   0.50000   0.83683   0.00000  Uiso   1.00
O952   O     0.75000   0.50000   0.75000   0.00000  Uiso   1.00
O953   O     0.78036   0.50000   0.16317   0.00000  Uiso   1.00
O954   O     0.70725   0.57307   0.27282   0.00000  Uiso   1.00
O955   O     0.79274   0.92693   0.72718   0.00000  Uiso   1.00
O956   O     0.92693   0.70725   0.27282   0.00000  Uiso   1.00
O957   O     0.57307   0.79275   0.72718   0.00000  Uiso   1.00
O958   O     0.79274   0.92693   0.27282   0.00000  Uiso   1.00
O959   O     0.70725   0.57307   0.72718   0.00000  Uiso   1.00
O960   O     0.57307   0.79275   0.27282   0.00000  Uiso   1.00
O961   O     0.92693   0.70725   0.72718   0.00000  Uiso   1.00
O962   O     0.70725   0.92693   0.72718   0.00000  Uiso   1.00
O963   O     0.50000   0.75000   0.25000   0.00000  Uiso   1.00
O964   O     0.79274   0.57307   0.27282   0.00000  Uiso   1.00
O965   O     0.92693   0.79274   0.72718   0.00000  Uiso   1.00
O966   O     0.57307   0.70726   0.27282   0.00000  Uiso   1.00
O967   O     0.79274   0.57307   0.72718   0.00000  Uiso   1.00
O968   O     0.70725   0.92693   0.27282   0.00000  Uiso   1.00
O969   O     0.57307   0.70726   0.72718   0.00000  Uiso   1.00
O970   O     0.92693   0.79274   0.27282   0.00000  Uiso   1.00
O971   O     0.95725   0.82307   0.77282   0.00000  Uiso   1.00
O972   O     0.54274   0.67693   0.22718   0.00000  Uiso   1.00
O973   O     0.67693   0.95726   0.77282   0.00000  Uiso   1.00
O974   O     0.50000   0.75000   0.75000   0.00000  Uiso   1.00
O975   O     0.82307   0.54274   0.22718   0.00000  Uiso   1.00
O976   O     0.54274   0.67693   0.77282   0.00000  Uiso   1.00
O977   O     0.95725   0.82307   0.22718   0.00000  Uiso   1.00
O978   O     0.82307   0.54274   0.77282   0.00000  Uiso   1.00
O979   O     0.67693   0.95726   0.22718   0.00000  Uiso   1.00
O980   O     0.95725   0.67693   0.22718   0.00000  Uiso   1.00
O981   O     0.54274   0.82307   0.77282   0.00000  Uiso   1.00
O982   O     0.67693   0.54274   0.22718   0.00000  Uiso   1.00
O983   O     0.82307   0.95726   0.77282   0.00000  Uiso   1.00
O984   O     0.54274   0.82307   0.22718   0.00000  Uiso   1.00
O985   O     0.75000   0.96964   0.33683   0.00000  Uiso   1.00
O986   O     0.95725   0.67693   0.77282   0.00000  Uiso   1.00
O987   O     0.82307   0.95726   0.22718   0.00000  Uiso   1.00
O988   O     0.67693   0.54274   0.77282   0.00000  Uiso   1.00
O989   O     0.75000   0.53036   0.66317   0.00000  Uiso   1.00
O990   O     0.53036   0.75000   0.33683   0.00000  Uiso   1.00
O991   O     0.96964   0.75000   0.66317   0.00000  Uiso   1.00
O992   O     0.75000   0.53036   0.33683   0.00000  Uiso   1.00
Zn993  Zn    0.70660   0.50000   0.21760   0.00000  Uiso   1.00
Zn994  Zn    0.54340   0.75000   0.28240   0.00000  Uiso   1.00
Zn995  Zn    0.75000   0.95660   0.71760   0.00000  Uiso   1.00
Zn996  Zn    0.75000   0.54340   0.28240   0.00000  Uiso   1.00
Zn997  Zn    0.54340   0.75000   0.71760   0.00000  Uiso   1.00
Zn998  Zn    0.95660   0.75000   0.28240   0.00000  Uiso   1.00
Zn999  Zn    0.75000   0.54340   0.71760   0.00000  Uiso   1.00
Zn1000 Zn    0.75000   0.95660   0.28240   0.00000  Uiso   1.00
Zn1001 Zn    0.79340   0.50000   0.78240   0.00000  Uiso   1.00
Zn1002 Zn    0.50000   0.70660   0.21760   0.00000  Uiso   1.00
Zn1003 Zn    0.50000   0.79340   0.78240   0.00000  Uiso   1.00
Zn1004 Zn    0.79340   0.50000   0.21760   0.00000  Uiso   1.00
Zn1005 Zn    0.70660   0.50000   0.78240   0.00000  Uiso   1.00
Zn1006 Zn    0.50000   0.79340   0.21760   0.00000  Uiso   1.00
Zn1007 Zn    0.50000   0.70660   0.78240   0.00000  Uiso   1.00
Zn1008 Zn    0.95660   0.75000   0.71760   0.00000  Uiso   1.00
loop_
_geom_bond_atom_site_label_1
_geom_bond_atom_site_label_2
_geom_bond_distance
_geom_bond_site_symmetry_2
_ccdc_geom_bond_type
C1     C552    1.400   .     A
C1     H121    1.083   .     S
C1     C30     1.393   .     A
C2     H122    1.083   .     S
C2     C40     1.393   .     A
C2     C53     1.400   .     S
C3     C96     1.402   .     A
C3     C67     1.457   .     S
C3     C103    1.402   .     A
C4     C68     1.457   .     S
C4     C106    1.402   .     A
C4     C95     1.402   .     A
C5     C94     1.402   .     A
C5     C69     1.457   .     S
C5     C105    1.402   .     A
C6     C93     1.402   .     A
C6     C70     1.457   .     S
C6     C108    1.402   .     A
C7     C71     1.457   .     S
C7     C92     1.402   .     A
C7     C107    1.402   .     A
C8     C81     1.457   .     S
C8     C111    1.402   .     A
C8     C91     1.402   .     A
C9     C109    1.402   .     A
C9     C90     1.402   .     A
C9     C82     1.457   .     S
C10    C89     1.402   .     A
C10    C113    1.402   .     A
C10    C74     1.457   .     S
C11    C87     1.402   .     A
C11    C112    1.402   .     A
C11    C75     1.457   .     S
C12    C115    1.402   .     A
C12    C76     1.457   .     S
C12    C86     1.402   .     A
C13    H123    1.083   .     S
C13    C41     1.393   .     A
C13    C558    1.400   .     S
C14    C114    1.402   .     A
C14    C85     1.402   .     A
C14    C78     1.457   .     S
C15    C79     1.457   .     S
C15    C117    1.402   .     A
C15    C84     1.402   .     A
C16    C116    1.402   .     A
C16    C83     1.402   .     A
C16    C80     1.457   .     S
C17    C64     1.455   .     S
C17    C534    1.408   1_545 A
C17    C35     1.408   .     S
C18    C535    1.408   1_545 A
C18    C36     1.408   .     S
C18    C63     1.455   .     S
C19    C62     1.455   .     S
C19    C284    1.408   1_455 A
C19    C37     1.408   .     S
C20    C286    1.408   1_455 A
C20    C38     1.408   .     S
C20    C61     1.455   .     S
C21    C60     1.455   .     S
C21    C43     1.408   .     A
C21    C291    1.408   1_455 S
C22    C59     1.455   .     S
C22    C297    1.408   1_455 A
C22    C40     1.408   .     S
C23    C58     1.455   .     S
C23    C46     1.408   .     A
C23    C545    1.408   1_545 S
C24    C42     1.393   .     A
C24    H124    1.083   .     S
C24    C56     1.400   .     S
C25    C57     1.455   .     S
C25    C551    1.408   1_545 A
C25    C42     1.408   .     S
C26    C43     1.393   .     A
C26    C52     1.400   .     A
C26    H125    1.083   .     S
C27    H126    1.083   .     S
C27    C45     1.393   .     A
C27    C305    1.400   .     A
C28    C46     1.393   .     A
C28    H127    1.083   .     S
C28    C54     1.400   .     A
C29    C47     1.393   .     A
C29    H128    1.083   .     S
C29    C560    1.400   .     A
C30    C521    1.408   .     A
C30    I169    2.125   .     S
C31    C33     1.393   .     A
C31    I177    2.125   .     S
C31    C522    1.408   .     A
C32    I178    2.125   .     S
C32    C271    1.408   .     A
C32    C44     1.393   .     A
C33    C553    1.400   .     A
C33    H132    1.083   .     S
C34    C272    1.408   .     A
C34    C55     1.393   .     A
C34    I179    2.125   .     S
C35    C66     1.393   .     A
C35    I180    2.125   .     S
C36    C77     1.393   .     A
C36    I181    2.125   .     S
C37    C88     1.393   .     A
C37    I182    2.125   .     S
C38    I183    2.125   .     S
C38    C99     1.393   .     A
C39    C110    1.393   .     A
C39    I184    2.125   .     S
C39    C273    1.408   .     S
C40    I170    2.125   .     S
C41    I171    2.125   .     S
C41    C527    1.408   .     S
C42    I172    2.125   .     S
C43    I173    2.125   .     S
C44    H143    1.083   .     S
C44    C302    1.400   .     A
C45    I174    2.125   .     S
C45    C274    1.408   .     A
C46    I175    2.125   .     S
C47    I176    2.125   .     S
C47    C529    1.408   .     A
C48    C505    1.400   1_545 A
C48    C49     1.465   1_554 S
C48    C66     1.400   .     S
C49    C537    1.400   1_545 A
C49    C48     1.465   1_556 S
C49    C77     1.400   .     S
C50    C296    1.400   1_455 A
C50    C51     1.465   1_554 S
C50    C88     1.400   .     S
C51    C307    1.400   1_455 A
C51    C50     1.465   1_556 S
C51    C99     1.400   .     S
C52    C53     1.465   .     S
C52    C362    1.400   1_455 S
C53    C279    1.400   1_455 A
C54    C517    1.400   1_545 S
C54    C56     1.465   .     S
C55    H154    1.083   .     S
C55    C303    1.400   .     A
C56    C533    1.400   1_545 A
C57    O733    1.280   1_545 A
C57    O236    1.280   .     S
C58    O233    1.280   .     A
C58    O690    1.280   1_545 S
C59    O439    1.280   1_455 A
C59    O234    1.280   .     S
C60    O188    1.280   .     A
C60    O487    1.280   1_455 S
C61    O189    1.280   .     A
C61    O193    1.280   .     A
C62    O194    1.280   .     A
C62    O190    1.280   .     S
C63    O195    1.280   .     A
C63    O191    1.280   .     A
C64    O192    1.280   .     S
C64    O197    1.280   .     S
C65    O198    1.279   .     A
C65    O226    1.279   .     A
C65    C120    1.457   .     S
C66    H164    1.083   .     S
C67    O199    1.279   .     A
C67    O227    1.279   .     A
C68    O200    1.279   .     A
C68    O224    1.279   .     A
C69    O201    1.279   .     A
C69    O225    1.279   .     A
C70    O231    1.279   .     A
C70    O202    1.279   .     A
C71    O203    1.279   .     A
C71    O232    1.279   .     A
C72    O228    1.279   .     A
C72    C118    1.457   .     S
C72    O204    1.279   .     A
C73    C119    1.457   .     S
C73    O230    1.279   .     A
C73    O205    1.279   .     A
C74    O206    1.279   .     A
C74    O217    1.279   .     A
C75    O219    1.279   .     A
C75    O208    1.279   .     A
C76    O209    1.279   .     A
C76    O215    1.279   .     A
C77    H165    1.083   .     S
C78    O210    1.279   .     A
C78    O216    1.279   .     A
C79    O222    1.279   .     A
C79    O211    1.279   .     A
C80    O212    1.279   .     A
C80    O223    1.279   .     A
C81    O213    1.279   .     A
C81    O220    1.279   .     A
C82    O221    1.279   .     A
C82    O214    1.279   .     A
C83    C100    1.387   .     A
C83    H129    1.083   .     S
C84    C98     1.387   .     A
C84    H130    1.083   .     S
C85    H131    1.083   .     S
C85    C97     1.387   .     A
C86    H133    1.083   .     S
C86    C96     1.387   .     A
C87    C95     1.387   .     A
C87    H134    1.083   .     S
C88    H166    1.083   .     S
C89    H135    1.083   .     S
C89    C94     1.387   .     A
C90    H136    1.083   .     S
C90    C93     1.387   .     A
C91    H137    1.083   .     S
C91    C92     1.387   .     A
C92    H138    1.083   .     S
C93    H139    1.083   .     S
C94    H140    1.083   .     S
C95    H141    1.083   .     S
C96    H142    1.083   .     S
C97    H144    1.083   .     S
C97    C120    1.402   .     A
C98    C119    1.402   .     A
C98    H145    1.083   .     S
C99    H167    1.083   .     S
C100   C118    1.402   .     A
C100   H146    1.083   .     S
C101   C119    1.402   .     A
C101   H147    1.083   .     S
C101   C117    1.387   .     A
C102   H148    1.083   .     S
C102   C118    1.402   .     A
C102   C116    1.387   .     A
C103   C115    1.387   .     A
C103   H149    1.083   .     S
C104   H150    1.083   .     S
C104   C114    1.387   .     A
C104   C120    1.402   .     A
C105   C113    1.387   .     A
C105   H151    1.083   .     S
C106   C112    1.387   .     A
C106   H152    1.083   .     S
C107   H153    1.083   .     S
C107   C111    1.387   .     A
C108   C109    1.387   .     A
C108   H155    1.083   .     S
C109   H156    1.083   .     S
C110   H168    1.083   .     S
C110   C304    1.400   .     S
C111   H157    1.083   .     S
C112   H158    1.083   .     S
C113   H159    1.083   .     S
C114   H160    1.083   .     S
C115   H161    1.083   .     S
C116   H162    1.083   .     S
C117   H163    1.083   .     S
O185   Zn240   1.944   .     S
O185   Zn248   1.944   .     S
O185   Zn237   1.944   .     S
O185   Zn748   1.944   1_545 S
O186   Zn239   1.932   .     S
O186   C562    1.280   .     S
O187   C311    1.280   .     A
O187   Zn242   1.932   .     S
O188   Zn241   1.932   .     S
O189   Zn251   1.932   .     S
O190   Zn250   1.932   .     S
O191   Zn245   1.932   .     S
O192   Zn237   1.932   .     S
O193   Zn247   1.932   .     S
O194   Zn246   1.932   .     S
O195   Zn249   1.932   .     S
O196   Zn245   1.944   .     S
O196   Zn249   1.944   .     S
O196   Zn243   1.944   .     S
O196   Zn743   1.944   1_545 S
O197   Zn248   1.932   .     S
O198   Zn240   1.938   .     S
O199   Zn239   1.938   .     S
O200   Zn242   1.938   .     S
O201   Zn241   1.938   .     S
O202   Zn244   1.938   .     S
O203   Zn243   1.938   .     S
O204   Zn238   1.938   .     S
O205   Zn252   1.938   .     S
O206   Zn239   1.938   .     S
O207   Zn238   1.944   .     S
O207   Zn250   1.944   .     S
O207   Zn494   1.944   1_455 S
O207   Zn246   1.944   .     S
O208   Zn240   1.938   .     S
O209   Zn252   1.938   .     S
O210   Zn238   1.938   .     S
O211   Zn243   1.938   .     S
O212   Zn244   1.938   .     S
O213   Zn241   1.938   .     S
O214   Zn242   1.938   .     S
O215   Zn499   1.938   .     S
O216   Zn246   1.938   .     S
O217   Zn753   1.938   .     S
O218   Zn251   1.944   .     S
O218   Zn241   1.944   .     S
O218   Zn247   1.944   .     S
O218   Zn504   1.944   1_455 S
O219   Zn248   1.938   .     S
O220   Zn251   1.938   .     S
O221   Zn502   1.938   .     S
O222   Zn245   1.938   .     S
O223   Zn741   1.938   .     S
O224   Zn498   1.938   .     S
O225   Zn247   1.938   .     S
O226   Zn237   1.938   .     S
O227   Zn749   1.938   .     S
O228   Zn250   1.938   .     S
O229   Zn244   1.932   .     S
O229   C561    1.280   .     A
O230   Zn503   1.938   .     S
O231   Zn752   1.938   .     S
O232   Zn249   1.938   .     S
O233   Zn243   1.932   .     S
O234   Zn238   1.932   .     S
O235   Zn252   1.932   .     S
O235   C312    1.280   .     S
O236   Zn240   1.932   .     S
Zn237  O727    1.938   1_545 S
Zn239  O700    1.944   .     S
Zn242  O459    1.944   .     S
Zn244  O689    1.944   .     S
Zn245  O731    1.938   1_545 S
Zn246  O476    1.938   1_455 S
Zn247  O467    1.938   1_455 S
Zn248  O735    1.938   1_545 S
Zn249  O721    1.938   1_545 S
Zn250  O473    1.938   1_455 S
Zn251  O482    1.938   1_455 S
Zn252  O470    1.944   .     S
C253   C804    1.400   .     A
C253   H373    1.083   .     S
C253   C282    1.393   .     A
C254   H374    1.083   .     S
C254   C292    1.393   .     A
C254   C305    1.400   .     S
C255   C348    1.402   .     A
C255   C319    1.457   .     S
C255   C355    1.402   .     A
C256   C320    1.457   .     S
C256   C358    1.402   .     A
C256   C347    1.402   .     A
C257   C346    1.402   .     A
C257   C321    1.457   .     S
C257   C357    1.402   .     A
C258   C345    1.402   .     A
C258   C322    1.457   .     S
C258   C360    1.402   .     A
C259   C323    1.457   .     S
C259   C344    1.402   .     A
C259   C359    1.402   .     A
C260   C333    1.457   .     S
C260   C363    1.402   .     A
C260   C343    1.402   .     A
C261   C361    1.402   .     A
C261   C342    1.402   .     A
C261   C334    1.457   .     S
C262   C341    1.402   .     A
C262   C365    1.402   .     A
C262   C326    1.457   .     S
C263   C339    1.402   .     A
C263   C364    1.402   .     A
C263   C327    1.457   .     S
C264   C367    1.402   .     A
C264   C328    1.457   .     S
C264   C338    1.402   .     A
C265   H375    1.083   .     S
C265   C293    1.393   .     A
C265   C810    1.400   .     S
C266   C366    1.402   .     A
C266   C337    1.402   .     A
C266   C330    1.457   .     S
C267   C331    1.457   .     S
C267   C369    1.402   .     A
C267   C336    1.402   .     A
C268   C368    1.402   .     A
C268   C335    1.402   .     A
C268   C332    1.457   .     S
C269   C316    1.455   .     S
C269   C786    1.408   1_545 A
C269   C287    1.408   .     S
C270   C787    1.408   1_545 A
C270   C288    1.408   .     S
C270   C315    1.455   .     S
C271   C314    1.455   .     S
C271   C289    1.408   .     S
C272   C290    1.408   .     S
C272   C313    1.455   .     S
C273   C312    1.455   .     S
C273   C295    1.408   .     A
C274   C311    1.455   .     S
C274   C292    1.408   .     S
C275   C310    1.455   .     S
C275   C298    1.408   .     A
C275   C797    1.408   1_545 S
C276   C294    1.393   .     A
C276   H376    1.083   .     S
C276   C308    1.400   .     S
C277   C309    1.455   .     S
C277   C803    1.408   1_545 A
C277   C294    1.408   .     S
C278   C295    1.393   .     A
C278   C304    1.400   .     A
C278   H377    1.083   .     S
C279   H378    1.083   .     S
C279   C297    1.393   .     A
C279   C53     1.400   1_655 A
C280   C298    1.393   .     A
C280   H379    1.083   .     S
C280   C306    1.400   .     A
C281   C299    1.393   .     A
C281   H380    1.083   .     S
C281   C812    1.400   .     A
C282   C773    1.408   .     A
C282   I421    2.125   .     S
C283   C285    1.393   .     A
C283   I429    2.125   .     S
C283   C774    1.408   .     A
C284   I430    2.125   .     S
C284   C19     1.408   1_655 A
C284   C296    1.393   .     A
C285   C805    1.400   .     A
C285   H384    1.083   .     S
C286   C20     1.408   1_655 A
C286   C307    1.393   .     A
C286   I431    2.125   .     S
C287   C318    1.393   .     A
C287   I432    2.125   .     S
C288   C329    1.393   .     A
C288   I433    2.125   .     S
C289   C340    1.393   .     A
C289   I434    2.125   .     S
C290   I435    2.125   .     S
C290   C351    1.393   .     A
C291   C362    1.393   .     A
C291   I436    2.125   .     S
C291   C21     1.408   1_655 S
C292   I422    2.125   .     S
C293   I423    2.125   .     S
C293   C779    1.408   .     S
C294   I424    2.125   .     S
C295   I425    2.125   .     S
C296   H395    1.083   .     S
C296   C50     1.400   1_655 A
C297   I426    2.125   .     S
C297   C22     1.408   1_655 A
C298   I427    2.125   .     S
C299   I428    2.125   .     S
C299   C781    1.408   .     A
C300   C757    1.400   1_545 A
C300   C301    1.465   1_554 S
C300   C318    1.400   .     S
C301   C789    1.400   1_545 A
C301   C300    1.465   1_556 S
C301   C329    1.400   .     S
C302   C303    1.465   1_554 S
C302   C340    1.400   .     S
C303   C302    1.465   1_556 S
C303   C351    1.400   .     S
C304   C305    1.465   .     S
C306   C769    1.400   1_545 S
C306   C308    1.465   .     S
C307   H406    1.083   .     S
C307   C51     1.400   1_655 A
C308   C785    1.400   1_545 A
C309   O985    1.280   1_545 A
C309   O488    1.280   .     S
C310   O485    1.280   .     A
C310   O942    1.280   1_545 S
C311   O486    1.280   .     S
C312   O440    1.280   .     A
C313   O441    1.280   .     A
C313   O445    1.280   .     A
C314   O446    1.280   .     A
C314   O442    1.280   .     S
C315   O447    1.280   .     A
C315   O443    1.280   .     A
C316   O444    1.280   .     S
C316   O449    1.280   .     S
C317   O450    1.279   .     A
C317   O478    1.279   .     A
C317   C372    1.457   .     S
C318   H416    1.083   .     S
C319   O451    1.279   .     A
C319   O479    1.279   .     A
C320   O452    1.279   .     A
C320   O476    1.279   .     A
C321   O453    1.279   .     A
C321   O477    1.279   .     A
C322   O483    1.279   .     A
C322   O454    1.279   .     A
C323   O455    1.279   .     A
C323   O484    1.279   .     A
C324   O480    1.279   .     A
C324   C370    1.457   .     S
C324   O456    1.279   .     A
C325   C371    1.457   .     S
C325   O482    1.279   .     A
C325   O457    1.279   .     A
C326   O458    1.279   .     A
C326   O469    1.279   .     A
C327   O471    1.279   .     A
C327   O460    1.279   .     A
C328   O461    1.279   .     A
C328   O467    1.279   .     A
C329   H417    1.083   .     S
C330   O462    1.279   .     A
C330   O468    1.279   .     A
C331   O474    1.279   .     A
C331   O463    1.279   .     A
C332   O464    1.279   .     A
C332   O475    1.279   .     A
C333   O465    1.279   .     A
C333   O472    1.279   .     A
C334   O473    1.279   .     A
C334   O466    1.279   .     A
C335   C352    1.387   .     A
C335   H381    1.083   .     S
C336   C350    1.387   .     A
C336   H382    1.083   .     S
C337   H383    1.083   .     S
C337   C349    1.387   .     A
C338   H385    1.083   .     S
C338   C348    1.387   .     A
C339   C347    1.387   .     A
C339   H386    1.083   .     S
C340   H418    1.083   .     S
C341   H387    1.083   .     S
C341   C346    1.387   .     A
C342   H388    1.083   .     S
C342   C345    1.387   .     A
C343   H389    1.083   .     S
C343   C344    1.387   .     A
C344   H390    1.083   .     S
C345   H391    1.083   .     S
C346   H392    1.083   .     S
C347   H393    1.083   .     S
C348   H394    1.083   .     S
C349   H396    1.083   .     S
C349   C372    1.402   .     A
C350   C371    1.402   .     A
C350   H397    1.083   .     S
C351   H419    1.083   .     S
C352   C370    1.402   .     A
C352   H398    1.083   .     S
C353   C371    1.402   .     A
C353   H399    1.083   .     S
C353   C369    1.387   .     A
C354   H400    1.083   .     S
C354   C370    1.402   .     A
C354   C368    1.387   .     A
C355   C367    1.387   .     A
C355   H401    1.083   .     S
C356   H402    1.083   .     S
C356   C366    1.387   .     A
C356   C372    1.402   .     A
C357   C365    1.387   .     A
C357   H403    1.083   .     S
C358   C364    1.387   .     A
C358   H404    1.083   .     S
C359   H405    1.083   .     S
C359   C363    1.387   .     A
C360   C361    1.387   .     A
C360   H407    1.083   .     S
C361   H408    1.083   .     S
C362   H420    1.083   .     S
C362   C52     1.400   1_655 S
C363   H409    1.083   .     S
C364   H410    1.083   .     S
C365   H411    1.083   .     S
C366   H412    1.083   .     S
C367   H413    1.083   .     S
C368   H414    1.083   .     S
C369   H415    1.083   .     S
O437   Zn492   1.944   .     S
O437   Zn500   1.944   .     S
O437   Zn489   1.944   .     S
O437   Zn1000  1.944   1_545 S
O438   Zn491   1.932   .     S
O438   C814    1.280   .     S
O439   C59     1.280   1_655 A
O439   Zn494   1.932   .     S
O440   Zn493   1.932   .     S
O441   Zn503   1.932   .     S
O442   Zn502   1.932   .     S
O443   Zn497   1.932   .     S
O444   Zn489   1.932   .     S
O445   Zn499   1.932   .     S
O446   Zn498   1.932   .     S
O447   Zn501   1.932   .     S
O448   Zn497   1.944   .     S
O448   Zn501   1.944   .     S
O448   Zn495   1.944   .     S
O448   Zn995   1.944   1_545 S
O449   Zn500   1.932   .     S
O450   Zn492   1.938   .     S
O451   Zn491   1.938   .     S
O452   Zn494   1.938   .     S
O453   Zn493   1.938   .     S
O454   Zn496   1.938   .     S
O455   Zn495   1.938   .     S
O456   Zn490   1.938   .     S
O457   Zn504   1.938   .     S
O458   Zn491   1.938   .     S
O459   Zn490   1.944   .     S
O459   Zn502   1.944   .     S
O459   Zn498   1.944   .     S
O460   Zn492   1.938   .     S
O461   Zn504   1.938   .     S
O462   Zn490   1.938   .     S
O463   Zn495   1.938   .     S
O464   Zn496   1.938   .     S
O465   Zn493   1.938   .     S
O466   Zn494   1.938   .     S
O467   Zn247   1.938   1_655 S
O468   Zn498   1.938   .     S
O469   Zn1005  1.938   .     S
O470   Zn503   1.944   .     S
O470   Zn493   1.944   .     S
O470   Zn499   1.944   .     S
O471   Zn500   1.938   .     S
O472   Zn503   1.938   .     S
O473   Zn250   1.938   1_655 S
O474   Zn497   1.938   .     S
O475   Zn993   1.938   .     S
O476   Zn246   1.938   1_655 S
O477   Zn499   1.938   .     S
O478   Zn489   1.938   .     S
O479   Zn1001  1.938   .     S
O480   Zn502   1.938   .     S
O481   Zn496   1.932   .     S
O481   C813    1.280   .     A
O482   Zn251   1.938   1_655 S
O483   Zn1004  1.938   .     S
O484   Zn501   1.938   .     S
O485   Zn495   1.932   .     S
O486   Zn490   1.932   .     S
O487   Zn504   1.932   .     S
O487   C60     1.280   1_655 S
O488   Zn492   1.932   .     S
Zn489  O979    1.938   1_545 S
Zn491  O952    1.944   .     S
Zn494  O207    1.944   1_655 S
Zn496  O941    1.944   .     S
Zn497  O983    1.938   1_545 S
Zn500  O987    1.938   1_545 S
Zn501  O973    1.938   1_545 S
Zn504  O218    1.944   1_655 S
C505   C48     1.400   1_565 A
C505   H625    1.083   .     S
C505   C534    1.393   .     A
C506   H626    1.083   .     S
C506   C544    1.393   .     A
C506   C557    1.400   .     S
C507   C600    1.402   .     A
C507   C571    1.457   .     S
C507   C607    1.402   .     A
C508   C572    1.457   .     S
C508   C610    1.402   .     A
C508   C599    1.402   .     A
C509   C598    1.402   .     A
C509   C573    1.457   .     S
C509   C609    1.402   .     A
C510   C597    1.402   .     A
C510   C574    1.457   .     S
C510   C612    1.402   .     A
C511   C575    1.457   .     S
C511   C596    1.402   .     A
C511   C611    1.402   .     A
C512   C585    1.457   .     S
C512   C615    1.402   .     A
C512   C595    1.402   .     A
C513   C613    1.402   .     A
C513   C594    1.402   .     A
C513   C586    1.457   .     S
C514   C593    1.402   .     A
C514   C617    1.402   .     A
C514   C578    1.457   .     S
C515   C591    1.402   .     A
C515   C616    1.402   .     A
C515   C579    1.457   .     S
C516   C619    1.402   .     A
C516   C580    1.457   .     S
C516   C590    1.402   .     A
C517   H627    1.083   .     S
C517   C545    1.393   .     A
C517   C54     1.400   1_565 S
C518   C618    1.402   .     A
C518   C589    1.402   .     A
C518   C582    1.457   .     S
C519   C583    1.457   .     S
C519   C621    1.402   .     A
C519   C588    1.402   .     A
C520   C620    1.402   .     A
C520   C587    1.402   .     A
C520   C584    1.457   .     S
C521   C568    1.455   .     S
C521   C539    1.408   .     S
C522   C540    1.408   .     S
C522   C567    1.455   .     S
C523   C566    1.455   .     S
C523   C788    1.408   1_455 A
C523   C541    1.408   .     S
C524   C790    1.408   1_455 A
C524   C542    1.408   .     S
C524   C565    1.455   .     S
C525   C564    1.455   .     S
C525   C547    1.408   .     A
C525   C795    1.408   1_455 S
C526   C563    1.455   .     S
C526   C801    1.408   1_455 A
C526   C544    1.408   .     S
C527   C562    1.455   .     S
C527   C550    1.408   .     A
C528   C546    1.393   .     A
C528   H628    1.083   .     S
C528   C560    1.400   .     S
C529   C561    1.455   .     S
C529   C546    1.408   .     S
C530   C547    1.393   .     A
C530   C556    1.400   .     A
C530   H629    1.083   .     S
C531   H630    1.083   .     S
C531   C549    1.393   .     A
C531   C809    1.400   .     A
C532   C550    1.393   .     A
C532   H631    1.083   .     S
C532   C558    1.400   .     A
C533   C551    1.393   .     A
C533   H632    1.083   .     S
C533   C56     1.400   1_565 A
C534   C17     1.408   1_565 A
C534   I673    2.125   .     S
C535   C537    1.393   .     A
C535   I681    2.125   .     S
C535   C18     1.408   1_565 A
C536   I682    2.125   .     S
C536   C775    1.408   .     A
C536   C548    1.393   .     A
C537   C49     1.400   1_565 A
C537   H636    1.083   .     S
C538   C776    1.408   .     A
C538   C559    1.393   .     A
C538   I683    2.125   .     S
C539   C570    1.393   .     A
C539   I684    2.125   .     S
C540   C581    1.393   .     A
C540   I685    2.125   .     S
C541   C592    1.393   .     A
C541   I686    2.125   .     S
C542   I687    2.125   .     S
C542   C603    1.393   .     A
C543   C614    1.393   .     A
C543   I688    2.125   .     S
C543   C777    1.408   .     S
C544   I674    2.125   .     S
C545   I675    2.125   .     S
C545   C23     1.408   1_565 S
C546   I676    2.125   .     S
C547   I677    2.125   .     S
C548   H647    1.083   .     S
C548   C806    1.400   .     A
C549   I678    2.125   .     S
C549   C778    1.408   .     A
C550   I679    2.125   .     S
C551   I680    2.125   .     S
C551   C25     1.408   1_565 A
C552   C553    1.465   1_554 S
C552   C570    1.400   .     S
C553   C552    1.465   1_556 S
C553   C581    1.400   .     S
C554   C800    1.400   1_455 A
C554   C555    1.465   1_554 S
C554   C592    1.400   .     S
C555   C811    1.400   1_455 A
C555   C554    1.465   1_556 S
C555   C603    1.400   .     S
C556   C557    1.465   .     S
C556   C866    1.400   1_455 S
C557   C783    1.400   1_455 A
C558   C560    1.465   .     S
C559   H658    1.083   .     S
C559   C807    1.400   .     A
C561   O740    1.280   .     S
C562   O737    1.280   .     A
C563   O943    1.280   1_455 A
C563   O738    1.280   .     S
C564   O692    1.280   .     A
C564   O991    1.280   1_455 S
C565   O693    1.280   .     A
C565   O697    1.280   .     A
C566   O698    1.280   .     A
C566   O694    1.280   .     S
C567   O699    1.280   .     A
C567   O695    1.280   .     A
C568   O696    1.280   .     S
C568   O701    1.280   .     S
C569   O702    1.279   .     A
C569   O730    1.279   .     A
C569   C624    1.457   .     S
C570   H668    1.083   .     S
C571   O703    1.279   .     A
C571   O731    1.279   .     A
C572   O704    1.279   .     A
C572   O728    1.279   .     A
C573   O705    1.279   .     A
C573   O729    1.279   .     A
C574   O735    1.279   .     A
C574   O706    1.279   .     A
C575   O707    1.279   .     A
C575   O736    1.279   .     A
C576   O732    1.279   .     A
C576   C622    1.457   .     S
C576   O708    1.279   .     A
C577   C623    1.457   .     S
C577   O734    1.279   .     A
C577   O709    1.279   .     A
C578   O710    1.279   .     A
C578   O721    1.279   .     A
C579   O723    1.279   .     A
C579   O712    1.279   .     A
C580   O713    1.279   .     A
C580   O719    1.279   .     A
C581   H669    1.083   .     S
C582   O714    1.279   .     A
C582   O720    1.279   .     A
C583   O726    1.279   .     A
C583   O715    1.279   .     A
C584   O716    1.279   .     A
C584   O727    1.279   .     A
C585   O717    1.279   .     A
C585   O724    1.279   .     A
C586   O725    1.279   .     A
C586   O718    1.279   .     A
C587   C604    1.387   .     A
C587   H633    1.083   .     S
C588   C602    1.387   .     A
C588   H634    1.083   .     S
C589   H635    1.083   .     S
C589   C601    1.387   .     A
C590   H637    1.083   .     S
C590   C600    1.387   .     A
C591   C599    1.387   .     A
C591   H638    1.083   .     S
C592   H670    1.083   .     S
C593   H639    1.083   .     S
C593   C598    1.387   .     A
C594   H640    1.083   .     S
C594   C597    1.387   .     A
C595   H641    1.083   .     S
C595   C596    1.387   .     A
C596   H642    1.083   .     S
C597   H643    1.083   .     S
C598   H644    1.083   .     S
C599   H645    1.083   .     S
C600   H646    1.083   .     S
C601   H648    1.083   .     S
C601   C624    1.402   .     A
C602   C623    1.402   .     A
C602   H649    1.083   .     S
C603   H671    1.083   .     S
C604   C622    1.402   .     A
C604   H650    1.083   .     S
C605   C623    1.402   .     A
C605   H651    1.083   .     S
C605   C621    1.387   .     A
C606   H652    1.083   .     S
C606   C622    1.402   .     A
C606   C620    1.387   .     A
C607   C619    1.387   .     A
C607   H653    1.083   .     S
C608   H654    1.083   .     S
C608   C618    1.387   .     A
C608   C624    1.402   .     A
C609   C617    1.387   .     A
C609   H655    1.083   .     S
C610   C616    1.387   .     A
C610   H656    1.083   .     S
C611   H657    1.083   .     S
C611   C615    1.387   .     A
C612   C613    1.387   .     A
C612   H659    1.083   .     S
C613   H660    1.083   .     S
C614   H672    1.083   .     S
C614   C808    1.400   .     S
C615   H661    1.083   .     S
C616   H662    1.083   .     S
C617   H663    1.083   .     S
C618   H664    1.083   .     S
C619   H665    1.083   .     S
C620   H666    1.083   .     S
C621   H667    1.083   .     S
O689   Zn744   1.944   .     S
O689   Zn752   1.944   .     S
O689   Zn741   1.944   .     S
O690   Zn743   1.932   .     S
O690   C58     1.280   1_565 S
O691   C815    1.280   .     A
O691   Zn746   1.932   .     S
O692   Zn745   1.932   .     S
O693   Zn755   1.932   .     S
O694   Zn754   1.932   .     S
O695   Zn749   1.932   .     S
O696   Zn741   1.932   .     S
O697   Zn751   1.932   .     S
O698   Zn750   1.932   .     S
O699   Zn753   1.932   .     S
O700   Zn749   1.944   .     S
O700   Zn753   1.944   .     S
O700   Zn747   1.944   .     S
O701   Zn752   1.932   .     S
O702   Zn744   1.938   .     S
O703   Zn743   1.938   .     S
O704   Zn746   1.938   .     S
O705   Zn745   1.938   .     S
O706   Zn748   1.938   .     S
O707   Zn747   1.938   .     S
O708   Zn742   1.938   .     S
O709   Zn756   1.938   .     S
O710   Zn743   1.938   .     S
O711   Zn742   1.944   .     S
O711   Zn754   1.944   .     S
O711   Zn998   1.944   1_455 S
O711   Zn750   1.944   .     S
O712   Zn744   1.938   .     S
O713   Zn756   1.938   .     S
O714   Zn742   1.938   .     S
O715   Zn747   1.938   .     S
O716   Zn748   1.938   .     S
O717   Zn745   1.938   .     S
O718   Zn746   1.938   .     S
O719   Zn1003  1.938   .     S
O720   Zn750   1.938   .     S
O721   Zn249   1.938   1_565 S
O722   Zn755   1.944   .     S
O722   Zn745   1.944   .     S
O722   Zn751   1.944   .     S
O722   Zn1008  1.944   1_455 S
O723   Zn752   1.938   .     S
O724   Zn755   1.938   .     S
O725   Zn1006  1.938   .     S
O726   Zn749   1.938   .     S
O727   Zn237   1.938   1_565 S
O728   Zn1002  1.938   .     S
O729   Zn751   1.938   .     S
O730   Zn741   1.938   .     S
O731   Zn245   1.938   1_565 S
O732   Zn754   1.938   .     S
O733   Zn748   1.932   .     S
O733   C57     1.280   1_565 A
O734   Zn1007  1.938   .     S
O735   Zn248   1.938   1_565 S
O736   Zn753   1.938   .     S
O737   Zn747   1.932   .     S
O738   Zn742   1.932   .     S
O739   Zn756   1.932   .     S
O739   C816    1.280   .     S
O740   Zn744   1.932   .     S
Zn743  O196    1.944   1_565 S
Zn746  O963    1.944   .     S
Zn748  O185    1.944   1_565 S
Zn750  O980    1.938   1_455 S
Zn751  O971    1.938   1_455 S
Zn754  O977    1.938   1_455 S
Zn755  O986    1.938   1_455 S
Zn756  O974    1.944   .     S
C757   C300    1.400   1_565 A
C757   H877    1.083   .     S
C757   C786    1.393   .     A
C758   H878    1.083   .     S
C758   C796    1.393   .     A
C758   C809    1.400   .     S
C759   C852    1.402   .     A
C759   C823    1.457   .     S
C759   C859    1.402   .     A
C760   C824    1.457   .     S
C760   C862    1.402   .     A
C760   C851    1.402   .     A
C761   C850    1.402   .     A
C761   C825    1.457   .     S
C761   C861    1.402   .     A
C762   C849    1.402   .     A
C762   C826    1.457   .     S
C762   C864    1.402   .     A
C763   C827    1.457   .     S
C763   C848    1.402   .     A
C763   C863    1.402   .     A
C764   C837    1.457   .     S
C764   C867    1.402   .     A
C764   C847    1.402   .     A
C765   C865    1.402   .     A
C765   C846    1.402   .     A
C765   C838    1.457   .     S
C766   C845    1.402   .     A
C766   C869    1.402   .     A
C766   C830    1.457   .     S
C767   C843    1.402   .     A
C767   C868    1.402   .     A
C767   C831    1.457   .     S
C768   C871    1.402   .     A
C768   C832    1.457   .     S
C768   C842    1.402   .     A
C769   H879    1.083   .     S
C769   C797    1.393   .     A
C769   C306    1.400   1_565 S
C770   C870    1.402   .     A
C770   C841    1.402   .     A
C770   C834    1.457   .     S
C771   C835    1.457   .     S
C771   C873    1.402   .     A
C771   C840    1.402   .     A
C772   C872    1.402   .     A
C772   C839    1.402   .     A
C772   C836    1.457   .     S
C773   C820    1.455   .     S
C773   C791    1.408   .     S
C774   C792    1.408   .     S
C774   C819    1.455   .     S
C775   C818    1.455   .     S
C775   C793    1.408   .     S
C776   C794    1.408   .     S
C776   C817    1.455   .     S
C777   C816    1.455   .     S
C777   C799    1.408   .     A
C778   C815    1.455   .     S
C778   C796    1.408   .     S
C779   C814    1.455   .     S
C779   C802    1.408   .     A
C780   C798    1.393   .     A
C780   H880    1.083   .     S
C780   C812    1.400   .     S
C781   C813    1.455   .     S
C781   C798    1.408   .     S
C782   C799    1.393   .     A
C782   C808    1.400   .     A
C782   H881    1.083   .     S
C783   H882    1.083   .     S
C783   C801    1.393   .     A
C783   C557    1.400   1_655 A
C784   C802    1.393   .     A
C784   H883    1.083   .     S
C784   C810    1.400   .     A
C785   C803    1.393   .     A
C785   H884    1.083   .     S
C785   C308    1.400   1_565 A
C786   C269    1.408   1_565 A
C786   I925    2.125   .     S
C787   C789    1.393   .     A
C787   I933    2.125   .     S
C787   C270    1.408   1_565 A
C788   I934    2.125   .     S
C788   C523    1.408   1_655 A
C788   C800    1.393   .     A
C789   C301    1.400   1_565 A
C789   H888    1.083   .     S
C790   C524    1.408   1_655 A
C790   C811    1.393   .     A
C790   I935    2.125   .     S
C791   C822    1.393   .     A
C791   I936    2.125   .     S
C792   C833    1.393   .     A
C792   I937    2.125   .     S
C793   C844    1.393   .     A
C793   I938    2.125   .     S
C794   I939    2.125   .     S
C794   C855    1.393   .     A
C795   C866    1.393   .     A
C795   I940    2.125   .     S
C795   C525    1.408   1_655 S
C796   I926    2.125   .     S
C797   I927    2.125   .     S
C797   C275    1.408   1_565 S
C798   I928    2.125   .     S
C799   I929    2.125   .     S
C800   H899    1.083   .     S
C800   C554    1.400   1_655 A
C801   I930    2.125   .     S
C801   C526    1.408   1_655 A
C802   I931    2.125   .     S
C803   I932    2.125   .     S
C803   C277    1.408   1_565 A
C804   C805    1.465   1_554 S
C804   C822    1.400   .     S
C805   C804    1.465   1_556 S
C805   C833    1.400   .     S
C806   C807    1.465   1_554 S
C806   C844    1.400   .     S
C807   C806    1.465   1_556 S
C807   C855    1.400   .     S
C808   C809    1.465   .     S
C810   C812    1.465   .     S
C811   H910    1.083   .     S
C811   C555    1.400   1_655 A
C813   O992    1.280   .     S
C814   O989    1.280   .     A
C815   O990    1.280   .     S
C816   O944    1.280   .     A
C817   O945    1.280   .     A
C817   O949    1.280   .     A
C818   O950    1.280   .     A
C818   O946    1.280   .     S
C819   O951    1.280   .     A
C819   O947    1.280   .     A
C820   O948    1.280   .     S
C820   O953    1.280   .     S
C821   O954    1.279   .     A
C821   O982    1.279   .     A
C821   C876    1.457   .     S
C822   H920    1.083   .     S
C823   O955    1.279   .     A
C823   O983    1.279   .     A
C824   O956    1.279   .     A
C824   O980    1.279   .     A
C825   O957    1.279   .     A
C825   O981    1.279   .     A
C826   O987    1.279   .     A
C826   O958    1.279   .     A
C827   O959    1.279   .     A
C827   O988    1.279   .     A
C828   O984    1.279   .     A
C828   C874    1.457   .     S
C828   O960    1.279   .     A
C829   C875    1.457   .     S
C829   O986    1.279   .     A
C829   O961    1.279   .     A
C830   O962    1.279   .     A
C830   O973    1.279   .     A
C831   O975    1.279   .     A
C831   O964    1.279   .     A
C832   O965    1.279   .     A
C832   O971    1.279   .     A
C833   H921    1.083   .     S
C834   O966    1.279   .     A
C834   O972    1.279   .     A
C835   O978    1.279   .     A
C835   O967    1.279   .     A
C836   O968    1.279   .     A
C836   O979    1.279   .     A
C837   O969    1.279   .     A
C837   O976    1.279   .     A
C838   O977    1.279   .     A
C838   O970    1.279   .     A
C839   C856    1.387   .     A
C839   H885    1.083   .     S
C840   C854    1.387   .     A
C840   H886    1.083   .     S
C841   H887    1.083   .     S
C841   C853    1.387   .     A
C842   H889    1.083   .     S
C842   C852    1.387   .     A
C843   C851    1.387   .     A
C843   H890    1.083   .     S
C844   H922    1.083   .     S
C845   H891    1.083   .     S
C845   C850    1.387   .     A
C846   H892    1.083   .     S
C846   C849    1.387   .     A
C847   H893    1.083   .     S
C847   C848    1.387   .     A
C848   H894    1.083   .     S
C849   H895    1.083   .     S
C850   H896    1.083   .     S
C851   H897    1.083   .     S
C852   H898    1.083   .     S
C853   H900    1.083   .     S
C853   C876    1.402   .     A
C854   C875    1.402   .     A
C854   H901    1.083   .     S
C855   H923    1.083   .     S
C856   C874    1.402   .     A
C856   H902    1.083   .     S
C857   C875    1.402   .     A
C857   H903    1.083   .     S
C857   C873    1.387   .     A
C858   H904    1.083   .     S
C858   C874    1.402   .     A
C858   C872    1.387   .     A
C859   C871    1.387   .     A
C859   H905    1.083   .     S
C860   H906    1.083   .     S
C860   C870    1.387   .     A
C860   C876    1.402   .     A
C861   C869    1.387   .     A
C861   H907    1.083   .     S
C862   C868    1.387   .     A
C862   H908    1.083   .     S
C863   H909    1.083   .     S
C863   C867    1.387   .     A
C864   C865    1.387   .     A
C864   H911    1.083   .     S
C865   H912    1.083   .     S
C866   H924    1.083   .     S
C866   C556    1.400   1_655 S
C867   H913    1.083   .     S
C868   H914    1.083   .     S
C869   H915    1.083   .     S
C870   H916    1.083   .     S
C871   H917    1.083   .     S
C872   H918    1.083   .     S
C873   H919    1.083   .     S
O941   Zn996   1.944   .     S
O941   Zn1004  1.944   .     S
O941   Zn993   1.944   .     S
O942   Zn995   1.932   .     S
O942   C310    1.280   1_565 S
O943   C563    1.280   1_655 A
O943   Zn998   1.932   .     S
O944   Zn997   1.932   .     S
O945   Zn1007  1.932   .     S
O946   Zn1006  1.932   .     S
O947   Zn1001  1.932   .     S
O948   Zn993   1.932   .     S
O949   Zn1003  1.932   .     S
O950   Zn1002  1.932   .     S
O951   Zn1005  1.932   .     S
O952   Zn1001  1.944   .     S
O952   Zn1005  1.944   .     S
O952   Zn999   1.944   .     S
O953   Zn1004  1.932   .     S
O954   Zn996   1.938   .     S
O955   Zn995   1.938   .     S
O956   Zn998   1.938   .     S
O957   Zn997   1.938   .     S
O958   Zn1000  1.938   .     S
O959   Zn999   1.938   .     S
O960   Zn994   1.938   .     S
O961   Zn1008  1.938   .     S
O962   Zn995   1.938   .     S
O963   Zn994   1.944   .     S
O963   Zn1006  1.944   .     S
O963   Zn1002  1.944   .     S
O964   Zn996   1.938   .     S
O965   Zn1008  1.938   .     S
O966   Zn994   1.938   .     S
O967   Zn999   1.938   .     S
O968   Zn1000  1.938   .     S
O969   Zn997   1.938   .     S
O970   Zn998   1.938   .     S
O971   Zn751   1.938   1_655 S
O972   Zn1002  1.938   .     S
O973   Zn501   1.938   1_565 S
O974   Zn1007  1.944   .     S
O974   Zn997   1.944   .     S
O974   Zn1003  1.944   .     S
O975   Zn1004  1.938   .     S
O976   Zn1007  1.938   .     S
O977   Zn754   1.938   1_655 S
O978   Zn1001  1.938   .     S
O979   Zn489   1.938   1_565 S
O980   Zn750   1.938   1_655 S
O981   Zn1003  1.938   .     S
O982   Zn993   1.938   .     S
O983   Zn497   1.938   1_565 S
O984   Zn1006  1.938   .     S
O985   Zn1000  1.932   .     S
O985   C309    1.280   1_565 A
O986   Zn755   1.938   1_655 S
O987   Zn500   1.938   1_565 S
O988   Zn1005  1.938   .     S
O989   Zn999   1.932   .     S
O990   Zn994   1.932   .     S
O991   Zn1008  1.932   .     S
O991   C564    1.280   1_655 S
O992   Zn996   1.932   .     S
Zn995  O448    1.944   1_565 S
Zn998  O711    1.944   1_655 S
Zn1000 O437    1.944   1_565 S
Zn1008 O722    1.944   1_655 S
