data_str_m1_o1_o17_pcu_sym.68
_audit_creation_date              2020-01-03
_audit_creation_method            'Materials Studio'
_symmetry_space_group_name_H-M    'P1'
_symmetry_Int_Tables_number       1
_symmetry_cell_setting            triclinic
loop_
_symmetry_equiv_pos_as_xyz
  x,y,z
_cell_length_a                    36.6043
_cell_length_b                    36.6013
_cell_length_c                    34.4924
_cell_angle_alpha                 89.9857
_cell_angle_beta                  89.9783
_cell_angle_gamma                 89.9987
loop_
_atom_site_label
_atom_site_type_symbol
_atom_site_fract_x
_atom_site_fract_y
_atom_site_fract_z
_atom_site_U_iso_or_equiv
_atom_site_adp_type
_atom_site_occupancy
C1     C     0.01964   0.27643   0.41823   0.00000  Uiso   1.00
C2     C     0.22945   0.47315   0.08183   0.00000  Uiso   1.00
C3     C     0.22857   0.02593   0.54095   0.00000  Uiso   1.00
C4     C     0.02328   0.27373   0.45875   0.00000  Uiso   1.00
C5     C     0.48193   0.22098   0.54099   0.00000  Uiso   1.00
C6     C     0.22856   0.02592   0.45903   0.00000  Uiso   1.00
C7     C     0.27128   0.47405   0.54095   0.00000  Uiso   1.00
C8     C     0.22594   0.47669   0.95894   0.00000  Uiso   1.00
C9     C     0.27400   0.02341   0.04109   0.00000  Uiso   1.00
C10    C     0.02338   0.22595   0.95892   0.00000  Uiso   1.00
C11    C     0.47672   0.27407   0.04110   0.00000  Uiso   1.00
C12    C     0.27155   0.02621   0.95909   0.00000  Uiso   1.00
C13    C     0.47321   0.27059   0.91821   0.00000  Uiso   1.00
C14    C     0.22838   0.47389   0.04094   0.00000  Uiso   1.00
C15    C     0.47394   0.27165   0.95911   0.00000  Uiso   1.00
C16    C     0.02616   0.22838   0.04092   0.00000  Uiso   1.00
C17    C     0.09801   0.34802   0.25000   0.00000  Uiso   1.00
C18    C     0.40199   0.15199   0.75001   0.00000  Uiso   1.00
C19    C     0.15199   0.09802   0.25001   0.00000  Uiso   1.00
C20    C     0.34801   0.40198   0.74999   0.00000  Uiso   1.00
C21    C     0.40198   0.15200   0.25001   0.00000  Uiso   1.00
C22    C     0.09802   0.34801   0.74999   0.00000  Uiso   1.00
C23    C     0.34801   0.40198   0.25001   0.00000  Uiso   1.00
C24    C     0.02687   0.22942   0.08182   0.00000  Uiso   1.00
C25    C     0.15199   0.09802   0.74999   0.00000  Uiso   1.00
C26    C     0.09801   0.15198   0.75001   0.00000  Uiso   1.00
C27    C     0.40199   0.34802   0.24999   0.00000  Uiso   1.00
C28    C     0.15198   0.40199   0.75001   0.00000  Uiso   1.00
C29    C     0.34802   0.09800   0.24999   0.00000  Uiso   1.00
C30    C     0.40199   0.34802   0.75001   0.00000  Uiso   1.00
C31    C     0.09801   0.15198   0.24999   0.00000  Uiso   1.00
C32    C     0.34801   0.09801   0.74999   0.00000  Uiso   1.00
C33    C     0.15199   0.40198   0.25000   0.00000  Uiso   1.00
C34    C     0.00237   0.24739   0.47931   0.00000  Uiso   1.00
C35    C     0.22852   0.47465   0.91828   0.00000  Uiso   1.00
C36    C     0.00214   0.24779   0.52039   0.00000  Uiso   1.00
C37    C     0.24992   0.49998   0.47951   0.00000  Uiso   1.00
C38    C     0.24992   0.49999   0.52047   0.00000  Uiso   1.00
C39    C     0.24941   0.00071   0.97949   0.00000  Uiso   1.00
C40    C     0.25053   0.49938   0.02054   0.00000  Uiso   1.00
C41    C     0.49939   0.24946   0.97948   0.00000  Uiso   1.00
C42    C     0.00071   0.25057   0.02054   0.00000  Uiso   1.00
C43    C     0.27145   0.02542   0.08175   0.00000  Uiso   1.00
C44    C     0.02539   0.22849   0.91825   0.00000  Uiso   1.00
C45    C     0.47467   0.27150   0.08176   0.00000  Uiso   1.00
C46    C     0.00027   0.24923   0.39796   0.00000  Uiso   1.00
C47    C     0.00024   0.24958   0.60184   0.00000  Uiso   1.00
C48    C     0.24997   0.49999   0.39818   0.00000  Uiso   1.00
C49    C     0.48024   0.22263   0.58183   0.00000  Uiso   1.00
C50    C     0.24996   0.00001   0.60180   0.00000  Uiso   1.00
C51    C     0.24973   0.00056   0.89810   0.00000  Uiso   1.00
C52    C     0.25025   0.49948   0.10192   0.00000  Uiso   1.00
C53    C     0.49950   0.24975   0.89809   0.00000  Uiso   1.00
C54    C     0.00056   0.25025   0.10192   0.00000  Uiso   1.00
C55    C     0.46152   0.19421   0.47960   0.00000  Uiso   1.00
C56    C     0.04277   0.30103   0.51955   0.00000  Uiso   1.00
C57    C     0.28989   0.44628   0.47980   0.00000  Uiso   1.00
C58    C     0.20994   0.05367   0.52018   0.00000  Uiso   1.00
C59    C     0.04568   0.29842   0.47951   0.00000  Uiso   1.00
C60    C     0.22544   0.02280   0.41848   0.00000  Uiso   1.00
C61    C     0.46374   0.19293   0.52023   0.00000  Uiso   1.00
C62    C     0.20993   0.05366   0.47979   0.00000  Uiso   1.00
C63    C     0.28988   0.44628   0.52019   0.00000  Uiso   1.00
C64    C     0.20205   0.45345   0.97979   0.00000  Uiso   1.00
C65    C     0.29787   0.04668   0.02023   0.00000  Uiso   1.00
C66    C     0.04660   0.20203   0.97975   0.00000  Uiso   1.00
C67    C     0.45352   0.29801   0.02027   0.00000  Uiso   1.00
C68    C     0.29472   0.04996   0.98023   0.00000  Uiso   1.00
C69    C     0.20519   0.45016   0.01979   0.00000  Uiso   1.00
C70    C     0.45024   0.29488   0.98027   0.00000  Uiso   1.00
C71    C     0.27445   0.47718   0.58148   0.00000  Uiso   1.00
C72    C     0.04988   0.20517   0.01975   0.00000  Uiso   1.00
C73    C     0.24999  -0.00000   0.35582   0.00000  Uiso   1.00
C74    C     0.24998   0.00001   0.64417   0.00000  Uiso   1.00
C75    C     0.00001   0.24991   0.35573   0.00000  Uiso   1.00
C76    C     0.00002   0.24996   0.64419   0.00000  Uiso   1.00
C77    C     0.49987   0.24998   0.85578   0.00000  Uiso   1.00
C78    C     0.00015   0.25002   0.14422   0.00000  Uiso   1.00
C79    C     0.24998   0.00015   0.85578   0.00000  Uiso   1.00
C80    C     0.25002   0.49986   0.14423   0.00000  Uiso   1.00
C81    C     0.18003   0.06996   0.25001   0.00000  Uiso   1.00
C82    C     0.48207   0.22092   0.41786   0.00000  Uiso   1.00
C83    C     0.31996   0.43004   0.75000   0.00000  Uiso   1.00
C84    C     0.43003   0.18003   0.25001   0.00000  Uiso   1.00
C85    C     0.06997   0.31997   0.74999   0.00000  Uiso   1.00
C86    C     0.31997   0.43003   0.25001   0.00000  Uiso   1.00
C87    C     0.18003   0.06997   0.74999   0.00000  Uiso   1.00
C88    C     0.06996   0.31997   0.25000   0.00000  Uiso   1.00
C89    C     0.43004   0.18003   0.75000   0.00000  Uiso   1.00
C90    C     0.18003   0.43004   0.75001   0.00000  Uiso   1.00
C91    C     0.31997   0.06997   0.24999   0.00000  Uiso   1.00
C92    C     0.43004   0.31996   0.75000   0.00000  Uiso   1.00
C93    C     0.02125   0.27564   0.58163   0.00000  Uiso   1.00
C94    C     0.06996   0.18004   0.24999   0.00000  Uiso   1.00
C95    C     0.31996   0.06997   0.75000   0.00000  Uiso   1.00
C96    C     0.18004   0.43003   0.25000   0.00000  Uiso   1.00
C97    C     0.06997   0.18004   0.75001   0.00000  Uiso   1.00
C98    C     0.43003   0.31996   0.24999   0.00000  Uiso   1.00
C99    C     0.14389   0.38302   0.21528   0.00000  Uiso   1.00
C100   C     0.38471   0.08841   0.74193   0.00000  Uiso   1.00
C101   C     0.11699   0.14387   0.21527   0.00000  Uiso   1.00
C102   C     0.41162   0.38474   0.74212   0.00000  Uiso   1.00
C103   C     0.35614   0.11700   0.21527   0.00000  Uiso   1.00
C104   C     0.27447   0.47717   0.41849   0.00000  Uiso   1.00
C105   C     0.11529   0.41160   0.74196   0.00000  Uiso   1.00
C106   C     0.38304   0.35615   0.21527   0.00000  Uiso   1.00
C107   C     0.11715   0.14404   0.78467   0.00000  Uiso   1.00
C108   C     0.14404   0.11716   0.78465   0.00000  Uiso   1.00
C109   C     0.35615   0.38303   0.21528   0.00000  Uiso   1.00
C110   C     0.08841   0.38471   0.74194   0.00000  Uiso   1.00
C111   C     0.38301   0.14390   0.21529   0.00000  Uiso   1.00
C112   C     0.38473   0.41162   0.74210   0.00000  Uiso   1.00
C113   C     0.14389   0.11700   0.21529   0.00000  Uiso   1.00
C114   C     0.41159   0.11530   0.74192   0.00000  Uiso   1.00
C115   C     0.22545   0.02284   0.58151   0.00000  Uiso   1.00
C116   C     0.11700   0.35614   0.21528   0.00000  Uiso   1.00
C117   C     0.36529   0.16159   0.75807   0.00000  Uiso   1.00
C118   C     0.10611   0.36698   0.28473   0.00000  Uiso   1.00
C119   C     0.33838   0.36526   0.75789   0.00000  Uiso   1.00
C120   C     0.13301   0.10613   0.28473   0.00000  Uiso   1.00
C121   C     0.13471   0.33840   0.75804   0.00000  Uiso   1.00
C122   C     0.39387   0.13299   0.28472   0.00000  Uiso   1.00
C123   C     0.13286   0.10597   0.71533   0.00000  Uiso   1.00
C124   C     0.36696   0.39384   0.28473   0.00000  Uiso   1.00
C125   C     0.39385   0.36697   0.28472   0.00000  Uiso   1.00
C126   C     0.27052   0.02691   0.91819   0.00000  Uiso   1.00
C127   C     0.10596   0.13284   0.71535   0.00000  Uiso   1.00
C128   C     0.36700   0.10609   0.28471   0.00000  Uiso   1.00
C129   C     0.16159   0.36529   0.75805   0.00000  Uiso   1.00
C130   C     0.10611   0.13301   0.28472   0.00000  Uiso   1.00
C131   C     0.36527   0.33838   0.75790   0.00000  Uiso   1.00
C132   C     0.13300   0.39387   0.28472   0.00000  Uiso   1.00
C133   C     0.33841   0.13470   0.75807   0.00000  Uiso   1.00
C134   C     0.48148   0.22095   0.45883   0.00000  Uiso   1.00
C135   C     0.02197   0.27516   0.54074   0.00000  Uiso   1.00
C136   C     0.27129   0.47404   0.45903   0.00000  Uiso   1.00
H137   H     0.42487   0.15496   0.47757   0.00000  Uiso   1.00
H138   H     0.33730   0.05042   0.05681   0.00000  Uiso   1.00
H139   H     0.05028   0.16259   0.94318   0.00000  Uiso   1.00
H140   H     0.44985   0.33742   0.05689   0.00000  Uiso   1.00
H141   H     0.29888   0.09394   0.95116   0.00000  Uiso   1.00
H142   H     0.20095   0.40616   0.04882   0.00000  Uiso   1.00
H143   H     0.40625   0.29918   0.95129   0.00000  Uiso   1.00
H144   H     0.09384   0.20091   0.04881   0.00000  Uiso   1.00
H145   H     0.18576   0.40147   0.18569   0.00000  Uiso   1.00
H146   H     0.37429   0.03844   0.72463   0.00000  Uiso   1.00
H147   H     0.09853   0.18572   0.18566   0.00000  Uiso   1.00
H148   H     0.04285   0.34451   0.54988   0.00000  Uiso   1.00
H149   H     0.46162   0.37439   0.72485   0.00000  Uiso   1.00
H150   H     0.31432   0.09850   0.18565   0.00000  Uiso   1.00
H151   H     0.12572   0.46157   0.72465   0.00000  Uiso   1.00
H152   H     0.40154   0.31433   0.18564   0.00000  Uiso   1.00
H153   H     0.09866   0.18595   0.81419   0.00000  Uiso   1.00
H154   H     0.18603   0.09880   0.81410   0.00000  Uiso   1.00
H155   H     0.31425   0.40141   0.18572   0.00000  Uiso   1.00
H156   H     0.03847   0.37429   0.72458   0.00000  Uiso   1.00
H157   H     0.40139   0.18584   0.18575   0.00000  Uiso   1.00
H158   H     0.37436   0.46159   0.72476   0.00000  Uiso   1.00
H159   H     0.28957   0.40854   0.44092   0.00000  Uiso   1.00
H160   H     0.18581   0.09863   0.18573   0.00000  Uiso   1.00
H161   H     0.46154   0.12573   0.72455   0.00000  Uiso   1.00
H162   H     0.09861   0.31424   0.18572   0.00000  Uiso   1.00
H163   H     0.37571   0.21156   0.77538   0.00000  Uiso   1.00
H164   H     0.06426   0.34849   0.31434   0.00000  Uiso   1.00
H165   H     0.28838   0.37561   0.77515   0.00000  Uiso   1.00
H166   H     0.15150   0.06430   0.31436   0.00000  Uiso   1.00
H167   H     0.12428   0.28843   0.77535   0.00000  Uiso   1.00
H168   H     0.43571   0.15146   0.31432   0.00000  Uiso   1.00
H169   H     0.15133   0.06405   0.68582   0.00000  Uiso   1.00
H170   H     0.21027   0.09145   0.55901   0.00000  Uiso   1.00
H171   H     0.34847   0.43568   0.31435   0.00000  Uiso   1.00
H172   H     0.43576   0.34859   0.31427   0.00000  Uiso   1.00
H173   H     0.06397   0.15120   0.68590   0.00000  Uiso   1.00
H174   H     0.34861   0.06416   0.31425   0.00000  Uiso   1.00
H175   H     0.21154   0.37571   0.77541   0.00000  Uiso   1.00
H176   H     0.06419   0.15138   0.31427   0.00000  Uiso   1.00
H177   H     0.37564   0.28841   0.77525   0.00000  Uiso   1.00
H178   H     0.15139   0.43576   0.31428   0.00000  Uiso   1.00
H179   H     0.28846   0.12427   0.77545   0.00000  Uiso   1.00
H180   H     0.02025   0.31117   0.37483   0.00000  Uiso   1.00
H181   H     0.08397   0.30585   0.44219   0.00000  Uiso   1.00
H182   H     0.46992   0.19132   0.62616   0.00000  Uiso   1.00
H183   H     0.19103   0.02821   0.37547   0.00000  Uiso   1.00
H184   H     0.30893   0.47181   0.62442   0.00000  Uiso   1.00
H185   H     0.47705   0.18888   0.37267   0.00000  Uiso   1.00
H186   H     0.02845   0.30891   0.62509   0.00000  Uiso   1.00
H187   H     0.30893   0.47178   0.37551   0.00000  Uiso   1.00
H188   H     0.19106   0.02830   0.62455   0.00000  Uiso   1.00
H189   H     0.27813   0.05946   0.87415   0.00000  Uiso   1.00
H190   H     0.22187   0.44055   0.12584   0.00000  Uiso   1.00
H191   H     0.44060   0.27820   0.87425   0.00000  Uiso   1.00
H192   H     0.46893   0.15232   0.55479   0.00000  Uiso   1.00
H193   H     0.05942   0.22176   0.12582   0.00000  Uiso   1.00
H194   H     0.22545   0.44009   0.87499   0.00000  Uiso   1.00
H195   H     0.27457   0.05993   0.12509   0.00000  Uiso   1.00
H196   H     0.05989   0.22529   0.87488   0.00000  Uiso   1.00
H197   H     0.44011   0.27462   0.12507   0.00000  Uiso   1.00
H198   H     0.21025   0.09142   0.44091   0.00000  Uiso   1.00
H199   H     0.28953   0.40854   0.55909   0.00000  Uiso   1.00
H200   H     0.16264   0.44974   0.94319   0.00000  Uiso   1.00
O201   O     0.25000   0.00000   0.25000   0.00000  Uiso   1.00
O202   O     0.25000   0.46964   0.66245   0.00000  Uiso   1.00
O203   O     0.30325   0.14556   0.76741   0.00000  Uiso   1.00
O204   O     0.03347   0.30692   0.39944   0.00000  Uiso   1.00
O205   O     0.45786   0.19855   0.60163   0.00000  Uiso   1.00
O206   O     0.19747   0.04116   0.39971   0.00000  Uiso   1.00
O207   O     0.30243   0.45883   0.60022   0.00000  Uiso   1.00
O208   O     0.46482   0.19299   0.39788   0.00000  Uiso   1.00
O209   O     0.04177   0.30129   0.60145   0.00000  Uiso   1.00
O210   O     0.30245   0.45882   0.39974   0.00000  Uiso   1.00
O211   O     0.19750   0.04122   0.60028   0.00000  Uiso   1.00
O212   O     0.29104   0.05251   0.89828   0.00000  Uiso   1.00
O213   O     0.46964   0.25000   0.33755   0.00000  Uiso   1.00
O214   O     0.20894   0.44753   0.10174   0.00000  Uiso   1.00
O215   O     0.44763   0.29114   0.89833   0.00000  Uiso   1.00
O216   O     0.05243   0.20885   0.10171   0.00000  Uiso   1.00
O217   O     0.21207   0.44567   0.89922   0.00000  Uiso   1.00
O218   O     0.28791   0.05438   0.10084   0.00000  Uiso   1.00
O219   O     0.05432   0.21197   0.89914   0.00000  Uiso   1.00
O220   O     0.44572   0.28799   0.10085   0.00000  Uiso   1.00
O221   O     0.03037   0.25000   0.66245   0.00000  Uiso   1.00
O222   O     0.00000   0.21964   0.83755   0.00000  Uiso   1.00
O223   O     0.00000   0.28037   0.16245   0.00000  Uiso   1.00
O224   O     0.28037   0.00000   0.83755   0.00000  Uiso   1.00
O225   O     0.21964   0.00000   0.16245   0.00000  Uiso   1.00
O226   O     0.00000   0.28037   0.83755   0.00000  Uiso   1.00
O227   O     0.00000   0.21964   0.16245   0.00000  Uiso   1.00
O228   O     0.21964   0.00000   0.83755   0.00000  Uiso   1.00
O229   O     0.25000   0.00000   0.75000   0.00000  Uiso   1.00
O230   O     0.28037   0.00000   0.16245   0.00000  Uiso   1.00
O231   O     0.20725   0.07308   0.27302   0.00000  Uiso   1.00
O232   O     0.29276   0.42693   0.72698   0.00000  Uiso   1.00
O233   O     0.42693   0.20725   0.27302   0.00000  Uiso   1.00
O234   O     0.07308   0.29276   0.72698   0.00000  Uiso   1.00
O235   O     0.29276   0.42693   0.27302   0.00000  Uiso   1.00
O236   O     0.20725   0.07308   0.72698   0.00000  Uiso   1.00
O237   O     0.07308   0.29276   0.27302   0.00000  Uiso   1.00
O238   O     0.42693   0.20725   0.72698   0.00000  Uiso   1.00
O239   O     0.20725   0.42693   0.72698   0.00000  Uiso   1.00
O240   O     0.00000   0.25000   0.25000   0.00000  Uiso   1.00
O241   O     0.29276   0.07308   0.27302   0.00000  Uiso   1.00
O242   O     0.42693   0.29276   0.72698   0.00000  Uiso   1.00
O243   O     0.07308   0.20725   0.27302   0.00000  Uiso   1.00
O244   O     0.29276   0.07308   0.72698   0.00000  Uiso   1.00
O245   O     0.20725   0.42693   0.27302   0.00000  Uiso   1.00
O246   O     0.07308   0.20725   0.72698   0.00000  Uiso   1.00
O247   O     0.42693   0.29276   0.27302   0.00000  Uiso   1.00
O248   O     0.45725   0.32308   0.77302   0.00000  Uiso   1.00
O249   O     0.04276   0.17693   0.22698   0.00000  Uiso   1.00
O250   O     0.17693   0.45725   0.77302   0.00000  Uiso   1.00
O251   O     0.00000   0.25000   0.75000   0.00000  Uiso   1.00
O252   O     0.32308   0.04276   0.22698   0.00000  Uiso   1.00
O253   O     0.04276   0.17693   0.77302   0.00000  Uiso   1.00
O254   O     0.45725   0.32308   0.22698   0.00000  Uiso   1.00
O255   O     0.32308   0.04276   0.77302   0.00000  Uiso   1.00
O256   O     0.17693   0.45725   0.22698   0.00000  Uiso   1.00
O257   O     0.45725   0.17693   0.22698   0.00000  Uiso   1.00
O258   O     0.04276   0.32308   0.77302   0.00000  Uiso   1.00
O259   O     0.17693   0.04276   0.22698   0.00000  Uiso   1.00
O260   O     0.32308   0.45725   0.77302   0.00000  Uiso   1.00
O261   O     0.04276   0.32308   0.22698   0.00000  Uiso   1.00
O262   O     0.25000   0.46964   0.33755   0.00000  Uiso   1.00
O263   O     0.45725   0.17693   0.77302   0.00000  Uiso   1.00
O264   O     0.32308   0.45725   0.22698   0.00000  Uiso   1.00
O265   O     0.17693   0.04276   0.77302   0.00000  Uiso   1.00
O266   O     0.44084   0.16873   0.45960   0.00000  Uiso   1.00
O267   O     0.06158   0.32901   0.53716   0.00000  Uiso   1.00
O268   O     0.30629   0.41696   0.46168   0.00000  Uiso   1.00
O269   O     0.19352   0.08298   0.53830   0.00000  Uiso   1.00
O270   O     0.07083   0.32086   0.46165   0.00000  Uiso   1.00
O271   O     0.44911   0.16293   0.53873   0.00000  Uiso   1.00
O272   O     0.19351   0.08296   0.46166   0.00000  Uiso   1.00
O273   O     0.25000   0.03037   0.66245   0.00000  Uiso   1.00
O274   O     0.30626   0.41696   0.53832   0.00000  Uiso   1.00
O275   O     0.17488   0.43339   0.96209   0.00000  Uiso   1.00
O276   O     0.32501   0.06676   0.03794   0.00000  Uiso   1.00
O277   O     0.06664   0.17485   0.96203   0.00000  Uiso   1.00
O278   O     0.43350   0.32520   0.03799   0.00000  Uiso   1.00
O279   O     0.31610   0.07593   0.96248   0.00000  Uiso   1.00
O280   O     0.18376   0.42423   0.03756   0.00000  Uiso   1.00
O281   O     0.42435   0.31635   0.96253   0.00000  Uiso   1.00
O282   O     0.07580   0.18372   0.03750   0.00000  Uiso   1.00
O283   O     0.16231   0.38891   0.18077   0.00000  Uiso   1.00
O284   O     0.03037   0.25000   0.33755   0.00000  Uiso   1.00
O285   O     0.39557   0.05324   0.73263   0.00000  Uiso   1.00
O286   O     0.11111   0.16228   0.18075   0.00000  Uiso   1.00
O287   O     0.44682   0.39564   0.73298   0.00000  Uiso   1.00
O288   O     0.33774   0.11113   0.18076   0.00000  Uiso   1.00
O289   O     0.10443   0.44677   0.73267   0.00000  Uiso   1.00
O290   O     0.38896   0.33777   0.18074   0.00000  Uiso   1.00
O291   O     0.11141   0.16260   0.81912   0.00000  Uiso   1.00
O292   O     0.16264   0.11144   0.81908   0.00000  Uiso   1.00
O293   O     0.33773   0.38893   0.18078   0.00000  Uiso   1.00
O294   O     0.05325   0.39557   0.73265   0.00000  Uiso   1.00
O295   O     0.46964   0.25000   0.66245   0.00000  Uiso   1.00
O296   O     0.38888   0.16237   0.18080   0.00000  Uiso   1.00
O297   O     0.39561   0.44682   0.73295   0.00000  Uiso   1.00
O298   O     0.16233   0.11112   0.18079   0.00000  Uiso   1.00
O299   O     0.44675   0.10444   0.73259   0.00000  Uiso   1.00
O300   O     0.11114   0.33771   0.18078   0.00000  Uiso   1.00
O301   O     0.35443   0.19676   0.76738   0.00000  Uiso   1.00
O302   O     0.08769   0.36108   0.31924   0.00000  Uiso   1.00
O303   O     0.30318   0.35436   0.76702   0.00000  Uiso   1.00
O304   O     0.13890   0.08773   0.31925   0.00000  Uiso   1.00
O305   O     0.14557   0.30323   0.76733   0.00000  Uiso   1.00
O306   O     0.25000   0.03037   0.33755   0.00000  Uiso   1.00
O307   O     0.41228   0.13886   0.31923   0.00000  Uiso   1.00
O308   O     0.13860   0.08740   0.68089   0.00000  Uiso   1.00
O309   O     0.36104   0.41223   0.31925   0.00000  Uiso   1.00
O310   O     0.41227   0.36107   0.31922   0.00000  Uiso   1.00
O311   O     0.08737   0.13856   0.68092   0.00000  Uiso   1.00
O312   O     0.36112   0.08763   0.31920   0.00000  Uiso   1.00
O313   O     0.19676   0.35443   0.76735   0.00000  Uiso   1.00
O314   O     0.08767   0.13888   0.31922   0.00000  Uiso   1.00
O315   O     0.35439   0.30318   0.76706   0.00000  Uiso   1.00
O316   O     0.13886   0.41229   0.31922   0.00000  Uiso   1.00
Zn317  Zn    0.20660   0.00000   0.21735   0.00000  Uiso   1.00
Zn318  Zn    0.04341   0.25000   0.28265   0.00000  Uiso   1.00
Zn319  Zn    0.25000   0.45660   0.71735   0.00000  Uiso   1.00
Zn320  Zn    0.25000   0.04341   0.28265   0.00000  Uiso   1.00
Zn321  Zn    0.04341   0.25000   0.71735   0.00000  Uiso   1.00
Zn322  Zn    0.45660   0.25000   0.28265   0.00000  Uiso   1.00
Zn323  Zn    0.25000   0.04341   0.71735   0.00000  Uiso   1.00
Zn324  Zn    0.25000   0.45660   0.28265   0.00000  Uiso   1.00
Zn325  Zn    0.29341   0.00000   0.78265   0.00000  Uiso   1.00
Zn326  Zn    0.00000   0.20660   0.21735   0.00000  Uiso   1.00
Zn327  Zn    0.00000   0.29341   0.78265   0.00000  Uiso   1.00
Zn328  Zn    0.29341   0.00000   0.21735   0.00000  Uiso   1.00
Zn329  Zn    0.20660   0.00000   0.78265   0.00000  Uiso   1.00
Zn330  Zn    0.00000   0.29341   0.21735   0.00000  Uiso   1.00
Zn331  Zn    0.00000   0.20660   0.78265   0.00000  Uiso   1.00
Zn332  Zn    0.45660   0.25000   0.71735   0.00000  Uiso   1.00
C333   C     0.51964   0.27643   0.41823   0.00000  Uiso   1.00
C334   C     0.72945   0.47315   0.08183   0.00000  Uiso   1.00
C335   C     0.72857   0.02593   0.54095   0.00000  Uiso   1.00
C336   C     0.52328   0.27373   0.45875   0.00000  Uiso   1.00
C337   C     0.98193   0.22098   0.54099   0.00000  Uiso   1.00
C338   C     0.72856   0.02592   0.45903   0.00000  Uiso   1.00
C339   C     0.77128   0.47405   0.54095   0.00000  Uiso   1.00
C340   C     0.72594   0.47669   0.95894   0.00000  Uiso   1.00
C341   C     0.77400   0.02341   0.04109   0.00000  Uiso   1.00
C342   C     0.52338   0.22595   0.95892   0.00000  Uiso   1.00
C343   C     0.97672   0.27407   0.04110   0.00000  Uiso   1.00
C344   C     0.77155   0.02621   0.95909   0.00000  Uiso   1.00
C345   C     0.97321   0.27059   0.91821   0.00000  Uiso   1.00
C346   C     0.72838   0.47389   0.04094   0.00000  Uiso   1.00
C347   C     0.97394   0.27165   0.95911   0.00000  Uiso   1.00
C348   C     0.52616   0.22838   0.04092   0.00000  Uiso   1.00
C349   C     0.59801   0.34802   0.25000   0.00000  Uiso   1.00
C350   C     0.90199   0.15199   0.75001   0.00000  Uiso   1.00
C351   C     0.65199   0.09802   0.25001   0.00000  Uiso   1.00
C352   C     0.84801   0.40198   0.74999   0.00000  Uiso   1.00
C353   C     0.90198   0.15200   0.25001   0.00000  Uiso   1.00
C354   C     0.59802   0.34801   0.74999   0.00000  Uiso   1.00
C355   C     0.84801   0.40198   0.25001   0.00000  Uiso   1.00
C356   C     0.52687   0.22942   0.08182   0.00000  Uiso   1.00
C357   C     0.65199   0.09802   0.74999   0.00000  Uiso   1.00
C358   C     0.59801   0.15198   0.75001   0.00000  Uiso   1.00
C359   C     0.90199   0.34802   0.24999   0.00000  Uiso   1.00
C360   C     0.65198   0.40199   0.75001   0.00000  Uiso   1.00
C361   C     0.84802   0.09800   0.24999   0.00000  Uiso   1.00
C362   C     0.90199   0.34802   0.75001   0.00000  Uiso   1.00
C363   C     0.59801   0.15198   0.24999   0.00000  Uiso   1.00
C364   C     0.84801   0.09801   0.74999   0.00000  Uiso   1.00
C365   C     0.65199   0.40198   0.25000   0.00000  Uiso   1.00
C366   C     0.50237   0.24739   0.47931   0.00000  Uiso   1.00
C367   C     0.72852   0.47465   0.91828   0.00000  Uiso   1.00
C368   C     0.50214   0.24779   0.52039   0.00000  Uiso   1.00
C369   C     0.74992   0.49998   0.47951   0.00000  Uiso   1.00
C370   C     0.74992   0.49999   0.52047   0.00000  Uiso   1.00
C371   C     0.74941   0.00071   0.97949   0.00000  Uiso   1.00
C372   C     0.75053   0.49938   0.02054   0.00000  Uiso   1.00
C373   C     0.99939   0.24946   0.97948   0.00000  Uiso   1.00
C374   C     0.50071   0.25057   0.02054   0.00000  Uiso   1.00
C375   C     0.77145   0.02542   0.08175   0.00000  Uiso   1.00
C376   C     0.52539   0.22849   0.91825   0.00000  Uiso   1.00
C377   C     0.97467   0.27150   0.08176   0.00000  Uiso   1.00
C378   C     0.50027   0.24923   0.39796   0.00000  Uiso   1.00
C379   C     0.50024   0.24958   0.60184   0.00000  Uiso   1.00
C380   C     0.74997   0.49999   0.39818   0.00000  Uiso   1.00
C381   C     0.98024   0.22263   0.58183   0.00000  Uiso   1.00
C382   C     0.74996   0.00001   0.60180   0.00000  Uiso   1.00
C383   C     0.74973   0.00056   0.89810   0.00000  Uiso   1.00
C384   C     0.75025   0.49948   0.10192   0.00000  Uiso   1.00
C385   C     0.99950   0.24975   0.89809   0.00000  Uiso   1.00
C386   C     0.50056   0.25025   0.10192   0.00000  Uiso   1.00
C387   C     0.96152   0.19421   0.47960   0.00000  Uiso   1.00
C388   C     0.54277   0.30103   0.51955   0.00000  Uiso   1.00
C389   C     0.78989   0.44628   0.47980   0.00000  Uiso   1.00
C390   C     0.70994   0.05367   0.52018   0.00000  Uiso   1.00
C391   C     0.54568   0.29842   0.47951   0.00000  Uiso   1.00
C392   C     0.72544   0.02280   0.41848   0.00000  Uiso   1.00
C393   C     0.96374   0.19293   0.52023   0.00000  Uiso   1.00
C394   C     0.70993   0.05366   0.47979   0.00000  Uiso   1.00
C395   C     0.78988   0.44628   0.52019   0.00000  Uiso   1.00
C396   C     0.70205   0.45345   0.97979   0.00000  Uiso   1.00
C397   C     0.79787   0.04668   0.02023   0.00000  Uiso   1.00
C398   C     0.54660   0.20203   0.97975   0.00000  Uiso   1.00
C399   C     0.95352   0.29801   0.02027   0.00000  Uiso   1.00
C400   C     0.79472   0.04996   0.98023   0.00000  Uiso   1.00
C401   C     0.70519   0.45016   0.01979   0.00000  Uiso   1.00
C402   C     0.95024   0.29488   0.98027   0.00000  Uiso   1.00
C403   C     0.77445   0.47718   0.58148   0.00000  Uiso   1.00
C404   C     0.54988   0.20517   0.01975   0.00000  Uiso   1.00
C405   C     0.74999  -0.00000   0.35582   0.00000  Uiso   1.00
C406   C     0.74998   0.00001   0.64417   0.00000  Uiso   1.00
C407   C     0.50001   0.24991   0.35573   0.00000  Uiso   1.00
C408   C     0.50002   0.24996   0.64419   0.00000  Uiso   1.00
C409   C     0.99987   0.24998   0.85578   0.00000  Uiso   1.00
C410   C     0.50015   0.25002   0.14422   0.00000  Uiso   1.00
C411   C     0.74998   0.00015   0.85578   0.00000  Uiso   1.00
C412   C     0.75002   0.49986   0.14423   0.00000  Uiso   1.00
C413   C     0.68003   0.06996   0.25001   0.00000  Uiso   1.00
C414   C     0.98207   0.22092   0.41786   0.00000  Uiso   1.00
C415   C     0.81996   0.43004   0.75000   0.00000  Uiso   1.00
C416   C     0.93003   0.18003   0.25001   0.00000  Uiso   1.00
C417   C     0.56997   0.31997   0.74999   0.00000  Uiso   1.00
C418   C     0.81997   0.43003   0.25001   0.00000  Uiso   1.00
C419   C     0.68003   0.06997   0.74999   0.00000  Uiso   1.00
C420   C     0.56996   0.31997   0.25000   0.00000  Uiso   1.00
C421   C     0.93004   0.18003   0.75000   0.00000  Uiso   1.00
C422   C     0.68003   0.43004   0.75001   0.00000  Uiso   1.00
C423   C     0.81997   0.06997   0.24999   0.00000  Uiso   1.00
C424   C     0.93004   0.31996   0.75000   0.00000  Uiso   1.00
C425   C     0.52125   0.27564   0.58163   0.00000  Uiso   1.00
C426   C     0.56996   0.18004   0.24999   0.00000  Uiso   1.00
C427   C     0.81996   0.06997   0.75000   0.00000  Uiso   1.00
C428   C     0.68004   0.43003   0.25000   0.00000  Uiso   1.00
C429   C     0.56997   0.18004   0.75001   0.00000  Uiso   1.00
C430   C     0.93003   0.31996   0.24999   0.00000  Uiso   1.00
C431   C     0.64389   0.38302   0.21528   0.00000  Uiso   1.00
C432   C     0.88471   0.08841   0.74193   0.00000  Uiso   1.00
C433   C     0.61699   0.14387   0.21527   0.00000  Uiso   1.00
C434   C     0.91162   0.38474   0.74212   0.00000  Uiso   1.00
C435   C     0.85614   0.11700   0.21527   0.00000  Uiso   1.00
C436   C     0.77447   0.47717   0.41849   0.00000  Uiso   1.00
C437   C     0.61529   0.41160   0.74196   0.00000  Uiso   1.00
C438   C     0.88304   0.35615   0.21527   0.00000  Uiso   1.00
C439   C     0.61715   0.14404   0.78467   0.00000  Uiso   1.00
C440   C     0.64404   0.11716   0.78465   0.00000  Uiso   1.00
C441   C     0.85615   0.38303   0.21528   0.00000  Uiso   1.00
C442   C     0.58841   0.38471   0.74194   0.00000  Uiso   1.00
C443   C     0.88301   0.14390   0.21529   0.00000  Uiso   1.00
C444   C     0.88473   0.41162   0.74210   0.00000  Uiso   1.00
C445   C     0.64389   0.11700   0.21529   0.00000  Uiso   1.00
C446   C     0.91159   0.11530   0.74192   0.00000  Uiso   1.00
C447   C     0.72545   0.02284   0.58151   0.00000  Uiso   1.00
C448   C     0.61700   0.35614   0.21528   0.00000  Uiso   1.00
C449   C     0.86529   0.16159   0.75807   0.00000  Uiso   1.00
C450   C     0.60611   0.36698   0.28473   0.00000  Uiso   1.00
C451   C     0.83838   0.36526   0.75789   0.00000  Uiso   1.00
C452   C     0.63301   0.10613   0.28473   0.00000  Uiso   1.00
C453   C     0.63471   0.33840   0.75804   0.00000  Uiso   1.00
C454   C     0.89387   0.13299   0.28472   0.00000  Uiso   1.00
C455   C     0.63286   0.10597   0.71533   0.00000  Uiso   1.00
C456   C     0.86696   0.39384   0.28473   0.00000  Uiso   1.00
C457   C     0.89385   0.36697   0.28472   0.00000  Uiso   1.00
C458   C     0.77052   0.02691   0.91819   0.00000  Uiso   1.00
C459   C     0.60596   0.13284   0.71535   0.00000  Uiso   1.00
C460   C     0.86700   0.10609   0.28471   0.00000  Uiso   1.00
C461   C     0.66159   0.36529   0.75805   0.00000  Uiso   1.00
C462   C     0.60611   0.13301   0.28472   0.00000  Uiso   1.00
C463   C     0.86527   0.33838   0.75790   0.00000  Uiso   1.00
C464   C     0.63300   0.39387   0.28472   0.00000  Uiso   1.00
C465   C     0.83841   0.13470   0.75807   0.00000  Uiso   1.00
C466   C     0.98148   0.22095   0.45883   0.00000  Uiso   1.00
C467   C     0.52197   0.27516   0.54074   0.00000  Uiso   1.00
C468   C     0.77129   0.47404   0.45903   0.00000  Uiso   1.00
H469   H     0.92487   0.15496   0.47757   0.00000  Uiso   1.00
H470   H     0.83730   0.05042   0.05681   0.00000  Uiso   1.00
H471   H     0.55028   0.16259   0.94318   0.00000  Uiso   1.00
H472   H     0.94985   0.33742   0.05689   0.00000  Uiso   1.00
H473   H     0.79888   0.09394   0.95116   0.00000  Uiso   1.00
H474   H     0.70095   0.40616   0.04882   0.00000  Uiso   1.00
H475   H     0.90625   0.29918   0.95129   0.00000  Uiso   1.00
H476   H     0.59384   0.20091   0.04881   0.00000  Uiso   1.00
H477   H     0.68576   0.40147   0.18569   0.00000  Uiso   1.00
H478   H     0.87429   0.03844   0.72463   0.00000  Uiso   1.00
H479   H     0.59853   0.18572   0.18566   0.00000  Uiso   1.00
H480   H     0.54285   0.34451   0.54988   0.00000  Uiso   1.00
H481   H     0.96162   0.37439   0.72485   0.00000  Uiso   1.00
H482   H     0.81432   0.09850   0.18565   0.00000  Uiso   1.00
H483   H     0.62572   0.46157   0.72465   0.00000  Uiso   1.00
H484   H     0.90154   0.31433   0.18564   0.00000  Uiso   1.00
H485   H     0.59866   0.18595   0.81419   0.00000  Uiso   1.00
H486   H     0.68603   0.09880   0.81410   0.00000  Uiso   1.00
H487   H     0.81425   0.40141   0.18572   0.00000  Uiso   1.00
H488   H     0.53847   0.37429   0.72458   0.00000  Uiso   1.00
H489   H     0.90139   0.18584   0.18575   0.00000  Uiso   1.00
H490   H     0.87436   0.46159   0.72476   0.00000  Uiso   1.00
H491   H     0.78957   0.40854   0.44092   0.00000  Uiso   1.00
H492   H     0.68581   0.09863   0.18573   0.00000  Uiso   1.00
H493   H     0.96154   0.12573   0.72455   0.00000  Uiso   1.00
H494   H     0.59861   0.31424   0.18572   0.00000  Uiso   1.00
H495   H     0.87571   0.21156   0.77538   0.00000  Uiso   1.00
H496   H     0.56426   0.34849   0.31434   0.00000  Uiso   1.00
H497   H     0.78838   0.37561   0.77515   0.00000  Uiso   1.00
H498   H     0.65150   0.06430   0.31436   0.00000  Uiso   1.00
H499   H     0.62428   0.28843   0.77535   0.00000  Uiso   1.00
H500   H     0.93571   0.15146   0.31432   0.00000  Uiso   1.00
H501   H     0.65133   0.06405   0.68582   0.00000  Uiso   1.00
H502   H     0.71027   0.09145   0.55901   0.00000  Uiso   1.00
H503   H     0.84847   0.43568   0.31435   0.00000  Uiso   1.00
H504   H     0.93576   0.34859   0.31427   0.00000  Uiso   1.00
H505   H     0.56397   0.15120   0.68590   0.00000  Uiso   1.00
H506   H     0.84861   0.06416   0.31425   0.00000  Uiso   1.00
H507   H     0.71154   0.37571   0.77541   0.00000  Uiso   1.00
H508   H     0.56419   0.15138   0.31427   0.00000  Uiso   1.00
H509   H     0.87564   0.28841   0.77525   0.00000  Uiso   1.00
H510   H     0.65139   0.43576   0.31428   0.00000  Uiso   1.00
H511   H     0.78846   0.12427   0.77545   0.00000  Uiso   1.00
H512   H     0.52025   0.31117   0.37483   0.00000  Uiso   1.00
H513   H     0.58397   0.30585   0.44219   0.00000  Uiso   1.00
H514   H     0.96992   0.19132   0.62616   0.00000  Uiso   1.00
H515   H     0.69103   0.02821   0.37547   0.00000  Uiso   1.00
H516   H     0.80893   0.47181   0.62442   0.00000  Uiso   1.00
H517   H     0.97705   0.18888   0.37267   0.00000  Uiso   1.00
H518   H     0.52845   0.30891   0.62509   0.00000  Uiso   1.00
H519   H     0.80893   0.47178   0.37551   0.00000  Uiso   1.00
H520   H     0.69106   0.02830   0.62455   0.00000  Uiso   1.00
H521   H     0.77813   0.05946   0.87415   0.00000  Uiso   1.00
H522   H     0.72187   0.44055   0.12584   0.00000  Uiso   1.00
H523   H     0.94060   0.27820   0.87425   0.00000  Uiso   1.00
H524   H     0.96893   0.15232   0.55479   0.00000  Uiso   1.00
H525   H     0.55942   0.22176   0.12582   0.00000  Uiso   1.00
H526   H     0.72545   0.44009   0.87499   0.00000  Uiso   1.00
H527   H     0.77457   0.05993   0.12509   0.00000  Uiso   1.00
H528   H     0.55989   0.22529   0.87488   0.00000  Uiso   1.00
H529   H     0.94011   0.27462   0.12507   0.00000  Uiso   1.00
H530   H     0.71025   0.09142   0.44091   0.00000  Uiso   1.00
H531   H     0.78953   0.40854   0.55909   0.00000  Uiso   1.00
H532   H     0.66264   0.44974   0.94319   0.00000  Uiso   1.00
O533   O     0.75000   0.00000   0.25000   0.00000  Uiso   1.00
O534   O     0.75000   0.46964   0.66245   0.00000  Uiso   1.00
O535   O     0.80325   0.14556   0.76741   0.00000  Uiso   1.00
O536   O     0.53347   0.30692   0.39944   0.00000  Uiso   1.00
O537   O     0.95786   0.19855   0.60163   0.00000  Uiso   1.00
O538   O     0.69747   0.04116   0.39971   0.00000  Uiso   1.00
O539   O     0.80243   0.45883   0.60022   0.00000  Uiso   1.00
O540   O     0.96482   0.19299   0.39788   0.00000  Uiso   1.00
O541   O     0.54177   0.30129   0.60145   0.00000  Uiso   1.00
O542   O     0.80245   0.45882   0.39974   0.00000  Uiso   1.00
O543   O     0.69750   0.04122   0.60028   0.00000  Uiso   1.00
O544   O     0.79104   0.05251   0.89828   0.00000  Uiso   1.00
O545   O     0.96964   0.25000   0.33755   0.00000  Uiso   1.00
O546   O     0.70894   0.44753   0.10174   0.00000  Uiso   1.00
O547   O     0.94763   0.29114   0.89833   0.00000  Uiso   1.00
O548   O     0.55243   0.20885   0.10171   0.00000  Uiso   1.00
O549   O     0.71207   0.44567   0.89922   0.00000  Uiso   1.00
O550   O     0.78791   0.05438   0.10084   0.00000  Uiso   1.00
O551   O     0.55432   0.21197   0.89914   0.00000  Uiso   1.00
O552   O     0.94572   0.28799   0.10085   0.00000  Uiso   1.00
O553   O     0.53037   0.25000   0.66245   0.00000  Uiso   1.00
O554   O     0.50000   0.21964   0.83755   0.00000  Uiso   1.00
O555   O     0.50000   0.28037   0.16245   0.00000  Uiso   1.00
O556   O     0.78037   0.00000   0.83755   0.00000  Uiso   1.00
O557   O     0.71964   0.00000   0.16245   0.00000  Uiso   1.00
O558   O     0.50000   0.28037   0.83755   0.00000  Uiso   1.00
O559   O     0.50000   0.21964   0.16245   0.00000  Uiso   1.00
O560   O     0.71964   0.00000   0.83755   0.00000  Uiso   1.00
O561   O     0.75000   0.00000   0.75000   0.00000  Uiso   1.00
O562   O     0.78037   0.00000   0.16245   0.00000  Uiso   1.00
O563   O     0.70725   0.07308   0.27302   0.00000  Uiso   1.00
O564   O     0.79276   0.42693   0.72698   0.00000  Uiso   1.00
O565   O     0.92693   0.20725   0.27302   0.00000  Uiso   1.00
O566   O     0.57308   0.29276   0.72698   0.00000  Uiso   1.00
O567   O     0.79276   0.42693   0.27302   0.00000  Uiso   1.00
O568   O     0.70725   0.07308   0.72698   0.00000  Uiso   1.00
O569   O     0.57308   0.29276   0.27302   0.00000  Uiso   1.00
O570   O     0.92693   0.20725   0.72698   0.00000  Uiso   1.00
O571   O     0.70725   0.42693   0.72698   0.00000  Uiso   1.00
O572   O     0.50000   0.25000   0.25000   0.00000  Uiso   1.00
O573   O     0.79276   0.07308   0.27302   0.00000  Uiso   1.00
O574   O     0.92693   0.29276   0.72698   0.00000  Uiso   1.00
O575   O     0.57308   0.20725   0.27302   0.00000  Uiso   1.00
O576   O     0.79276   0.07308   0.72698   0.00000  Uiso   1.00
O577   O     0.70725   0.42693   0.27302   0.00000  Uiso   1.00
O578   O     0.57308   0.20725   0.72698   0.00000  Uiso   1.00
O579   O     0.92693   0.29276   0.27302   0.00000  Uiso   1.00
O580   O     0.95725   0.32308   0.77302   0.00000  Uiso   1.00
O581   O     0.54276   0.17693   0.22698   0.00000  Uiso   1.00
O582   O     0.67693   0.45725   0.77302   0.00000  Uiso   1.00
O583   O     0.50000   0.25000   0.75000   0.00000  Uiso   1.00
O584   O     0.82308   0.04276   0.22698   0.00000  Uiso   1.00
O585   O     0.54276   0.17693   0.77302   0.00000  Uiso   1.00
O586   O     0.95725   0.32308   0.22698   0.00000  Uiso   1.00
O587   O     0.82308   0.04276   0.77302   0.00000  Uiso   1.00
O588   O     0.67693   0.45725   0.22698   0.00000  Uiso   1.00
O589   O     0.95725   0.17693   0.22698   0.00000  Uiso   1.00
O590   O     0.54276   0.32308   0.77302   0.00000  Uiso   1.00
O591   O     0.67693   0.04276   0.22698   0.00000  Uiso   1.00
O592   O     0.82308   0.45725   0.77302   0.00000  Uiso   1.00
O593   O     0.54276   0.32308   0.22698   0.00000  Uiso   1.00
O594   O     0.75000   0.46964   0.33755   0.00000  Uiso   1.00
O595   O     0.95725   0.17693   0.77302   0.00000  Uiso   1.00
O596   O     0.82308   0.45725   0.22698   0.00000  Uiso   1.00
O597   O     0.67693   0.04276   0.77302   0.00000  Uiso   1.00
O598   O     0.94084   0.16873   0.45960   0.00000  Uiso   1.00
O599   O     0.56158   0.32901   0.53716   0.00000  Uiso   1.00
O600   O     0.80629   0.41696   0.46168   0.00000  Uiso   1.00
O601   O     0.69352   0.08298   0.53830   0.00000  Uiso   1.00
O602   O     0.57083   0.32086   0.46165   0.00000  Uiso   1.00
O603   O     0.94911   0.16293   0.53873   0.00000  Uiso   1.00
O604   O     0.69351   0.08296   0.46166   0.00000  Uiso   1.00
O605   O     0.75000   0.03037   0.66245   0.00000  Uiso   1.00
O606   O     0.80626   0.41696   0.53832   0.00000  Uiso   1.00
O607   O     0.67488   0.43339   0.96209   0.00000  Uiso   1.00
O608   O     0.82501   0.06676   0.03794   0.00000  Uiso   1.00
O609   O     0.56664   0.17485   0.96203   0.00000  Uiso   1.00
O610   O     0.93350   0.32520   0.03799   0.00000  Uiso   1.00
O611   O     0.81610   0.07593   0.96248   0.00000  Uiso   1.00
O612   O     0.68376   0.42423   0.03756   0.00000  Uiso   1.00
O613   O     0.92435   0.31635   0.96253   0.00000  Uiso   1.00
O614   O     0.57580   0.18372   0.03750   0.00000  Uiso   1.00
O615   O     0.66231   0.38891   0.18077   0.00000  Uiso   1.00
O616   O     0.53037   0.25000   0.33755   0.00000  Uiso   1.00
O617   O     0.89557   0.05324   0.73263   0.00000  Uiso   1.00
O618   O     0.61111   0.16228   0.18075   0.00000  Uiso   1.00
O619   O     0.94682   0.39564   0.73298   0.00000  Uiso   1.00
O620   O     0.83774   0.11113   0.18076   0.00000  Uiso   1.00
O621   O     0.60443   0.44677   0.73267   0.00000  Uiso   1.00
O622   O     0.88896   0.33777   0.18074   0.00000  Uiso   1.00
O623   O     0.61141   0.16260   0.81912   0.00000  Uiso   1.00
O624   O     0.66264   0.11144   0.81908   0.00000  Uiso   1.00
O625   O     0.83773   0.38893   0.18078   0.00000  Uiso   1.00
O626   O     0.55325   0.39557   0.73265   0.00000  Uiso   1.00
O627   O     0.96964   0.25000   0.66245   0.00000  Uiso   1.00
O628   O     0.88888   0.16237   0.18080   0.00000  Uiso   1.00
O629   O     0.89561   0.44682   0.73295   0.00000  Uiso   1.00
O630   O     0.66233   0.11112   0.18079   0.00000  Uiso   1.00
O631   O     0.94675   0.10444   0.73259   0.00000  Uiso   1.00
O632   O     0.61114   0.33771   0.18078   0.00000  Uiso   1.00
O633   O     0.85443   0.19676   0.76738   0.00000  Uiso   1.00
O634   O     0.58769   0.36108   0.31924   0.00000  Uiso   1.00
O635   O     0.80318   0.35436   0.76702   0.00000  Uiso   1.00
O636   O     0.63890   0.08773   0.31925   0.00000  Uiso   1.00
O637   O     0.64557   0.30323   0.76733   0.00000  Uiso   1.00
O638   O     0.75000   0.03037   0.33755   0.00000  Uiso   1.00
O639   O     0.91228   0.13886   0.31923   0.00000  Uiso   1.00
O640   O     0.63860   0.08740   0.68089   0.00000  Uiso   1.00
O641   O     0.86104   0.41223   0.31925   0.00000  Uiso   1.00
O642   O     0.91227   0.36107   0.31922   0.00000  Uiso   1.00
O643   O     0.58737   0.13856   0.68092   0.00000  Uiso   1.00
O644   O     0.86112   0.08763   0.31920   0.00000  Uiso   1.00
O645   O     0.69676   0.35443   0.76735   0.00000  Uiso   1.00
O646   O     0.58767   0.13888   0.31922   0.00000  Uiso   1.00
O647   O     0.85439   0.30318   0.76706   0.00000  Uiso   1.00
O648   O     0.63886   0.41229   0.31922   0.00000  Uiso   1.00
Zn649  Zn    0.70660   0.00000   0.21735   0.00000  Uiso   1.00
Zn650  Zn    0.54341   0.25000   0.28265   0.00000  Uiso   1.00
Zn651  Zn    0.75000   0.45660   0.71735   0.00000  Uiso   1.00
Zn652  Zn    0.75000   0.04341   0.28265   0.00000  Uiso   1.00
Zn653  Zn    0.54341   0.25000   0.71735   0.00000  Uiso   1.00
Zn654  Zn    0.95660   0.25000   0.28265   0.00000  Uiso   1.00
Zn655  Zn    0.75000   0.04341   0.71735   0.00000  Uiso   1.00
Zn656  Zn    0.75000   0.45660   0.28265   0.00000  Uiso   1.00
Zn657  Zn    0.79341   0.00000   0.78265   0.00000  Uiso   1.00
Zn658  Zn    0.50000   0.20660   0.21735   0.00000  Uiso   1.00
Zn659  Zn    0.50000   0.29341   0.78265   0.00000  Uiso   1.00
Zn660  Zn    0.79341   0.00000   0.21735   0.00000  Uiso   1.00
Zn661  Zn    0.70660   0.00000   0.78265   0.00000  Uiso   1.00
Zn662  Zn    0.50000   0.29341   0.21735   0.00000  Uiso   1.00
Zn663  Zn    0.50000   0.20660   0.78265   0.00000  Uiso   1.00
Zn664  Zn    0.95660   0.25000   0.71735   0.00000  Uiso   1.00
C665   C     0.01964   0.77643   0.41823   0.00000  Uiso   1.00
C666   C     0.22945   0.97315   0.08183   0.00000  Uiso   1.00
C667   C     0.22857   0.52593   0.54095   0.00000  Uiso   1.00
C668   C     0.02328   0.77373   0.45875   0.00000  Uiso   1.00
C669   C     0.48193   0.72098   0.54099   0.00000  Uiso   1.00
C670   C     0.22856   0.52592   0.45903   0.00000  Uiso   1.00
C671   C     0.27128   0.97405   0.54095   0.00000  Uiso   1.00
C672   C     0.22594   0.97669   0.95894   0.00000  Uiso   1.00
C673   C     0.27400   0.52341   0.04109   0.00000  Uiso   1.00
C674   C     0.02338   0.72595   0.95892   0.00000  Uiso   1.00
C675   C     0.47672   0.77407   0.04110   0.00000  Uiso   1.00
C676   C     0.27155   0.52621   0.95909   0.00000  Uiso   1.00
C677   C     0.47321   0.77059   0.91821   0.00000  Uiso   1.00
C678   C     0.22838   0.97389   0.04094   0.00000  Uiso   1.00
C679   C     0.47394   0.77165   0.95911   0.00000  Uiso   1.00
C680   C     0.02616   0.72838   0.04092   0.00000  Uiso   1.00
C681   C     0.09801   0.84802   0.25000   0.00000  Uiso   1.00
C682   C     0.40199   0.65199   0.75001   0.00000  Uiso   1.00
C683   C     0.15199   0.59802   0.25001   0.00000  Uiso   1.00
C684   C     0.34801   0.90198   0.74999   0.00000  Uiso   1.00
C685   C     0.40198   0.65200   0.25001   0.00000  Uiso   1.00
C686   C     0.09802   0.84801   0.74999   0.00000  Uiso   1.00
C687   C     0.34801   0.90198   0.25001   0.00000  Uiso   1.00
C688   C     0.02687   0.72942   0.08182   0.00000  Uiso   1.00
C689   C     0.15199   0.59802   0.74999   0.00000  Uiso   1.00
C690   C     0.09801   0.65198   0.75001   0.00000  Uiso   1.00
C691   C     0.40199   0.84802   0.24999   0.00000  Uiso   1.00
C692   C     0.15198   0.90199   0.75001   0.00000  Uiso   1.00
C693   C     0.34802   0.59800   0.24999   0.00000  Uiso   1.00
C694   C     0.40199   0.84802   0.75001   0.00000  Uiso   1.00
C695   C     0.09801   0.65198   0.24999   0.00000  Uiso   1.00
C696   C     0.34801   0.59801   0.74999   0.00000  Uiso   1.00
C697   C     0.15199   0.90198   0.25000   0.00000  Uiso   1.00
C698   C     0.00237   0.74739   0.47931   0.00000  Uiso   1.00
C699   C     0.22852   0.97465   0.91828   0.00000  Uiso   1.00
C700   C     0.00214   0.74779   0.52039   0.00000  Uiso   1.00
C701   C     0.24992   0.99998   0.47951   0.00000  Uiso   1.00
C702   C     0.24992   0.99999   0.52047   0.00000  Uiso   1.00
C703   C     0.24941   0.50071   0.97949   0.00000  Uiso   1.00
C704   C     0.25053   0.99938   0.02054   0.00000  Uiso   1.00
C705   C     0.49939   0.74946   0.97948   0.00000  Uiso   1.00
C706   C     0.00071   0.75057   0.02054   0.00000  Uiso   1.00
C707   C     0.27145   0.52542   0.08175   0.00000  Uiso   1.00
C708   C     0.02539   0.72849   0.91825   0.00000  Uiso   1.00
C709   C     0.47467   0.77150   0.08176   0.00000  Uiso   1.00
C710   C     0.00027   0.74923   0.39796   0.00000  Uiso   1.00
C711   C     0.00024   0.74958   0.60184   0.00000  Uiso   1.00
C712   C     0.24997   0.99999   0.39818   0.00000  Uiso   1.00
C713   C     0.48024   0.72263   0.58183   0.00000  Uiso   1.00
C714   C     0.24996   0.50001   0.60180   0.00000  Uiso   1.00
C715   C     0.24973   0.50056   0.89810   0.00000  Uiso   1.00
C716   C     0.25025   0.99948   0.10192   0.00000  Uiso   1.00
C717   C     0.49950   0.74975   0.89809   0.00000  Uiso   1.00
C718   C     0.00056   0.75025   0.10192   0.00000  Uiso   1.00
C719   C     0.46152   0.69421   0.47960   0.00000  Uiso   1.00
C720   C     0.04277   0.80103   0.51955   0.00000  Uiso   1.00
C721   C     0.28989   0.94628   0.47980   0.00000  Uiso   1.00
C722   C     0.20994   0.55367   0.52018   0.00000  Uiso   1.00
C723   C     0.04568   0.79842   0.47951   0.00000  Uiso   1.00
C724   C     0.22544   0.52280   0.41848   0.00000  Uiso   1.00
C725   C     0.46374   0.69293   0.52023   0.00000  Uiso   1.00
C726   C     0.20993   0.55366   0.47979   0.00000  Uiso   1.00
C727   C     0.28988   0.94628   0.52019   0.00000  Uiso   1.00
C728   C     0.20205   0.95345   0.97979   0.00000  Uiso   1.00
C729   C     0.29787   0.54668   0.02023   0.00000  Uiso   1.00
C730   C     0.04660   0.70203   0.97975   0.00000  Uiso   1.00
C731   C     0.45352   0.79801   0.02027   0.00000  Uiso   1.00
C732   C     0.29472   0.54996   0.98023   0.00000  Uiso   1.00
C733   C     0.20519   0.95016   0.01979   0.00000  Uiso   1.00
C734   C     0.45024   0.79488   0.98027   0.00000  Uiso   1.00
C735   C     0.27445   0.97718   0.58148   0.00000  Uiso   1.00
C736   C     0.04988   0.70517   0.01975   0.00000  Uiso   1.00
C737   C     0.24999   0.50000   0.35582   0.00000  Uiso   1.00
C738   C     0.24998   0.50001   0.64417   0.00000  Uiso   1.00
C739   C     0.00001   0.74991   0.35573   0.00000  Uiso   1.00
C740   C     0.00002   0.74996   0.64419   0.00000  Uiso   1.00
C741   C     0.49987   0.74998   0.85578   0.00000  Uiso   1.00
C742   C     0.00015   0.75002   0.14422   0.00000  Uiso   1.00
C743   C     0.24998   0.50015   0.85578   0.00000  Uiso   1.00
C744   C     0.25002   0.99986   0.14423   0.00000  Uiso   1.00
C745   C     0.18003   0.56996   0.25001   0.00000  Uiso   1.00
C746   C     0.48207   0.72092   0.41786   0.00000  Uiso   1.00
C747   C     0.31996   0.93004   0.75000   0.00000  Uiso   1.00
C748   C     0.43003   0.68003   0.25001   0.00000  Uiso   1.00
C749   C     0.06997   0.81997   0.74999   0.00000  Uiso   1.00
C750   C     0.31997   0.93003   0.25001   0.00000  Uiso   1.00
C751   C     0.18003   0.56997   0.74999   0.00000  Uiso   1.00
C752   C     0.06996   0.81997   0.25000   0.00000  Uiso   1.00
C753   C     0.43004   0.68003   0.75000   0.00000  Uiso   1.00
C754   C     0.18003   0.93004   0.75001   0.00000  Uiso   1.00
C755   C     0.31997   0.56997   0.24999   0.00000  Uiso   1.00
C756   C     0.43004   0.81996   0.75000   0.00000  Uiso   1.00
C757   C     0.02125   0.77564   0.58163   0.00000  Uiso   1.00
C758   C     0.06996   0.68004   0.24999   0.00000  Uiso   1.00
C759   C     0.31996   0.56997   0.75000   0.00000  Uiso   1.00
C760   C     0.18004   0.93003   0.25000   0.00000  Uiso   1.00
C761   C     0.06997   0.68004   0.75001   0.00000  Uiso   1.00
C762   C     0.43003   0.81996   0.24999   0.00000  Uiso   1.00
C763   C     0.14389   0.88302   0.21528   0.00000  Uiso   1.00
C764   C     0.38471   0.58841   0.74193   0.00000  Uiso   1.00
C765   C     0.11699   0.64387   0.21527   0.00000  Uiso   1.00
C766   C     0.41162   0.88474   0.74212   0.00000  Uiso   1.00
C767   C     0.35614   0.61700   0.21527   0.00000  Uiso   1.00
C768   C     0.27447   0.97717   0.41849   0.00000  Uiso   1.00
C769   C     0.11529   0.91160   0.74196   0.00000  Uiso   1.00
C770   C     0.38304   0.85615   0.21527   0.00000  Uiso   1.00
C771   C     0.11715   0.64404   0.78467   0.00000  Uiso   1.00
C772   C     0.14404   0.61716   0.78465   0.00000  Uiso   1.00
C773   C     0.35615   0.88303   0.21528   0.00000  Uiso   1.00
C774   C     0.08841   0.88471   0.74194   0.00000  Uiso   1.00
C775   C     0.38301   0.64390   0.21529   0.00000  Uiso   1.00
C776   C     0.38473   0.91162   0.74210   0.00000  Uiso   1.00
C777   C     0.14389   0.61700   0.21529   0.00000  Uiso   1.00
C778   C     0.41159   0.61530   0.74192   0.00000  Uiso   1.00
C779   C     0.22545   0.52284   0.58151   0.00000  Uiso   1.00
C780   C     0.11700   0.85614   0.21528   0.00000  Uiso   1.00
C781   C     0.36529   0.66159   0.75807   0.00000  Uiso   1.00
C782   C     0.10611   0.86698   0.28473   0.00000  Uiso   1.00
C783   C     0.33838   0.86526   0.75789   0.00000  Uiso   1.00
C784   C     0.13301   0.60613   0.28473   0.00000  Uiso   1.00
C785   C     0.13471   0.83840   0.75804   0.00000  Uiso   1.00
C786   C     0.39387   0.63299   0.28472   0.00000  Uiso   1.00
C787   C     0.13286   0.60597   0.71533   0.00000  Uiso   1.00
C788   C     0.36696   0.89384   0.28473   0.00000  Uiso   1.00
C789   C     0.39385   0.86697   0.28472   0.00000  Uiso   1.00
C790   C     0.27052   0.52691   0.91819   0.00000  Uiso   1.00
C791   C     0.10596   0.63284   0.71535   0.00000  Uiso   1.00
C792   C     0.36700   0.60609   0.28471   0.00000  Uiso   1.00
C793   C     0.16159   0.86529   0.75805   0.00000  Uiso   1.00
C794   C     0.10611   0.63301   0.28472   0.00000  Uiso   1.00
C795   C     0.36527   0.83838   0.75790   0.00000  Uiso   1.00
C796   C     0.13300   0.89387   0.28472   0.00000  Uiso   1.00
C797   C     0.33841   0.63470   0.75807   0.00000  Uiso   1.00
C798   C     0.48148   0.72095   0.45883   0.00000  Uiso   1.00
C799   C     0.02197   0.77516   0.54074   0.00000  Uiso   1.00
C800   C     0.27129   0.97404   0.45903   0.00000  Uiso   1.00
H801   H     0.42487   0.65496   0.47757   0.00000  Uiso   1.00
H802   H     0.33730   0.55042   0.05681   0.00000  Uiso   1.00
H803   H     0.05028   0.66259   0.94318   0.00000  Uiso   1.00
H804   H     0.44985   0.83742   0.05689   0.00000  Uiso   1.00
H805   H     0.29888   0.59394   0.95116   0.00000  Uiso   1.00
H806   H     0.20095   0.90616   0.04882   0.00000  Uiso   1.00
H807   H     0.40625   0.79918   0.95129   0.00000  Uiso   1.00
H808   H     0.09384   0.70091   0.04881   0.00000  Uiso   1.00
H809   H     0.18576   0.90147   0.18569   0.00000  Uiso   1.00
H810   H     0.37429   0.53844   0.72463   0.00000  Uiso   1.00
H811   H     0.09853   0.68572   0.18566   0.00000  Uiso   1.00
H812   H     0.04285   0.84451   0.54988   0.00000  Uiso   1.00
H813   H     0.46162   0.87439   0.72485   0.00000  Uiso   1.00
H814   H     0.31432   0.59850   0.18565   0.00000  Uiso   1.00
H815   H     0.12572   0.96157   0.72465   0.00000  Uiso   1.00
H816   H     0.40154   0.81433   0.18564   0.00000  Uiso   1.00
H817   H     0.09866   0.68595   0.81419   0.00000  Uiso   1.00
H818   H     0.18603   0.59880   0.81410   0.00000  Uiso   1.00
H819   H     0.31425   0.90141   0.18572   0.00000  Uiso   1.00
H820   H     0.03847   0.87429   0.72458   0.00000  Uiso   1.00
H821   H     0.40139   0.68584   0.18575   0.00000  Uiso   1.00
H822   H     0.37436   0.96159   0.72476   0.00000  Uiso   1.00
H823   H     0.28957   0.90854   0.44092   0.00000  Uiso   1.00
H824   H     0.18581   0.59863   0.18573   0.00000  Uiso   1.00
H825   H     0.46154   0.62573   0.72455   0.00000  Uiso   1.00
H826   H     0.09861   0.81424   0.18572   0.00000  Uiso   1.00
H827   H     0.37571   0.71156   0.77538   0.00000  Uiso   1.00
H828   H     0.06426   0.84849   0.31434   0.00000  Uiso   1.00
H829   H     0.28838   0.87561   0.77515   0.00000  Uiso   1.00
H830   H     0.15150   0.56430   0.31436   0.00000  Uiso   1.00
H831   H     0.12428   0.78843   0.77535   0.00000  Uiso   1.00
H832   H     0.43571   0.65146   0.31432   0.00000  Uiso   1.00
H833   H     0.15133   0.56405   0.68582   0.00000  Uiso   1.00
H834   H     0.21027   0.59145   0.55901   0.00000  Uiso   1.00
H835   H     0.34847   0.93568   0.31435   0.00000  Uiso   1.00
H836   H     0.43576   0.84859   0.31427   0.00000  Uiso   1.00
H837   H     0.06397   0.65120   0.68590   0.00000  Uiso   1.00
H838   H     0.34861   0.56416   0.31425   0.00000  Uiso   1.00
H839   H     0.21154   0.87571   0.77541   0.00000  Uiso   1.00
H840   H     0.06419   0.65138   0.31427   0.00000  Uiso   1.00
H841   H     0.37564   0.78841   0.77525   0.00000  Uiso   1.00
H842   H     0.15139   0.93576   0.31428   0.00000  Uiso   1.00
H843   H     0.28846   0.62427   0.77545   0.00000  Uiso   1.00
H844   H     0.02025   0.81117   0.37483   0.00000  Uiso   1.00
H845   H     0.08397   0.80585   0.44219   0.00000  Uiso   1.00
H846   H     0.46992   0.69132   0.62616   0.00000  Uiso   1.00
H847   H     0.19103   0.52821   0.37547   0.00000  Uiso   1.00
H848   H     0.30893   0.97181   0.62442   0.00000  Uiso   1.00
H849   H     0.47705   0.68888   0.37267   0.00000  Uiso   1.00
H850   H     0.02845   0.80891   0.62509   0.00000  Uiso   1.00
H851   H     0.30893   0.97178   0.37551   0.00000  Uiso   1.00
H852   H     0.19106   0.52830   0.62455   0.00000  Uiso   1.00
H853   H     0.27813   0.55946   0.87415   0.00000  Uiso   1.00
H854   H     0.22187   0.94055   0.12584   0.00000  Uiso   1.00
H855   H     0.44060   0.77820   0.87425   0.00000  Uiso   1.00
H856   H     0.46893   0.65232   0.55479   0.00000  Uiso   1.00
H857   H     0.05942   0.72176   0.12582   0.00000  Uiso   1.00
H858   H     0.22545   0.94009   0.87499   0.00000  Uiso   1.00
H859   H     0.27457   0.55993   0.12509   0.00000  Uiso   1.00
H860   H     0.05989   0.72529   0.87488   0.00000  Uiso   1.00
H861   H     0.44011   0.77462   0.12507   0.00000  Uiso   1.00
H862   H     0.21025   0.59142   0.44091   0.00000  Uiso   1.00
H863   H     0.28953   0.90854   0.55909   0.00000  Uiso   1.00
H864   H     0.16264   0.94974   0.94319   0.00000  Uiso   1.00
O865   O     0.25000   0.50000   0.25000   0.00000  Uiso   1.00
O866   O     0.25000   0.96964   0.66245   0.00000  Uiso   1.00
O867   O     0.30325   0.64556   0.76741   0.00000  Uiso   1.00
O868   O     0.03347   0.80692   0.39944   0.00000  Uiso   1.00
O869   O     0.45786   0.69855   0.60163   0.00000  Uiso   1.00
O870   O     0.19747   0.54116   0.39971   0.00000  Uiso   1.00
O871   O     0.30243   0.95883   0.60022   0.00000  Uiso   1.00
O872   O     0.46482   0.69299   0.39788   0.00000  Uiso   1.00
O873   O     0.04177   0.80129   0.60145   0.00000  Uiso   1.00
O874   O     0.30245   0.95882   0.39974   0.00000  Uiso   1.00
O875   O     0.19750   0.54122   0.60028   0.00000  Uiso   1.00
O876   O     0.29104   0.55251   0.89828   0.00000  Uiso   1.00
O877   O     0.46964   0.75000   0.33755   0.00000  Uiso   1.00
O878   O     0.20894   0.94753   0.10174   0.00000  Uiso   1.00
O879   O     0.44763   0.79114   0.89833   0.00000  Uiso   1.00
O880   O     0.05243   0.70885   0.10171   0.00000  Uiso   1.00
O881   O     0.21207   0.94567   0.89922   0.00000  Uiso   1.00
O882   O     0.28791   0.55438   0.10084   0.00000  Uiso   1.00
O883   O     0.05432   0.71197   0.89914   0.00000  Uiso   1.00
O884   O     0.44572   0.78799   0.10085   0.00000  Uiso   1.00
O885   O     0.03037   0.75000   0.66245   0.00000  Uiso   1.00
O886   O     0.00000   0.71964   0.83755   0.00000  Uiso   1.00
O887   O     0.00000   0.78037   0.16245   0.00000  Uiso   1.00
O888   O     0.28037   0.50000   0.83755   0.00000  Uiso   1.00
O889   O     0.21964   0.50000   0.16245   0.00000  Uiso   1.00
O890   O     0.00000   0.78037   0.83755   0.00000  Uiso   1.00
O891   O     0.00000   0.71964   0.16245   0.00000  Uiso   1.00
O892   O     0.21964   0.50000   0.83755   0.00000  Uiso   1.00
O893   O     0.25000   0.50000   0.75000   0.00000  Uiso   1.00
O894   O     0.28037   0.50000   0.16245   0.00000  Uiso   1.00
O895   O     0.20725   0.57308   0.27302   0.00000  Uiso   1.00
O896   O     0.29276   0.92693   0.72698   0.00000  Uiso   1.00
O897   O     0.42693   0.70725   0.27302   0.00000  Uiso   1.00
O898   O     0.07308   0.79276   0.72698   0.00000  Uiso   1.00
O899   O     0.29276   0.92693   0.27302   0.00000  Uiso   1.00
O900   O     0.20725   0.57308   0.72698   0.00000  Uiso   1.00
O901   O     0.07308   0.79276   0.27302   0.00000  Uiso   1.00
O902   O     0.42693   0.70725   0.72698   0.00000  Uiso   1.00
O903   O     0.20725   0.92693   0.72698   0.00000  Uiso   1.00
O904   O     0.00000   0.75000   0.25000   0.00000  Uiso   1.00
O905   O     0.29276   0.57308   0.27302   0.00000  Uiso   1.00
O906   O     0.42693   0.79276   0.72698   0.00000  Uiso   1.00
O907   O     0.07308   0.70725   0.27302   0.00000  Uiso   1.00
O908   O     0.29276   0.57308   0.72698   0.00000  Uiso   1.00
O909   O     0.20725   0.92693   0.27302   0.00000  Uiso   1.00
O910   O     0.07308   0.70725   0.72698   0.00000  Uiso   1.00
O911   O     0.42693   0.79276   0.27302   0.00000  Uiso   1.00
O912   O     0.45725   0.82308   0.77302   0.00000  Uiso   1.00
O913   O     0.04276   0.67693   0.22698   0.00000  Uiso   1.00
O914   O     0.17693   0.95725   0.77302   0.00000  Uiso   1.00
O915   O     0.00000   0.75000   0.75000   0.00000  Uiso   1.00
O916   O     0.32308   0.54276   0.22698   0.00000  Uiso   1.00
O917   O     0.04276   0.67693   0.77302   0.00000  Uiso   1.00
O918   O     0.45725   0.82308   0.22698   0.00000  Uiso   1.00
O919   O     0.32308   0.54276   0.77302   0.00000  Uiso   1.00
O920   O     0.17693   0.95725   0.22698   0.00000  Uiso   1.00
O921   O     0.45725   0.67693   0.22698   0.00000  Uiso   1.00
O922   O     0.04276   0.82308   0.77302   0.00000  Uiso   1.00
O923   O     0.17693   0.54276   0.22698   0.00000  Uiso   1.00
O924   O     0.32308   0.95725   0.77302   0.00000  Uiso   1.00
O925   O     0.04276   0.82308   0.22698   0.00000  Uiso   1.00
O926   O     0.25000   0.96964   0.33755   0.00000  Uiso   1.00
O927   O     0.45725   0.67693   0.77302   0.00000  Uiso   1.00
O928   O     0.32308   0.95725   0.22698   0.00000  Uiso   1.00
O929   O     0.17693   0.54276   0.77302   0.00000  Uiso   1.00
O930   O     0.44084   0.66873   0.45960   0.00000  Uiso   1.00
O931   O     0.06158   0.82901   0.53716   0.00000  Uiso   1.00
O932   O     0.30629   0.91696   0.46168   0.00000  Uiso   1.00
O933   O     0.19352   0.58298   0.53830   0.00000  Uiso   1.00
O934   O     0.07083   0.82086   0.46165   0.00000  Uiso   1.00
O935   O     0.44911   0.66293   0.53873   0.00000  Uiso   1.00
O936   O     0.19351   0.58296   0.46166   0.00000  Uiso   1.00
O937   O     0.25000   0.53037   0.66245   0.00000  Uiso   1.00
O938   O     0.30626   0.91696   0.53832   0.00000  Uiso   1.00
O939   O     0.17488   0.93339   0.96209   0.00000  Uiso   1.00
O940   O     0.32501   0.56676   0.03794   0.00000  Uiso   1.00
O941   O     0.06664   0.67485   0.96203   0.00000  Uiso   1.00
O942   O     0.43350   0.82520   0.03799   0.00000  Uiso   1.00
O943   O     0.31610   0.57593   0.96248   0.00000  Uiso   1.00
O944   O     0.18376   0.92423   0.03756   0.00000  Uiso   1.00
O945   O     0.42435   0.81635   0.96253   0.00000  Uiso   1.00
O946   O     0.07580   0.68372   0.03750   0.00000  Uiso   1.00
O947   O     0.16231   0.88891   0.18077   0.00000  Uiso   1.00
O948   O     0.03037   0.75000   0.33755   0.00000  Uiso   1.00
O949   O     0.39557   0.55324   0.73263   0.00000  Uiso   1.00
O950   O     0.11111   0.66228   0.18075   0.00000  Uiso   1.00
O951   O     0.44682   0.89564   0.73298   0.00000  Uiso   1.00
O952   O     0.33774   0.61113   0.18076   0.00000  Uiso   1.00
O953   O     0.10443   0.94677   0.73267   0.00000  Uiso   1.00
O954   O     0.38896   0.83777   0.18074   0.00000  Uiso   1.00
O955   O     0.11141   0.66260   0.81912   0.00000  Uiso   1.00
O956   O     0.16264   0.61144   0.81908   0.00000  Uiso   1.00
O957   O     0.33773   0.88893   0.18078   0.00000  Uiso   1.00
O958   O     0.05325   0.89557   0.73265   0.00000  Uiso   1.00
O959   O     0.46964   0.75000   0.66245   0.00000  Uiso   1.00
O960   O     0.38888   0.66237   0.18080   0.00000  Uiso   1.00
O961   O     0.39561   0.94682   0.73295   0.00000  Uiso   1.00
O962   O     0.16233   0.61112   0.18079   0.00000  Uiso   1.00
O963   O     0.44675   0.60444   0.73259   0.00000  Uiso   1.00
O964   O     0.11114   0.83771   0.18078   0.00000  Uiso   1.00
O965   O     0.35443   0.69676   0.76738   0.00000  Uiso   1.00
O966   O     0.08769   0.86108   0.31924   0.00000  Uiso   1.00
O967   O     0.30318   0.85436   0.76702   0.00000  Uiso   1.00
O968   O     0.13890   0.58773   0.31925   0.00000  Uiso   1.00
O969   O     0.14557   0.80323   0.76733   0.00000  Uiso   1.00
O970   O     0.25000   0.53037   0.33755   0.00000  Uiso   1.00
O971   O     0.41228   0.63886   0.31923   0.00000  Uiso   1.00
O972   O     0.13860   0.58740   0.68089   0.00000  Uiso   1.00
O973   O     0.36104   0.91223   0.31925   0.00000  Uiso   1.00
O974   O     0.41227   0.86107   0.31922   0.00000  Uiso   1.00
O975   O     0.08737   0.63856   0.68092   0.00000  Uiso   1.00
O976   O     0.36112   0.58763   0.31920   0.00000  Uiso   1.00
O977   O     0.19676   0.85443   0.76735   0.00000  Uiso   1.00
O978   O     0.08767   0.63888   0.31922   0.00000  Uiso   1.00
O979   O     0.35439   0.80318   0.76706   0.00000  Uiso   1.00
O980   O     0.13886   0.91229   0.31922   0.00000  Uiso   1.00
Zn981  Zn    0.20660   0.50000   0.21735   0.00000  Uiso   1.00
Zn982  Zn    0.04341   0.75000   0.28265   0.00000  Uiso   1.00
Zn983  Zn    0.25000   0.95660   0.71735   0.00000  Uiso   1.00
Zn984  Zn    0.25000   0.54341   0.28265   0.00000  Uiso   1.00
Zn985  Zn    0.04341   0.75000   0.71735   0.00000  Uiso   1.00
Zn986  Zn    0.45660   0.75000   0.28265   0.00000  Uiso   1.00
Zn987  Zn    0.25000   0.54341   0.71735   0.00000  Uiso   1.00
Zn988  Zn    0.25000   0.95660   0.28265   0.00000  Uiso   1.00
Zn989  Zn    0.29341   0.50000   0.78265   0.00000  Uiso   1.00
Zn990  Zn    0.00000   0.70660   0.21735   0.00000  Uiso   1.00
Zn991  Zn    0.00000   0.79341   0.78265   0.00000  Uiso   1.00
Zn992  Zn    0.29341   0.50000   0.21735   0.00000  Uiso   1.00
Zn993  Zn    0.20660   0.50000   0.78265   0.00000  Uiso   1.00
Zn994  Zn    0.00000   0.79341   0.21735   0.00000  Uiso   1.00
Zn995  Zn    0.00000   0.70660   0.78265   0.00000  Uiso   1.00
Zn996  Zn    0.45660   0.75000   0.71735   0.00000  Uiso   1.00
C997   C     0.51964   0.77643   0.41823   0.00000  Uiso   1.00
C998   C     0.72945   0.97315   0.08183   0.00000  Uiso   1.00
C999   C     0.72857   0.52593   0.54095   0.00000  Uiso   1.00
C1000  C     0.52328   0.77373   0.45875   0.00000  Uiso   1.00
C1001  C     0.98193   0.72098   0.54099   0.00000  Uiso   1.00
C1002  C     0.72856   0.52592   0.45903   0.00000  Uiso   1.00
C1003  C     0.77128   0.97405   0.54095   0.00000  Uiso   1.00
C1004  C     0.72594   0.97669   0.95894   0.00000  Uiso   1.00
C1005  C     0.77400   0.52341   0.04109   0.00000  Uiso   1.00
C1006  C     0.52338   0.72595   0.95892   0.00000  Uiso   1.00
C1007  C     0.97672   0.77407   0.04110   0.00000  Uiso   1.00
C1008  C     0.77155   0.52621   0.95909   0.00000  Uiso   1.00
C1009  C     0.97321   0.77059   0.91821   0.00000  Uiso   1.00
C1010  C     0.72838   0.97389   0.04094   0.00000  Uiso   1.00
C1011  C     0.97394   0.77165   0.95911   0.00000  Uiso   1.00
C1012  C     0.52616   0.72838   0.04092   0.00000  Uiso   1.00
C1013  C     0.59801   0.84802   0.25000   0.00000  Uiso   1.00
C1014  C     0.90199   0.65199   0.75001   0.00000  Uiso   1.00
C1015  C     0.65199   0.59802   0.25001   0.00000  Uiso   1.00
C1016  C     0.84801   0.90198   0.74999   0.00000  Uiso   1.00
C1017  C     0.90198   0.65200   0.25001   0.00000  Uiso   1.00
C1018  C     0.59802   0.84801   0.74999   0.00000  Uiso   1.00
C1019  C     0.84801   0.90198   0.25001   0.00000  Uiso   1.00
C1020  C     0.52687   0.72942   0.08182   0.00000  Uiso   1.00
C1021  C     0.65199   0.59802   0.74999   0.00000  Uiso   1.00
C1022  C     0.59801   0.65198   0.75001   0.00000  Uiso   1.00
C1023  C     0.90199   0.84802   0.24999   0.00000  Uiso   1.00
C1024  C     0.65198   0.90199   0.75001   0.00000  Uiso   1.00
C1025  C     0.84802   0.59800   0.24999   0.00000  Uiso   1.00
C1026  C     0.90199   0.84802   0.75001   0.00000  Uiso   1.00
C1027  C     0.59801   0.65198   0.24999   0.00000  Uiso   1.00
C1028  C     0.84801   0.59801   0.74999   0.00000  Uiso   1.00
C1029  C     0.65199   0.90198   0.25000   0.00000  Uiso   1.00
C1030  C     0.50237   0.74739   0.47931   0.00000  Uiso   1.00
C1031  C     0.72852   0.97465   0.91828   0.00000  Uiso   1.00
C1032  C     0.50214   0.74779   0.52039   0.00000  Uiso   1.00
C1033  C     0.74992   0.99998   0.47951   0.00000  Uiso   1.00
C1034  C     0.74992   0.99999   0.52047   0.00000  Uiso   1.00
C1035  C     0.74941   0.50071   0.97949   0.00000  Uiso   1.00
C1036  C     0.75053   0.99938   0.02054   0.00000  Uiso   1.00
C1037  C     0.99939   0.74946   0.97948   0.00000  Uiso   1.00
C1038  C     0.50071   0.75057   0.02054   0.00000  Uiso   1.00
C1039  C     0.77145   0.52542   0.08175   0.00000  Uiso   1.00
C1040  C     0.52539   0.72849   0.91825   0.00000  Uiso   1.00
C1041  C     0.97467   0.77150   0.08176   0.00000  Uiso   1.00
C1042  C     0.50027   0.74923   0.39796   0.00000  Uiso   1.00
C1043  C     0.50024   0.74958   0.60184   0.00000  Uiso   1.00
C1044  C     0.74997   0.99999   0.39818   0.00000  Uiso   1.00
C1045  C     0.98024   0.72263   0.58183   0.00000  Uiso   1.00
C1046  C     0.74996   0.50001   0.60180   0.00000  Uiso   1.00
C1047  C     0.74973   0.50056   0.89810   0.00000  Uiso   1.00
C1048  C     0.75025   0.99948   0.10192   0.00000  Uiso   1.00
C1049  C     0.99950   0.74975   0.89809   0.00000  Uiso   1.00
C1050  C     0.50056   0.75025   0.10192   0.00000  Uiso   1.00
C1051  C     0.96152   0.69421   0.47960   0.00000  Uiso   1.00
C1052  C     0.54277   0.80103   0.51955   0.00000  Uiso   1.00
C1053  C     0.78989   0.94628   0.47980   0.00000  Uiso   1.00
C1054  C     0.70994   0.55367   0.52018   0.00000  Uiso   1.00
C1055  C     0.54568   0.79842   0.47951   0.00000  Uiso   1.00
C1056  C     0.72544   0.52280   0.41848   0.00000  Uiso   1.00
C1057  C     0.96374   0.69293   0.52023   0.00000  Uiso   1.00
C1058  C     0.70993   0.55366   0.47979   0.00000  Uiso   1.00
C1059  C     0.78988   0.94628   0.52019   0.00000  Uiso   1.00
C1060  C     0.70205   0.95345   0.97979   0.00000  Uiso   1.00
C1061  C     0.79787   0.54668   0.02023   0.00000  Uiso   1.00
C1062  C     0.54660   0.70203   0.97975   0.00000  Uiso   1.00
C1063  C     0.95352   0.79801   0.02027   0.00000  Uiso   1.00
C1064  C     0.79472   0.54996   0.98023   0.00000  Uiso   1.00
C1065  C     0.70519   0.95016   0.01979   0.00000  Uiso   1.00
C1066  C     0.95024   0.79488   0.98027   0.00000  Uiso   1.00
C1067  C     0.77445   0.97718   0.58148   0.00000  Uiso   1.00
C1068  C     0.54988   0.70517   0.01975   0.00000  Uiso   1.00
C1069  C     0.74999   0.50000   0.35582   0.00000  Uiso   1.00
C1070  C     0.74998   0.50001   0.64417   0.00000  Uiso   1.00
C1071  C     0.50001   0.74991   0.35573   0.00000  Uiso   1.00
C1072  C     0.50002   0.74996   0.64419   0.00000  Uiso   1.00
C1073  C     0.99987   0.74998   0.85578   0.00000  Uiso   1.00
C1074  C     0.50015   0.75002   0.14422   0.00000  Uiso   1.00
C1075  C     0.74998   0.50015   0.85578   0.00000  Uiso   1.00
C1076  C     0.75002   0.99986   0.14423   0.00000  Uiso   1.00
C1077  C     0.68003   0.56996   0.25001   0.00000  Uiso   1.00
C1078  C     0.98207   0.72092   0.41786   0.00000  Uiso   1.00
C1079  C     0.81996   0.93004   0.75000   0.00000  Uiso   1.00
C1080  C     0.93003   0.68003   0.25001   0.00000  Uiso   1.00
C1081  C     0.56997   0.81997   0.74999   0.00000  Uiso   1.00
C1082  C     0.81997   0.93003   0.25001   0.00000  Uiso   1.00
C1083  C     0.68003   0.56997   0.74999   0.00000  Uiso   1.00
C1084  C     0.56996   0.81997   0.25000   0.00000  Uiso   1.00
C1085  C     0.93004   0.68003   0.75000   0.00000  Uiso   1.00
C1086  C     0.68003   0.93004   0.75001   0.00000  Uiso   1.00
C1087  C     0.81997   0.56997   0.24999   0.00000  Uiso   1.00
C1088  C     0.93004   0.81996   0.75000   0.00000  Uiso   1.00
C1089  C     0.52125   0.77564   0.58163   0.00000  Uiso   1.00
C1090  C     0.56996   0.68004   0.24999   0.00000  Uiso   1.00
C1091  C     0.81996   0.56997   0.75000   0.00000  Uiso   1.00
C1092  C     0.68004   0.93003   0.25000   0.00000  Uiso   1.00
C1093  C     0.56997   0.68004   0.75001   0.00000  Uiso   1.00
C1094  C     0.93003   0.81996   0.24999   0.00000  Uiso   1.00
C1095  C     0.64389   0.88302   0.21528   0.00000  Uiso   1.00
C1096  C     0.88471   0.58841   0.74193   0.00000  Uiso   1.00
C1097  C     0.61699   0.64387   0.21527   0.00000  Uiso   1.00
C1098  C     0.91162   0.88474   0.74212   0.00000  Uiso   1.00
C1099  C     0.85614   0.61700   0.21527   0.00000  Uiso   1.00
C1100  C     0.77447   0.97717   0.41849   0.00000  Uiso   1.00
C1101  C     0.61529   0.91160   0.74196   0.00000  Uiso   1.00
C1102  C     0.88304   0.85615   0.21527   0.00000  Uiso   1.00
C1103  C     0.61715   0.64404   0.78467   0.00000  Uiso   1.00
C1104  C     0.64404   0.61716   0.78465   0.00000  Uiso   1.00
C1105  C     0.85615   0.88303   0.21528   0.00000  Uiso   1.00
C1106  C     0.58841   0.88471   0.74194   0.00000  Uiso   1.00
C1107  C     0.88301   0.64390   0.21529   0.00000  Uiso   1.00
C1108  C     0.88473   0.91162   0.74210   0.00000  Uiso   1.00
C1109  C     0.64389   0.61700   0.21529   0.00000  Uiso   1.00
C1110  C     0.91159   0.61530   0.74192   0.00000  Uiso   1.00
C1111  C     0.72545   0.52284   0.58151   0.00000  Uiso   1.00
C1112  C     0.61700   0.85614   0.21528   0.00000  Uiso   1.00
C1113  C     0.86529   0.66159   0.75807   0.00000  Uiso   1.00
C1114  C     0.60611   0.86698   0.28473   0.00000  Uiso   1.00
C1115  C     0.83838   0.86526   0.75789   0.00000  Uiso   1.00
C1116  C     0.63301   0.60613   0.28473   0.00000  Uiso   1.00
C1117  C     0.63471   0.83840   0.75804   0.00000  Uiso   1.00
C1118  C     0.89387   0.63299   0.28472   0.00000  Uiso   1.00
C1119  C     0.63286   0.60597   0.71533   0.00000  Uiso   1.00
C1120  C     0.86696   0.89384   0.28473   0.00000  Uiso   1.00
C1121  C     0.89385   0.86697   0.28472   0.00000  Uiso   1.00
C1122  C     0.77052   0.52691   0.91819   0.00000  Uiso   1.00
C1123  C     0.60596   0.63284   0.71535   0.00000  Uiso   1.00
C1124  C     0.86700   0.60609   0.28471   0.00000  Uiso   1.00
C1125  C     0.66159   0.86529   0.75805   0.00000  Uiso   1.00
C1126  C     0.60611   0.63301   0.28472   0.00000  Uiso   1.00
C1127  C     0.86527   0.83838   0.75790   0.00000  Uiso   1.00
C1128  C     0.63300   0.89387   0.28472   0.00000  Uiso   1.00
C1129  C     0.83841   0.63470   0.75807   0.00000  Uiso   1.00
C1130  C     0.98148   0.72095   0.45883   0.00000  Uiso   1.00
C1131  C     0.52197   0.77516   0.54074   0.00000  Uiso   1.00
C1132  C     0.77129   0.97404   0.45903   0.00000  Uiso   1.00
H1133  H     0.92487   0.65496   0.47757   0.00000  Uiso   1.00
H1134  H     0.83730   0.55042   0.05681   0.00000  Uiso   1.00
H1135  H     0.55028   0.66259   0.94318   0.00000  Uiso   1.00
H1136  H     0.94985   0.83742   0.05689   0.00000  Uiso   1.00
H1137  H     0.79888   0.59394   0.95116   0.00000  Uiso   1.00
H1138  H     0.70095   0.90616   0.04882   0.00000  Uiso   1.00
H1139  H     0.90625   0.79918   0.95129   0.00000  Uiso   1.00
H1140  H     0.59384   0.70091   0.04881   0.00000  Uiso   1.00
H1141  H     0.68576   0.90147   0.18569   0.00000  Uiso   1.00
H1142  H     0.87429   0.53844   0.72463   0.00000  Uiso   1.00
H1143  H     0.59853   0.68572   0.18566   0.00000  Uiso   1.00
H1144  H     0.54285   0.84451   0.54988   0.00000  Uiso   1.00
H1145  H     0.96162   0.87439   0.72485   0.00000  Uiso   1.00
H1146  H     0.81432   0.59850   0.18565   0.00000  Uiso   1.00
H1147  H     0.62572   0.96157   0.72465   0.00000  Uiso   1.00
H1148  H     0.90154   0.81433   0.18564   0.00000  Uiso   1.00
H1149  H     0.59866   0.68595   0.81419   0.00000  Uiso   1.00
H1150  H     0.68603   0.59880   0.81410   0.00000  Uiso   1.00
H1151  H     0.81425   0.90141   0.18572   0.00000  Uiso   1.00
H1152  H     0.53847   0.87429   0.72458   0.00000  Uiso   1.00
H1153  H     0.90139   0.68584   0.18575   0.00000  Uiso   1.00
H1154  H     0.87436   0.96159   0.72476   0.00000  Uiso   1.00
H1155  H     0.78957   0.90854   0.44092   0.00000  Uiso   1.00
H1156  H     0.68581   0.59863   0.18573   0.00000  Uiso   1.00
H1157  H     0.96154   0.62573   0.72455   0.00000  Uiso   1.00
H1158  H     0.59861   0.81424   0.18572   0.00000  Uiso   1.00
H1159  H     0.87571   0.71156   0.77538   0.00000  Uiso   1.00
H1160  H     0.56426   0.84849   0.31434   0.00000  Uiso   1.00
H1161  H     0.78838   0.87561   0.77515   0.00000  Uiso   1.00
H1162  H     0.65150   0.56430   0.31436   0.00000  Uiso   1.00
H1163  H     0.62428   0.78843   0.77535   0.00000  Uiso   1.00
H1164  H     0.93571   0.65146   0.31432   0.00000  Uiso   1.00
H1165  H     0.65133   0.56405   0.68582   0.00000  Uiso   1.00
H1166  H     0.71027   0.59145   0.55901   0.00000  Uiso   1.00
H1167  H     0.84847   0.93568   0.31435   0.00000  Uiso   1.00
H1168  H     0.93576   0.84859   0.31427   0.00000  Uiso   1.00
H1169  H     0.56397   0.65120   0.68590   0.00000  Uiso   1.00
H1170  H     0.84861   0.56416   0.31425   0.00000  Uiso   1.00
H1171  H     0.71154   0.87571   0.77541   0.00000  Uiso   1.00
H1172  H     0.56419   0.65138   0.31427   0.00000  Uiso   1.00
H1173  H     0.87564   0.78841   0.77525   0.00000  Uiso   1.00
H1174  H     0.65139   0.93576   0.31428   0.00000  Uiso   1.00
H1175  H     0.78846   0.62427   0.77545   0.00000  Uiso   1.00
H1176  H     0.52025   0.81117   0.37483   0.00000  Uiso   1.00
H1177  H     0.58397   0.80585   0.44219   0.00000  Uiso   1.00
H1178  H     0.96992   0.69132   0.62616   0.00000  Uiso   1.00
H1179  H     0.69103   0.52821   0.37547   0.00000  Uiso   1.00
H1180  H     0.80893   0.97181   0.62442   0.00000  Uiso   1.00
H1181  H     0.97705   0.68888   0.37267   0.00000  Uiso   1.00
H1182  H     0.52845   0.80891   0.62509   0.00000  Uiso   1.00
H1183  H     0.80893   0.97178   0.37551   0.00000  Uiso   1.00
H1184  H     0.69106   0.52830   0.62455   0.00000  Uiso   1.00
H1185  H     0.77813   0.55946   0.87415   0.00000  Uiso   1.00
H1186  H     0.72187   0.94055   0.12584   0.00000  Uiso   1.00
H1187  H     0.94060   0.77820   0.87425   0.00000  Uiso   1.00
H1188  H     0.96893   0.65232   0.55479   0.00000  Uiso   1.00
H1189  H     0.55942   0.72176   0.12582   0.00000  Uiso   1.00
H1190  H     0.72545   0.94009   0.87499   0.00000  Uiso   1.00
H1191  H     0.77457   0.55993   0.12509   0.00000  Uiso   1.00
H1192  H     0.55989   0.72529   0.87488   0.00000  Uiso   1.00
H1193  H     0.94011   0.77462   0.12507   0.00000  Uiso   1.00
H1194  H     0.71025   0.59142   0.44091   0.00000  Uiso   1.00
H1195  H     0.78953   0.90854   0.55909   0.00000  Uiso   1.00
H1196  H     0.66264   0.94974   0.94319   0.00000  Uiso   1.00
O1197  O     0.75000   0.50000   0.25000   0.00000  Uiso   1.00
O1198  O     0.75000   0.96964   0.66245   0.00000  Uiso   1.00
O1199  O     0.80325   0.64556   0.76741   0.00000  Uiso   1.00
O1200  O     0.53347   0.80692   0.39944   0.00000  Uiso   1.00
O1201  O     0.95786   0.69855   0.60163   0.00000  Uiso   1.00
O1202  O     0.69747   0.54116   0.39971   0.00000  Uiso   1.00
O1203  O     0.80243   0.95883   0.60022   0.00000  Uiso   1.00
O1204  O     0.96482   0.69299   0.39788   0.00000  Uiso   1.00
O1205  O     0.54177   0.80129   0.60145   0.00000  Uiso   1.00
O1206  O     0.80245   0.95882   0.39974   0.00000  Uiso   1.00
O1207  O     0.69750   0.54122   0.60028   0.00000  Uiso   1.00
O1208  O     0.79104   0.55251   0.89828   0.00000  Uiso   1.00
O1209  O     0.96964   0.75000   0.33755   0.00000  Uiso   1.00
O1210  O     0.70894   0.94753   0.10174   0.00000  Uiso   1.00
O1211  O     0.94763   0.79114   0.89833   0.00000  Uiso   1.00
O1212  O     0.55243   0.70885   0.10171   0.00000  Uiso   1.00
O1213  O     0.71207   0.94567   0.89922   0.00000  Uiso   1.00
O1214  O     0.78791   0.55438   0.10084   0.00000  Uiso   1.00
O1215  O     0.55432   0.71197   0.89914   0.00000  Uiso   1.00
O1216  O     0.94572   0.78799   0.10085   0.00000  Uiso   1.00
O1217  O     0.53037   0.75000   0.66245   0.00000  Uiso   1.00
O1218  O     0.50000   0.71964   0.83755   0.00000  Uiso   1.00
O1219  O     0.50000   0.78037   0.16245   0.00000  Uiso   1.00
O1220  O     0.78037   0.50000   0.83755   0.00000  Uiso   1.00
O1221  O     0.71964   0.50000   0.16245   0.00000  Uiso   1.00
O1222  O     0.50000   0.78037   0.83755   0.00000  Uiso   1.00
O1223  O     0.50000   0.71964   0.16245   0.00000  Uiso   1.00
O1224  O     0.71964   0.50000   0.83755   0.00000  Uiso   1.00
O1225  O     0.75000   0.50000   0.75000   0.00000  Uiso   1.00
O1226  O     0.78037   0.50000   0.16245   0.00000  Uiso   1.00
O1227  O     0.70725   0.57308   0.27302   0.00000  Uiso   1.00
O1228  O     0.79276   0.92693   0.72698   0.00000  Uiso   1.00
O1229  O     0.92693   0.70725   0.27302   0.00000  Uiso   1.00
O1230  O     0.57308   0.79276   0.72698   0.00000  Uiso   1.00
O1231  O     0.79276   0.92693   0.27302   0.00000  Uiso   1.00
O1232  O     0.70725   0.57308   0.72698   0.00000  Uiso   1.00
O1233  O     0.57308   0.79276   0.27302   0.00000  Uiso   1.00
O1234  O     0.92693   0.70725   0.72698   0.00000  Uiso   1.00
O1235  O     0.70725   0.92693   0.72698   0.00000  Uiso   1.00
O1236  O     0.50000   0.75000   0.25000   0.00000  Uiso   1.00
O1237  O     0.79276   0.57308   0.27302   0.00000  Uiso   1.00
O1238  O     0.92693   0.79276   0.72698   0.00000  Uiso   1.00
O1239  O     0.57308   0.70725   0.27302   0.00000  Uiso   1.00
O1240  O     0.79276   0.57308   0.72698   0.00000  Uiso   1.00
O1241  O     0.70725   0.92693   0.27302   0.00000  Uiso   1.00
O1242  O     0.57308   0.70725   0.72698   0.00000  Uiso   1.00
O1243  O     0.92693   0.79276   0.27302   0.00000  Uiso   1.00
O1244  O     0.95725   0.82308   0.77302   0.00000  Uiso   1.00
O1245  O     0.54276   0.67693   0.22698   0.00000  Uiso   1.00
O1246  O     0.67693   0.95725   0.77302   0.00000  Uiso   1.00
O1247  O     0.50000   0.75000   0.75000   0.00000  Uiso   1.00
O1248  O     0.82308   0.54276   0.22698   0.00000  Uiso   1.00
O1249  O     0.54276   0.67693   0.77302   0.00000  Uiso   1.00
O1250  O     0.95725   0.82308   0.22698   0.00000  Uiso   1.00
O1251  O     0.82308   0.54276   0.77302   0.00000  Uiso   1.00
O1252  O     0.67693   0.95725   0.22698   0.00000  Uiso   1.00
O1253  O     0.95725   0.67693   0.22698   0.00000  Uiso   1.00
O1254  O     0.54276   0.82308   0.77302   0.00000  Uiso   1.00
O1255  O     0.67693   0.54276   0.22698   0.00000  Uiso   1.00
O1256  O     0.82308   0.95725   0.77302   0.00000  Uiso   1.00
O1257  O     0.54276   0.82308   0.22698   0.00000  Uiso   1.00
O1258  O     0.75000   0.96964   0.33755   0.00000  Uiso   1.00
O1259  O     0.95725   0.67693   0.77302   0.00000  Uiso   1.00
O1260  O     0.82308   0.95725   0.22698   0.00000  Uiso   1.00
O1261  O     0.67693   0.54276   0.77302   0.00000  Uiso   1.00
O1262  O     0.94084   0.66873   0.45960   0.00000  Uiso   1.00
O1263  O     0.56158   0.82901   0.53716   0.00000  Uiso   1.00
O1264  O     0.80629   0.91696   0.46168   0.00000  Uiso   1.00
O1265  O     0.69352   0.58298   0.53830   0.00000  Uiso   1.00
O1266  O     0.57083   0.82086   0.46165   0.00000  Uiso   1.00
O1267  O     0.94911   0.66293   0.53873   0.00000  Uiso   1.00
O1268  O     0.69351   0.58296   0.46166   0.00000  Uiso   1.00
O1269  O     0.75000   0.53037   0.66245   0.00000  Uiso   1.00
O1270  O     0.80626   0.91696   0.53832   0.00000  Uiso   1.00
O1271  O     0.67488   0.93339   0.96209   0.00000  Uiso   1.00
O1272  O     0.82501   0.56676   0.03794   0.00000  Uiso   1.00
O1273  O     0.56664   0.67485   0.96203   0.00000  Uiso   1.00
O1274  O     0.93350   0.82520   0.03799   0.00000  Uiso   1.00
O1275  O     0.81610   0.57593   0.96248   0.00000  Uiso   1.00
O1276  O     0.68376   0.92423   0.03756   0.00000  Uiso   1.00
O1277  O     0.92435   0.81635   0.96253   0.00000  Uiso   1.00
O1278  O     0.57580   0.68372   0.03750   0.00000  Uiso   1.00
O1279  O     0.66231   0.88891   0.18077   0.00000  Uiso   1.00
O1280  O     0.53037   0.75000   0.33755   0.00000  Uiso   1.00
O1281  O     0.89557   0.55324   0.73263   0.00000  Uiso   1.00
O1282  O     0.61111   0.66228   0.18075   0.00000  Uiso   1.00
O1283  O     0.94682   0.89564   0.73298   0.00000  Uiso   1.00
O1284  O     0.83774   0.61113   0.18076   0.00000  Uiso   1.00
O1285  O     0.60443   0.94677   0.73267   0.00000  Uiso   1.00
O1286  O     0.88896   0.83777   0.18074   0.00000  Uiso   1.00
O1287  O     0.61141   0.66260   0.81912   0.00000  Uiso   1.00
O1288  O     0.66264   0.61144   0.81908   0.00000  Uiso   1.00
O1289  O     0.83773   0.88893   0.18078   0.00000  Uiso   1.00
O1290  O     0.55325   0.89557   0.73265   0.00000  Uiso   1.00
O1291  O     0.96964   0.75000   0.66245   0.00000  Uiso   1.00
O1292  O     0.88888   0.66237   0.18080   0.00000  Uiso   1.00
O1293  O     0.89561   0.94682   0.73295   0.00000  Uiso   1.00
O1294  O     0.66233   0.61112   0.18079   0.00000  Uiso   1.00
O1295  O     0.94675   0.60444   0.73259   0.00000  Uiso   1.00
O1296  O     0.61114   0.83771   0.18078   0.00000  Uiso   1.00
O1297  O     0.85443   0.69676   0.76738   0.00000  Uiso   1.00
O1298  O     0.58769   0.86108   0.31924   0.00000  Uiso   1.00
O1299  O     0.80318   0.85436   0.76702   0.00000  Uiso   1.00
O1300  O     0.63890   0.58773   0.31925   0.00000  Uiso   1.00
O1301  O     0.64557   0.80323   0.76733   0.00000  Uiso   1.00
O1302  O     0.75000   0.53037   0.33755   0.00000  Uiso   1.00
O1303  O     0.91228   0.63886   0.31923   0.00000  Uiso   1.00
O1304  O     0.63860   0.58740   0.68089   0.00000  Uiso   1.00
O1305  O     0.86104   0.91223   0.31925   0.00000  Uiso   1.00
O1306  O     0.91227   0.86107   0.31922   0.00000  Uiso   1.00
O1307  O     0.58737   0.63856   0.68092   0.00000  Uiso   1.00
O1308  O     0.86112   0.58763   0.31920   0.00000  Uiso   1.00
O1309  O     0.69676   0.85443   0.76735   0.00000  Uiso   1.00
O1310  O     0.58767   0.63888   0.31922   0.00000  Uiso   1.00
O1311  O     0.85439   0.80318   0.76706   0.00000  Uiso   1.00
O1312  O     0.63886   0.91229   0.31922   0.00000  Uiso   1.00
Zn1313 Zn    0.70660   0.50000   0.21735   0.00000  Uiso   1.00
Zn1314 Zn    0.54341   0.75000   0.28265   0.00000  Uiso   1.00
Zn1315 Zn    0.75000   0.95660   0.71735   0.00000  Uiso   1.00
Zn1316 Zn    0.75000   0.54341   0.28265   0.00000  Uiso   1.00
Zn1317 Zn    0.54341   0.75000   0.71735   0.00000  Uiso   1.00
Zn1318 Zn    0.95660   0.75000   0.28265   0.00000  Uiso   1.00
Zn1319 Zn    0.75000   0.54341   0.71735   0.00000  Uiso   1.00
Zn1320 Zn    0.75000   0.95660   0.28265   0.00000  Uiso   1.00
Zn1321 Zn    0.79341   0.50000   0.78265   0.00000  Uiso   1.00
Zn1322 Zn    0.50000   0.70660   0.21735   0.00000  Uiso   1.00
Zn1323 Zn    0.50000   0.79341   0.78265   0.00000  Uiso   1.00
Zn1324 Zn    0.79341   0.50000   0.21735   0.00000  Uiso   1.00
Zn1325 Zn    0.70660   0.50000   0.78265   0.00000  Uiso   1.00
Zn1326 Zn    0.50000   0.79341   0.21735   0.00000  Uiso   1.00
Zn1327 Zn    0.50000   0.70660   0.78265   0.00000  Uiso   1.00
Zn1328 Zn    0.95660   0.75000   0.71735   0.00000  Uiso   1.00
loop_
_geom_bond_atom_site_label_1
_geom_bond_atom_site_label_2
_geom_bond_distance
_geom_bond_site_symmetry_2
_ccdc_geom_bond_type
C1     C46     1.408   .     A
C1     O204    1.386   .     S
C1     C4      1.407   .     A
C2     C52     1.410   .     A
C2     O214    1.383   .     S
C2     C14     1.411   .     A
C3     C115    1.408   .     A
C3     C58     1.417   .     A
C3     C702    1.418   1_545 S
C4     C34     1.420   .     A
C4     C59     1.415   .     A
C5     C49     1.411   .     A
C5     C61     1.418   .     A
C5     C368    1.419   .     S
C6     C62     1.417   .     A
C6     C60     1.408   .     A
C6     C701    1.418   1_545 S
C7     C63     1.417   .     A
C7     C71     1.408   .     A
C7     C38     1.418   .     A
C8     C35     1.408   .     A
C8     C64     1.416   .     A
C8     C703    1.419   .     S
C9     C43     1.408   .     A
C9     C65     1.416   .     A
C9     C704    1.419   1_545 S
C10    C66     1.416   .     A
C10    C44     1.408   .     A
C10    C373    1.419   1_455 S
C11    C67     1.416   .     A
C11    C45     1.408   .     A
C11    C374    1.419   .     S
C12    C126    1.411   .     A
C12    C68     1.417   .     A
C12    C39     1.422   .     A
C13    O215    1.383   .     S
C13    C53     1.410   .     A
C13    C15     1.411   .     A
C14    C69     1.417   .     A
C14    C40     1.422   .     A
C15    C70     1.417   .     A
C15    C41     1.422   .     A
C16    C72     1.417   .     A
C16    C42     1.422   .     A
C16    C24     1.411   .     A
C17    C118    1.416   .     A
C17    C88     1.452   .     S
C17    C116    1.416   .     A
C18    C89     1.452   .     S
C18    C117    1.416   .     A
C18    C114    1.416   .     A
C19    C113    1.416   .     A
C19    C120    1.416   .     A
C19    C81     1.452   .     S
C20    C112    1.416   .     A
C20    C119    1.416   .     A
C20    C83     1.452   .     S
C21    C122    1.416   .     A
C21    C111    1.416   .     A
C21    C84     1.452   .     S
C22    C85     1.452   .     S
C22    C110    1.416   .     A
C22    C121    1.416   .     A
C23    C86     1.452   .     S
C23    C109    1.416   .     A
C23    C124    1.416   .     A
C24    C54     1.410   .     A
C24    O216    1.383   .     S
C25    C123    1.416   .     A
C25    C87     1.452   .     S
C25    C108    1.416   .     A
C26    C127    1.416   .     A
C26    C97     1.452   .     S
C26    C107    1.416   .     A
C27    C106    1.416   .     A
C27    C125    1.416   .     A
C27    C98     1.452   .     S
C28    C90     1.452   .     S
C28    C129    1.416   .     A
C28    C105    1.416   .     A
C29    C91     1.452   .     S
C29    C103    1.416   .     A
C29    C128    1.416   .     A
C30    C131    1.416   .     A
C30    C102    1.416   .     A
C30    C92     1.452   .     S
C31    C101    1.416   .     A
C31    C130    1.416   .     A
C31    C94     1.452   .     S
C32    C133    1.416   .     A
C32    C100    1.416   .     A
C32    C95     1.452   .     S
C33    C99     1.416   .     A
C33    C132    1.416   .     A
C33    C96     1.452   .     S
C34    C36     1.417   .     A
C34    C466    1.422   1_455 S
C35    O217    1.386   .     S
C35    C715    1.409   .     S
C36    C135    1.423   .     A
C36    C337    1.419   1_455 S
C37    C38     1.413   .     A
C37    C136    1.418   .     A
C37    C670    1.418   .     S
C38    C667    1.418   .     S
C39    C672    1.419   1_545 S
C39    C704    1.417   1_546 S
C40    C673    1.419   .     S
C40    C703    1.417   1_554 S
C41    C342    1.419   .     S
C41    C374    1.417   1_556 S
C42    C343    1.419   1_455 S
C42    C373    1.417   1_454 S
C43    O218    1.386   .     S
C43    C716    1.409   1_545 S
C44    O219    1.386   .     S
C44    C385    1.410   1_455 S
C45    O220    1.386   .     S
C45    C386    1.409   .     S
C46    C75     1.457   .     S
C46    C414    1.410   1_455 S
C47    C76     1.461   .     S
C47    C93     1.409   .     A
C47    C381    1.409   1_455 S
C48    C737    1.461   .     S
C48    C104    1.412   .     A
C48    C724    1.412   .     S
C49    O205    1.383   .     S
C49    C379    1.409   .     S
C50    C74     1.461   .     S
C50    C115    1.412   .     A
C50    C735    1.412   1_545 S
C51    C126    1.410   .     A
C51    C79     1.460   .     S
C51    C699    1.409   1_545 S
C52    C80     1.459   .     S
C52    C707    1.409   .     S
C53    C77     1.460   .     S
C53    C376    1.410   .     S
C54    C78     1.459   .     S
C54    C377    1.409   1_455 S
C55    C134    1.416   .     A
C55    C61     1.404   .     A
C55    O266    1.386   .     S
C56    O267    1.376   .     S
C56    C59     1.388   .     A
C56    C135    1.418   .     A
C57    C63     1.393   .     A
C57    O268    1.379   .     S
C57    C136    1.417   .     A
C58    C62     1.393   .     A
C58    O269    1.379   .     S
C59    O270    1.379   .     S
C60    O206    1.385   .     S
C60    C712    1.412   1_545 S
C61    O271    1.378   .     S
C62    O272    1.379   .     S
C63    O274    1.379   .     S
C64    O275    1.379   .     S
C64    C69     1.390   1_556 S
C65    O276    1.379   .     S
C65    C68     1.390   1_554 S
C66    O277    1.379   .     S
C66    C72     1.390   1_556 S
C67    O278    1.379   .     S
C67    C70     1.390   1_554 S
C68    O279    1.375   .     S
C68    C65     1.390   1_556 S
C69    O280    1.375   .     S
C69    C64     1.390   1_554 S
C70    O281    1.375   .     S
C70    C67     1.390   1_556 S
C71    O207    1.385   .     S
C71    C714    1.412   .     S
C72    O282    1.375   .     S
C72    C66     1.390   1_554 S
C73    C712    1.461   1_545 S
C73    O926    1.278   1_545 A
C73    O306    1.278   .     S
C74    O273    1.278   .     A
C74    O866    1.278   1_545 S
C75    O284    1.276   .     A
C75    O545    1.277   1_455 S
C76    O221    1.277   .     A
C76    O627    1.278   1_455 S
C77    O554    1.276   .     S
C77    O558    1.278   .     S
C78    O227    1.277   .     A
C78    O223    1.276   .     A
C79    O224    1.278   .     A
C79    O228    1.276   .     A
C80    O889    1.277   .     S
C80    O894    1.276   .     S
C81    O259    1.279   .     A
C81    O231    1.279   .     A
C82    C134    1.413   .     A
C82    O208    1.385   .     S
C82    C378    1.410   .     S
C83    O232    1.279   .     A
C83    O260    1.279   .     A
C84    O257    1.279   .     A
C84    O233    1.279   .     A
C85    O234    1.279   .     A
C85    O258    1.279   .     A
C86    O264    1.279   .     A
C86    O235    1.279   .     A
C87    O236    1.279   .     A
C87    O265    1.279   .     A
C88    O261    1.279   .     A
C88    O237    1.279   .     A
C89    O238    1.279   .     A
C89    O263    1.279   .     A
C90    O250    1.279   .     A
C90    O239    1.279   .     A
C91    O241    1.279   .     A
C91    O252    1.279   .     A
C92    O248    1.279   .     A
C92    O242    1.279   .     A
C93    C135    1.411   .     A
C93    O209    1.383   .     S
C94    O243    1.279   .     A
C94    O249    1.279   .     A
C95    O244    1.279   .     A
C95    O255    1.279   .     A
C96    O245    1.279   .     A
C96    O256    1.279   .     A
C97    O253    1.279   .     A
C97    O246    1.279   .     A
C98    O254    1.279   .     A
C98    O247    1.279   .     A
C99    C116    1.392   .     A
C99    O283    1.385   .     S
C100   C114    1.392   .     A
C100   O285    1.385   .     S
C101   C113    1.392   .     A
C101   O286    1.385   .     S
C102   C112    1.392   .     A
C102   O287    1.385   .     S
C103   C111    1.392   .     A
C103   O288    1.385   .     S
C104   O210    1.385   .     S
C104   C136    1.408   .     A
C105   C110    1.392   .     A
C105   O289    1.385   .     S
C106   C109    1.392   .     A
C106   O290    1.385   .     S
C107   C108    1.392   .     A
C107   O291    1.385   .     S
C108   O292    1.385   .     S
C109   O293    1.385   .     S
C110   O294    1.385   .     S
C111   O296    1.385   .     S
C112   O297    1.385   .     S
C113   O298    1.385   .     S
C114   O299    1.385   .     S
C115   O211    1.385   .     S
C116   O300    1.385   .     S
C117   C133    1.392   .     A
C117   O301    1.385   .     S
C118   O302    1.385   .     S
C118   C132    1.392   .     A
C119   C131    1.392   .     A
C119   O303    1.385   .     S
C120   O304    1.385   .     S
C120   C130    1.392   .     A
C121   O305    1.385   .     S
C121   C129    1.392   .     A
C122   C128    1.392   .     A
C122   O307    1.385   .     S
C123   O308    1.385   .     S
C123   C127    1.392   .     A
C124   O309    1.385   .     S
C124   C125    1.392   .     A
C125   O310    1.385   .     S
C126   O212    1.383   .     S
C127   O311    1.385   .     S
C128   O312    1.385   .     S
C129   O313    1.385   .     S
C130   O314    1.385   .     S
C131   O315    1.385   .     S
C132   O316    1.385   .     S
C133   O203    1.385   .     S
C134   C366    1.422   .     S
H137   O266    0.990   .     S
H138   O276    0.992   .     S
H139   O277    0.992   .     S
H140   O278    0.992   .     S
H141   O279    0.992   .     S
H142   O280    0.992   .     S
H143   O281    0.992   .     S
H144   O282    0.992   .     S
H145   O283    0.988   .     S
H146   O285    0.988   .     S
H147   O286    0.988   .     S
H148   O267    0.992   .     S
H149   O287    0.988   .     S
H150   O288    0.988   .     S
H151   O289    0.988   .     S
H152   O290    0.988   .     S
H153   O291    0.988   .     S
H154   O292    0.988   .     S
H155   O293    0.988   .     S
H156   O294    0.988   .     S
H157   O296    0.988   .     S
H158   O297    0.988   .     S
H159   O268    0.991   .     S
H160   O298    0.988   .     S
H161   O299    0.988   .     S
H162   O300    0.988   .     S
H163   O301    0.988   .     S
H164   O302    0.988   .     S
H165   O303    0.988   .     S
H166   O304    0.988   .     S
H167   O305    0.988   .     S
H168   O307    0.988   .     S
H169   O308    0.988   .     S
H170   O269    0.991   .     S
H171   O309    0.988   .     S
H172   O310    0.988   .     S
H173   O311    0.988   .     S
H174   O312    0.988   .     S
H175   O313    0.988   .     S
H176   O314    0.988   .     S
H177   O315    0.988   .     S
H178   O316    0.988   .     S
H179   O203    0.988   .     S
H180   O204    0.990   .     S
H181   O270    0.992   .     S
H182   O205    0.990   .     S
H183   O206    0.990   .     S
H184   O207    0.990   .     S
H185   O208    0.989   .     S
H186   O209    0.990   .     S
H187   O210    0.990   .     S
H188   O211    0.990   .     S
H189   O212    0.990   .     S
H190   O214    0.990   .     S
H191   O215    0.990   .     S
H192   O271    0.992   .     S
H193   O216    0.990   .     S
H194   O217    0.990   .     S
H195   O218    0.990   .     S
H196   O219    0.990   .     S
H197   O220    0.990   .     S
H198   O272    0.991   .     S
H199   O274    0.991   .     S
H200   O275    0.992   .     S
O201   Zn988   1.947   1_545 S
O201   Zn328   1.947   .     S
O201   Zn317   1.948   .     S
O201   Zn320   1.948   .     S
O202   Zn319   1.953   .     S
O202   C738    1.278   .     S
O213   Zn322   1.953   .     S
O213   C407    1.277   .     S
O221   Zn321   1.953   .     S
O222   Zn331   1.953   .     S
O222   C409    1.276   1_455 S
O223   Zn330   1.953   .     S
O224   Zn325   1.953   .     S
O225   C744    1.277   1_545 S
O225   Zn317   1.953   .     S
O226   Zn327   1.953   .     S
O226   C409    1.278   1_455 S
O227   Zn326   1.953   .     S
O228   Zn329   1.953   .     S
O229   Zn329   1.947   .     S
O229   Zn325   1.948   .     S
O229   Zn323   1.947   .     S
O229   Zn983   1.948   1_545 S
O230   C744    1.276   1_545 S
O230   Zn328   1.953   .     S
O231   Zn320   1.934   .     S
O232   Zn319   1.934   .     S
O233   Zn322   1.934   .     S
O234   Zn321   1.934   .     S
O235   Zn324   1.934   .     S
O236   Zn323   1.934   .     S
O237   Zn318   1.933   .     S
O238   Zn332   1.933   .     S
O239   Zn319   1.934   .     S
O240   Zn330   1.947   .     S
O240   Zn318   1.948   .     S
O240   Zn326   1.948   .     S
O240   Zn654   1.947   1_455 S
O241   Zn320   1.934   .     S
O242   Zn332   1.934   .     S
O243   Zn318   1.934   .     S
O244   Zn323   1.934   .     S
O245   Zn324   1.934   .     S
O246   Zn321   1.934   .     S
O247   Zn322   1.934   .     S
O248   Zn659   1.934   .     S
O249   Zn326   1.934   .     S
O250   Zn993   1.934   .     S
O251   Zn331   1.947   .     S
O251   Zn327   1.948   .     S
O251   Zn321   1.947   .     S
O251   Zn664   1.948   1_455 S
O252   Zn328   1.934   .     S
O253   Zn331   1.934   .     S
O254   Zn662   1.934   .     S
O255   Zn325   1.933   .     S
O256   Zn981   1.933   .     S
O257   Zn658   1.934   .     S
O258   Zn327   1.934   .     S
O259   Zn317   1.934   .     S
O260   Zn989   1.934   .     S
O261   Zn330   1.934   .     S
O262   Zn324   1.953   .     S
O262   C737    1.278   .     A
O263   Zn663   1.934   .     S
O264   Zn992   1.934   .     S
O265   Zn329   1.934   .     S
O273   Zn323   1.953   .     S
O284   Zn318   1.953   .     S
O295   Zn332   1.953   .     S
O295   C408    1.278   .     S
O306   Zn320   1.953   .     S
Zn317  O920    1.933   1_545 S
Zn319  O893    1.948   .     S
Zn322  O572    1.947   .     S
Zn324  O865    1.947   .     S
Zn325  O924    1.934   1_545 S
Zn326  O589    1.934   1_455 S
Zn327  O580    1.934   1_455 S
Zn328  O928    1.934   1_545 S
Zn329  O914    1.934   1_545 S
Zn330  O586    1.934   1_455 S
Zn331  O595    1.934   1_455 S
Zn332  O583    1.948   .     S
C333   C378    1.408   .     A
C333   O536    1.386   .     S
C333   C336    1.407   .     A
C334   C384    1.410   .     A
C334   O546    1.383   .     S
C334   C346    1.411   .     A
C335   C447    1.408   .     A
C335   C390    1.417   .     A
C335   C1034   1.418   1_545 S
C336   C366    1.420   .     A
C336   C391    1.415   .     A
C337   C381    1.411   .     A
C337   C393    1.418   .     A
C337   C36     1.419   1_655 S
C338   C394    1.417   .     A
C338   C392    1.408   .     A
C338   C1033   1.418   1_545 S
C339   C395    1.417   .     A
C339   C403    1.408   .     A
C339   C370    1.418   .     A
C340   C367    1.408   .     A
C340   C396    1.416   .     A
C340   C1035   1.419   .     S
C341   C375    1.408   .     A
C341   C397    1.416   .     A
C341   C1036   1.419   1_545 S
C342   C398    1.416   .     A
C342   C376    1.408   .     A
C343   C399    1.416   .     A
C343   C377    1.408   .     A
C343   C42     1.419   1_655 S
C344   C458    1.411   .     A
C344   C400    1.417   .     A
C344   C371    1.422   .     A
C345   O547    1.383   .     S
C345   C385    1.410   .     A
C345   C347    1.411   .     A
C346   C401    1.417   .     A
C346   C372    1.422   .     A
C347   C402    1.417   .     A
C347   C373    1.422   .     A
C348   C404    1.417   .     A
C348   C374    1.422   .     A
C348   C356    1.411   .     A
C349   C450    1.416   .     A
C349   C420    1.452   .     S
C349   C448    1.416   .     A
C350   C421    1.452   .     S
C350   C449    1.416   .     A
C350   C446    1.416   .     A
C351   C445    1.416   .     A
C351   C452    1.416   .     A
C351   C413    1.452   .     S
C352   C444    1.416   .     A
C352   C451    1.416   .     A
C352   C415    1.452   .     S
C353   C454    1.416   .     A
C353   C443    1.416   .     A
C353   C416    1.452   .     S
C354   C417    1.452   .     S
C354   C442    1.416   .     A
C354   C453    1.416   .     A
C355   C418    1.452   .     S
C355   C441    1.416   .     A
C355   C456    1.416   .     A
C356   C386    1.410   .     A
C356   O548    1.383   .     S
C357   C455    1.416   .     A
C357   C419    1.452   .     S
C357   C440    1.416   .     A
C358   C459    1.416   .     A
C358   C429    1.452   .     S
C358   C439    1.416   .     A
C359   C438    1.416   .     A
C359   C457    1.416   .     A
C359   C430    1.452   .     S
C360   C422    1.452   .     S
C360   C461    1.416   .     A
C360   C437    1.416   .     A
C361   C423    1.452   .     S
C361   C435    1.416   .     A
C361   C460    1.416   .     A
C362   C463    1.416   .     A
C362   C434    1.416   .     A
C362   C424    1.452   .     S
C363   C433    1.416   .     A
C363   C462    1.416   .     A
C363   C426    1.452   .     S
C364   C465    1.416   .     A
C364   C432    1.416   .     A
C364   C427    1.452   .     S
C365   C431    1.416   .     A
C365   C464    1.416   .     A
C365   C428    1.452   .     S
C366   C368    1.417   .     A
C367   O549    1.386   .     S
C367   C1047   1.409   .     S
C368   C467    1.423   .     A
C369   C370    1.413   .     A
C369   C468    1.418   .     A
C369   C1002   1.418   .     S
C370   C999    1.418   .     S
C371   C1004   1.419   1_545 S
C371   C1036   1.417   1_546 S
C372   C1005   1.419   .     S
C372   C1035   1.417   1_554 S
C373   C10     1.419   1_655 S
C373   C42     1.417   1_656 S
C374   C41     1.417   1_554 S
C375   O550    1.386   .     S
C375   C1048   1.409   1_545 S
C376   O551    1.386   .     S
C377   O552    1.386   .     S
C377   C54     1.409   1_655 S
C378   C407    1.457   .     S
C379   C408    1.461   .     S
C379   C425    1.409   .     A
C380   C1069   1.461   .     S
C380   C436    1.412   .     A
C380   C1056   1.412   .     S
C381   O537    1.383   .     S
C381   C47     1.409   1_655 S
C382   C406    1.461   .     S
C382   C447    1.412   .     A
C382   C1067   1.412   1_545 S
C383   C458    1.410   .     A
C383   C411    1.460   .     S
C383   C1031   1.409   1_545 S
C384   C412    1.459   .     S
C384   C1039   1.409   .     S
C385   C409    1.460   .     S
C385   C44     1.410   1_655 S
C386   C410    1.459   .     S
C387   C466    1.416   .     A
C387   C393    1.404   .     A
C387   O598    1.386   .     S
C388   O599    1.376   .     S
C388   C391    1.388   .     A
C388   C467    1.418   .     A
C389   C395    1.393   .     A
C389   O600    1.379   .     S
C389   C468    1.417   .     A
C390   C394    1.393   .     A
C390   O601    1.379   .     S
C391   O602    1.379   .     S
C392   O538    1.385   .     S
C392   C1044   1.412   1_545 S
C393   O603    1.378   .     S
C394   O604    1.379   .     S
C395   O606    1.379   .     S
C396   O607    1.379   .     S
C396   C401    1.390   1_556 S
C397   O608    1.379   .     S
C397   C400    1.390   1_554 S
C398   O609    1.379   .     S
C398   C404    1.390   1_556 S
C399   O610    1.379   .     S
C399   C402    1.390   1_554 S
C400   O611    1.375   .     S
C400   C397    1.390   1_556 S
C401   O612    1.375   .     S
C401   C396    1.390   1_554 S
C402   O613    1.375   .     S
C402   C399    1.390   1_556 S
C403   O539    1.385   .     S
C403   C1046   1.412   .     S
C404   O614    1.375   .     S
C404   C398    1.390   1_554 S
C405   C1044   1.461   1_545 S
C405   O1258   1.278   1_545 A
C405   O638    1.278   .     S
C406   O605    1.278   .     A
C406   O1198   1.278   1_545 S
C407   O616    1.276   .     A
C408   O553    1.277   .     A
C409   O222    1.276   1_655 S
C409   O226    1.278   1_655 S
C410   O559    1.277   .     A
C410   O555    1.276   .     A
C411   O556    1.278   .     A
C411   O560    1.276   .     A
C412   O1221   1.277   .     S
C412   O1226   1.276   .     S
C413   O591    1.279   .     A
C413   O563    1.279   .     A
C414   C466    1.413   .     A
C414   O540    1.385   .     S
C414   C46     1.410   1_655 S
C415   O564    1.279   .     A
C415   O592    1.279   .     A
C416   O589    1.279   .     A
C416   O565    1.279   .     A
C417   O566    1.279   .     A
C417   O590    1.279   .     A
C418   O596    1.279   .     A
C418   O567    1.279   .     A
C419   O568    1.279   .     A
C419   O597    1.279   .     A
C420   O593    1.279   .     A
C420   O569    1.279   .     A
C421   O570    1.279   .     A
C421   O595    1.279   .     A
C422   O582    1.279   .     A
C422   O571    1.279   .     A
C423   O573    1.279   .     A
C423   O584    1.279   .     A
C424   O580    1.279   .     A
C424   O574    1.279   .     A
C425   C467    1.411   .     A
C425   O541    1.383   .     S
C426   O575    1.279   .     A
C426   O581    1.279   .     A
C427   O576    1.279   .     A
C427   O587    1.279   .     A
C428   O577    1.279   .     A
C428   O588    1.279   .     A
C429   O585    1.279   .     A
C429   O578    1.279   .     A
C430   O586    1.279   .     A
C430   O579    1.279   .     A
C431   C448    1.392   .     A
C431   O615    1.385   .     S
C432   C446    1.392   .     A
C432   O617    1.385   .     S
C433   C445    1.392   .     A
C433   O618    1.385   .     S
C434   C444    1.392   .     A
C434   O619    1.385   .     S
C435   C443    1.392   .     A
C435   O620    1.385   .     S
C436   O542    1.385   .     S
C436   C468    1.408   .     A
C437   C442    1.392   .     A
C437   O621    1.385   .     S
C438   C441    1.392   .     A
C438   O622    1.385   .     S
C439   C440    1.392   .     A
C439   O623    1.385   .     S
C440   O624    1.385   .     S
C441   O625    1.385   .     S
C442   O626    1.385   .     S
C443   O628    1.385   .     S
C444   O629    1.385   .     S
C445   O630    1.385   .     S
C446   O631    1.385   .     S
C447   O543    1.385   .     S
C448   O632    1.385   .     S
C449   C465    1.392   .     A
C449   O633    1.385   .     S
C450   O634    1.385   .     S
C450   C464    1.392   .     A
C451   C463    1.392   .     A
C451   O635    1.385   .     S
C452   O636    1.385   .     S
C452   C462    1.392   .     A
C453   O637    1.385   .     S
C453   C461    1.392   .     A
C454   C460    1.392   .     A
C454   O639    1.385   .     S
C455   O640    1.385   .     S
C455   C459    1.392   .     A
C456   O641    1.385   .     S
C456   C457    1.392   .     A
C457   O642    1.385   .     S
C458   O544    1.383   .     S
C459   O643    1.385   .     S
C460   O644    1.385   .     S
C461   O645    1.385   .     S
C462   O646    1.385   .     S
C463   O647    1.385   .     S
C464   O648    1.385   .     S
C465   O535    1.385   .     S
C466   C34     1.422   1_655 S
H469   O598    0.990   .     S
H470   O608    0.992   .     S
H471   O609    0.992   .     S
H472   O610    0.992   .     S
H473   O611    0.992   .     S
H474   O612    0.992   .     S
H475   O613    0.992   .     S
H476   O614    0.992   .     S
H477   O615    0.988   .     S
H478   O617    0.988   .     S
H479   O618    0.988   .     S
H480   O599    0.992   .     S
H481   O619    0.988   .     S
H482   O620    0.988   .     S
H483   O621    0.988   .     S
H484   O622    0.988   .     S
H485   O623    0.988   .     S
H486   O624    0.988   .     S
H487   O625    0.988   .     S
H488   O626    0.988   .     S
H489   O628    0.988   .     S
H490   O629    0.988   .     S
H491   O600    0.991   .     S
H492   O630    0.988   .     S
H493   O631    0.988   .     S
H494   O632    0.988   .     S
H495   O633    0.988   .     S
H496   O634    0.988   .     S
H497   O635    0.988   .     S
H498   O636    0.988   .     S
H499   O637    0.988   .     S
H500   O639    0.988   .     S
H501   O640    0.988   .     S
H502   O601    0.991   .     S
H503   O641    0.988   .     S
H504   O642    0.988   .     S
H505   O643    0.988   .     S
H506   O644    0.988   .     S
H507   O645    0.988   .     S
H508   O646    0.988   .     S
H509   O647    0.988   .     S
H510   O648    0.988   .     S
H511   O535    0.988   .     S
H512   O536    0.990   .     S
H513   O602    0.992   .     S
H514   O537    0.990   .     S
H515   O538    0.990   .     S
H516   O539    0.990   .     S
H517   O540    0.989   .     S
H518   O541    0.990   .     S
H519   O542    0.990   .     S
H520   O543    0.990   .     S
H521   O544    0.990   .     S
H522   O546    0.990   .     S
H523   O547    0.990   .     S
H524   O603    0.992   .     S
H525   O548    0.990   .     S
H526   O549    0.990   .     S
H527   O550    0.990   .     S
H528   O551    0.990   .     S
H529   O552    0.990   .     S
H530   O604    0.991   .     S
H531   O606    0.991   .     S
H532   O607    0.992   .     S
O533   Zn1320  1.947   1_545 S
O533   Zn660   1.947   .     S
O533   Zn649   1.948   .     S
O533   Zn652   1.948   .     S
O534   Zn651   1.953   .     S
O534   C1070   1.278   .     S
O545   Zn654   1.953   .     S
O545   C75     1.277   1_655 S
O553   Zn653   1.953   .     S
O554   Zn663   1.953   .     S
O555   Zn662   1.953   .     S
O556   Zn657   1.953   .     S
O557   C1076   1.277   1_545 S
O557   Zn649   1.953   .     S
O558   Zn659   1.953   .     S
O559   Zn658   1.953   .     S
O560   Zn661   1.953   .     S
O561   Zn661   1.947   .     S
O561   Zn657   1.948   .     S
O561   Zn655   1.947   .     S
O561   Zn1315  1.948   1_545 S
O562   C1076   1.276   1_545 S
O562   Zn660   1.953   .     S
O563   Zn652   1.934   .     S
O564   Zn651   1.934   .     S
O565   Zn654   1.934   .     S
O566   Zn653   1.934   .     S
O567   Zn656   1.934   .     S
O568   Zn655   1.934   .     S
O569   Zn650   1.933   .     S
O570   Zn664   1.933   .     S
O571   Zn651   1.934   .     S
O572   Zn662   1.947   .     S
O572   Zn650   1.948   .     S
O572   Zn658   1.948   .     S
O573   Zn652   1.934   .     S
O574   Zn664   1.934   .     S
O575   Zn650   1.934   .     S
O576   Zn655   1.934   .     S
O577   Zn656   1.934   .     S
O578   Zn653   1.934   .     S
O579   Zn654   1.934   .     S
O580   Zn327   1.934   1_655 S
O581   Zn658   1.934   .     S
O582   Zn1325  1.934   .     S
O583   Zn663   1.947   .     S
O583   Zn659   1.948   .     S
O583   Zn653   1.947   .     S
O584   Zn660   1.934   .     S
O585   Zn663   1.934   .     S
O586   Zn330   1.934   1_655 S
O587   Zn657   1.933   .     S
O588   Zn1313  1.933   .     S
O589   Zn326   1.934   1_655 S
O590   Zn659   1.934   .     S
O591   Zn649   1.934   .     S
O592   Zn1321  1.934   .     S
O593   Zn662   1.934   .     S
O594   Zn656   1.953   .     S
O594   C1069   1.278   .     A
O595   Zn331   1.934   1_655 S
O596   Zn1324  1.934   .     S
O597   Zn661   1.934   .     S
O605   Zn655   1.953   .     S
O616   Zn650   1.953   .     S
O627   Zn664   1.953   .     S
O627   C76     1.278   1_655 S
O638   Zn652   1.953   .     S
Zn649  O1252   1.933   1_545 S
Zn651  O1225   1.948   .     S
Zn654  O240    1.947   1_655 S
Zn656  O1197   1.947   .     S
Zn657  O1256   1.934   1_545 S
Zn660  O1260   1.934   1_545 S
Zn661  O1246   1.934   1_545 S
Zn664  O251    1.948   1_655 S
C665   C710    1.408   .     A
C665   O868    1.386   .     S
C665   C668    1.407   .     A
C666   C716    1.410   .     A
C666   O878    1.383   .     S
C666   C678    1.411   .     A
C667   C779    1.408   .     A
C667   C722    1.417   .     A
C668   C698    1.420   .     A
C668   C723    1.415   .     A
C669   C713    1.411   .     A
C669   C725    1.418   .     A
C669   C1032   1.419   .     S
C670   C726    1.417   .     A
C670   C724    1.408   .     A
C671   C727    1.417   .     A
C671   C735    1.408   .     A
C671   C702    1.418   .     A
C672   C699    1.408   .     A
C672   C728    1.416   .     A
C672   C39     1.419   1_565 S
C673   C707    1.408   .     A
C673   C729    1.416   .     A
C674   C730    1.416   .     A
C674   C708    1.408   .     A
C674   C1037   1.419   1_455 S
C675   C731    1.416   .     A
C675   C709    1.408   .     A
C675   C1038   1.419   .     S
C676   C790    1.411   .     A
C676   C732    1.417   .     A
C676   C703    1.422   .     A
C677   O879    1.383   .     S
C677   C717    1.410   .     A
C677   C679    1.411   .     A
C678   C733    1.417   .     A
C678   C704    1.422   .     A
C679   C734    1.417   .     A
C679   C705    1.422   .     A
C680   C736    1.417   .     A
C680   C706    1.422   .     A
C680   C688    1.411   .     A
C681   C782    1.416   .     A
C681   C752    1.452   .     S
C681   C780    1.416   .     A
C682   C753    1.452   .     S
C682   C781    1.416   .     A
C682   C778    1.416   .     A
C683   C777    1.416   .     A
C683   C784    1.416   .     A
C683   C745    1.452   .     S
C684   C776    1.416   .     A
C684   C783    1.416   .     A
C684   C747    1.452   .     S
C685   C786    1.416   .     A
C685   C775    1.416   .     A
C685   C748    1.452   .     S
C686   C749    1.452   .     S
C686   C774    1.416   .     A
C686   C785    1.416   .     A
C687   C750    1.452   .     S
C687   C773    1.416   .     A
C687   C788    1.416   .     A
C688   C718    1.410   .     A
C688   O880    1.383   .     S
C689   C787    1.416   .     A
C689   C751    1.452   .     S
C689   C772    1.416   .     A
C690   C791    1.416   .     A
C690   C761    1.452   .     S
C690   C771    1.416   .     A
C691   C770    1.416   .     A
C691   C789    1.416   .     A
C691   C762    1.452   .     S
C692   C754    1.452   .     S
C692   C793    1.416   .     A
C692   C769    1.416   .     A
C693   C755    1.452   .     S
C693   C767    1.416   .     A
C693   C792    1.416   .     A
C694   C795    1.416   .     A
C694   C766    1.416   .     A
C694   C756    1.452   .     S
C695   C765    1.416   .     A
C695   C794    1.416   .     A
C695   C758    1.452   .     S
C696   C797    1.416   .     A
C696   C764    1.416   .     A
C696   C759    1.452   .     S
C697   C763    1.416   .     A
C697   C796    1.416   .     A
C697   C760    1.452   .     S
C698   C700    1.417   .     A
C698   C1130   1.422   1_455 S
C699   O881    1.386   .     S
C699   C51     1.409   1_565 S
C700   C799    1.423   .     A
C700   C1001   1.419   1_455 S
C701   C702    1.413   .     A
C701   C800    1.418   .     A
C701   C6      1.418   1_565 S
C702   C3      1.418   1_565 S
C703   C40     1.417   1_556 S
C704   C9      1.419   1_565 S
C704   C39     1.417   1_564 S
C705   C1006   1.419   .     S
C705   C1038   1.417   1_556 S
C706   C1007   1.419   1_455 S
C706   C1037   1.417   1_454 S
C707   O882    1.386   .     S
C708   O883    1.386   .     S
C708   C1049   1.410   1_455 S
C709   O884    1.386   .     S
C709   C1050   1.409   .     S
C710   C739    1.457   .     S
C710   C1078   1.410   1_455 S
C711   C740    1.461   .     S
C711   C757    1.409   .     A
C711   C1045   1.409   1_455 S
C712   C73     1.461   1_565 S
C712   C768    1.412   .     A
C712   C60     1.412   1_565 S
C713   O869    1.383   .     S
C713   C1043   1.409   .     S
C714   C738    1.461   .     S
C714   C779    1.412   .     A
C715   C790    1.410   .     A
C715   C743    1.460   .     S
C716   C744    1.459   .     S
C716   C43     1.409   1_565 S
C717   C741    1.460   .     S
C717   C1040   1.410   .     S
C718   C742    1.459   .     S
C718   C1041   1.409   1_455 S
C719   C798    1.416   .     A
C719   C725    1.404   .     A
C719   O930    1.386   .     S
C720   O931    1.376   .     S
C720   C723    1.388   .     A
C720   C799    1.418   .     A
C721   C727    1.393   .     A
C721   O932    1.379   .     S
C721   C800    1.417   .     A
C722   C726    1.393   .     A
C722   O933    1.379   .     S
C723   O934    1.379   .     S
C724   O870    1.385   .     S
C725   O935    1.378   .     S
C726   O936    1.379   .     S
C727   O938    1.379   .     S
C728   O939    1.379   .     S
C728   C733    1.390   1_556 S
C729   O940    1.379   .     S
C729   C732    1.390   1_554 S
C730   O941    1.379   .     S
C730   C736    1.390   1_556 S
C731   O942    1.379   .     S
C731   C734    1.390   1_554 S
C732   O943    1.375   .     S
C732   C729    1.390   1_556 S
C733   O944    1.375   .     S
C733   C728    1.390   1_554 S
C734   O945    1.375   .     S
C734   C731    1.390   1_556 S
C735   O871    1.385   .     S
C735   C50     1.412   1_565 S
C736   O946    1.375   .     S
C736   C730    1.390   1_554 S
C737   O970    1.278   .     S
C738   O937    1.278   .     A
C739   O948    1.276   .     A
C739   O1209   1.277   1_455 S
C740   O885    1.277   .     A
C740   O1291   1.278   1_455 S
C741   O1218   1.276   .     S
C741   O1222   1.278   .     S
C742   O891    1.277   .     A
C742   O887    1.276   .     A
C743   O888    1.278   .     A
C743   O892    1.276   .     A
C744   O225    1.277   1_565 S
C744   O230    1.276   1_565 S
C745   O923    1.279   .     A
C745   O895    1.279   .     A
C746   C798    1.413   .     A
C746   O872    1.385   .     S
C746   C1042   1.410   .     S
C747   O896    1.279   .     A
C747   O924    1.279   .     A
C748   O921    1.279   .     A
C748   O897    1.279   .     A
C749   O898    1.279   .     A
C749   O922    1.279   .     A
C750   O928    1.279   .     A
C750   O899    1.279   .     A
C751   O900    1.279   .     A
C751   O929    1.279   .     A
C752   O925    1.279   .     A
C752   O901    1.279   .     A
C753   O902    1.279   .     A
C753   O927    1.279   .     A
C754   O914    1.279   .     A
C754   O903    1.279   .     A
C755   O905    1.279   .     A
C755   O916    1.279   .     A
C756   O912    1.279   .     A
C756   O906    1.279   .     A
C757   C799    1.411   .     A
C757   O873    1.383   .     S
C758   O907    1.279   .     A
C758   O913    1.279   .     A
C759   O908    1.279   .     A
C759   O919    1.279   .     A
C760   O909    1.279   .     A
C760   O920    1.279   .     A
C761   O917    1.279   .     A
C761   O910    1.279   .     A
C762   O918    1.279   .     A
C762   O911    1.279   .     A
C763   C780    1.392   .     A
C763   O947    1.385   .     S
C764   C778    1.392   .     A
C764   O949    1.385   .     S
C765   C777    1.392   .     A
C765   O950    1.385   .     S
C766   C776    1.392   .     A
C766   O951    1.385   .     S
C767   C775    1.392   .     A
C767   O952    1.385   .     S
C768   O874    1.385   .     S
C768   C800    1.408   .     A
C769   C774    1.392   .     A
C769   O953    1.385   .     S
C770   C773    1.392   .     A
C770   O954    1.385   .     S
C771   C772    1.392   .     A
C771   O955    1.385   .     S
C772   O956    1.385   .     S
C773   O957    1.385   .     S
C774   O958    1.385   .     S
C775   O960    1.385   .     S
C776   O961    1.385   .     S
C777   O962    1.385   .     S
C778   O963    1.385   .     S
C779   O875    1.385   .     S
C780   O964    1.385   .     S
C781   C797    1.392   .     A
C781   O965    1.385   .     S
C782   O966    1.385   .     S
C782   C796    1.392   .     A
C783   C795    1.392   .     A
C783   O967    1.385   .     S
C784   O968    1.385   .     S
C784   C794    1.392   .     A
C785   O969    1.385   .     S
C785   C793    1.392   .     A
C786   C792    1.392   .     A
C786   O971    1.385   .     S
C787   O972    1.385   .     S
C787   C791    1.392   .     A
C788   O973    1.385   .     S
C788   C789    1.392   .     A
C789   O974    1.385   .     S
C790   O876    1.383   .     S
C791   O975    1.385   .     S
C792   O976    1.385   .     S
C793   O977    1.385   .     S
C794   O978    1.385   .     S
C795   O979    1.385   .     S
C796   O980    1.385   .     S
C797   O867    1.385   .     S
C798   C1030   1.422   .     S
H801   O930    0.990   .     S
H802   O940    0.992   .     S
H803   O941    0.992   .     S
H804   O942    0.992   .     S
H805   O943    0.992   .     S
H806   O944    0.992   .     S
H807   O945    0.992   .     S
H808   O946    0.992   .     S
H809   O947    0.988   .     S
H810   O949    0.988   .     S
H811   O950    0.988   .     S
H812   O931    0.992   .     S
H813   O951    0.988   .     S
H814   O952    0.988   .     S
H815   O953    0.988   .     S
H816   O954    0.988   .     S
H817   O955    0.988   .     S
H818   O956    0.988   .     S
H819   O957    0.988   .     S
H820   O958    0.988   .     S
H821   O960    0.988   .     S
H822   O961    0.988   .     S
H823   O932    0.991   .     S
H824   O962    0.988   .     S
H825   O963    0.988   .     S
H826   O964    0.988   .     S
H827   O965    0.988   .     S
H828   O966    0.988   .     S
H829   O967    0.988   .     S
H830   O968    0.988   .     S
H831   O969    0.988   .     S
H832   O971    0.988   .     S
H833   O972    0.988   .     S
H834   O933    0.991   .     S
H835   O973    0.988   .     S
H836   O974    0.988   .     S
H837   O975    0.988   .     S
H838   O976    0.988   .     S
H839   O977    0.988   .     S
H840   O978    0.988   .     S
H841   O979    0.988   .     S
H842   O980    0.988   .     S
H843   O867    0.988   .     S
H844   O868    0.990   .     S
H845   O934    0.992   .     S
H846   O869    0.990   .     S
H847   O870    0.990   .     S
H848   O871    0.990   .     S
H849   O872    0.989   .     S
H850   O873    0.990   .     S
H851   O874    0.990   .     S
H852   O875    0.990   .     S
H853   O876    0.990   .     S
H854   O878    0.990   .     S
H855   O879    0.990   .     S
H856   O935    0.992   .     S
H857   O880    0.990   .     S
H858   O881    0.990   .     S
H859   O882    0.990   .     S
H860   O883    0.990   .     S
H861   O884    0.990   .     S
H862   O936    0.991   .     S
H863   O938    0.991   .     S
H864   O939    0.992   .     S
O865   Zn992   1.947   .     S
O865   Zn981   1.948   .     S
O865   Zn984   1.948   .     S
O866   Zn983   1.953   .     S
O866   C74     1.278   1_565 S
O877   Zn986   1.953   .     S
O877   C1071   1.277   .     S
O885   Zn985   1.953   .     S
O886   Zn995   1.953   .     S
O886   C1073   1.276   1_455 S
O887   Zn994   1.953   .     S
O888   Zn989   1.953   .     S
O889   Zn981   1.953   .     S
O890   Zn991   1.953   .     S
O890   C1073   1.278   1_455 S
O891   Zn990   1.953   .     S
O892   Zn993   1.953   .     S
O893   Zn993   1.947   .     S
O893   Zn989   1.948   .     S
O893   Zn987   1.947   .     S
O894   Zn992   1.953   .     S
O895   Zn984   1.934   .     S
O896   Zn983   1.934   .     S
O897   Zn986   1.934   .     S
O898   Zn985   1.934   .     S
O899   Zn988   1.934   .     S
O900   Zn987   1.934   .     S
O901   Zn982   1.933   .     S
O902   Zn996   1.933   .     S
O903   Zn983   1.934   .     S
O904   Zn994   1.947   .     S
O904   Zn982   1.948   .     S
O904   Zn990   1.948   .     S
O904   Zn1318  1.947   1_455 S
O905   Zn984   1.934   .     S
O906   Zn996   1.934   .     S
O907   Zn982   1.934   .     S
O908   Zn987   1.934   .     S
O909   Zn988   1.934   .     S
O910   Zn985   1.934   .     S
O911   Zn986   1.934   .     S
O912   Zn1323  1.934   .     S
O913   Zn990   1.934   .     S
O914   Zn329   1.934   1_565 S
O915   Zn995   1.947   .     S
O915   Zn991   1.948   .     S
O915   Zn985   1.947   .     S
O915   Zn1328  1.948   1_455 S
O916   Zn992   1.934   .     S
O917   Zn995   1.934   .     S
O918   Zn1326  1.934   .     S
O919   Zn989   1.933   .     S
O920   Zn317   1.933   1_565 S
O921   Zn1322  1.934   .     S
O922   Zn991   1.934   .     S
O923   Zn981   1.934   .     S
O924   Zn325   1.934   1_565 S
O925   Zn994   1.934   .     S
O926   Zn988   1.953   .     S
O926   C73     1.278   1_565 A
O927   Zn1327  1.934   .     S
O928   Zn328   1.934   1_565 S
O929   Zn993   1.934   .     S
O937   Zn987   1.953   .     S
O948   Zn982   1.953   .     S
O959   Zn996   1.953   .     S
O959   C1072   1.278   .     S
O970   Zn984   1.953   .     S
Zn983  O229    1.948   1_565 S
Zn986  O1236   1.947   .     S
Zn988  O201    1.947   1_565 S
Zn990  O1253   1.934   1_455 S
Zn991  O1244   1.934   1_455 S
Zn994  O1250   1.934   1_455 S
Zn995  O1259   1.934   1_455 S
Zn996  O1247   1.948   .     S
C997   C1042   1.408   .     A
C997   O1200   1.386   .     S
C997   C1000   1.407   .     A
C998   C1048   1.410   .     A
C998   O1210   1.383   .     S
C998   C1010   1.411   .     A
C999   C1111   1.408   .     A
C999   C1054   1.417   .     A
C1000  C1030   1.420   .     A
C1000  C1055   1.415   .     A
C1001  C1045   1.411   .     A
C1001  C1057   1.418   .     A
C1001  C700    1.419   1_655 S
C1002  C1058   1.417   .     A
C1002  C1056   1.408   .     A
C1003  C1059   1.417   .     A
C1003  C1067   1.408   .     A
C1003  C1034   1.418   .     A
C1004  C1031   1.408   .     A
C1004  C1060   1.416   .     A
C1004  C371    1.419   1_565 S
C1005  C1039   1.408   .     A
C1005  C1061   1.416   .     A
C1006  C1062   1.416   .     A
C1006  C1040   1.408   .     A
C1007  C1063   1.416   .     A
C1007  C1041   1.408   .     A
C1007  C706    1.419   1_655 S
C1008  C1122   1.411   .     A
C1008  C1064   1.417   .     A
C1008  C1035   1.422   .     A
C1009  O1211   1.383   .     S
C1009  C1049   1.410   .     A
C1009  C1011   1.411   .     A
C1010  C1065   1.417   .     A
C1010  C1036   1.422   .     A
C1011  C1066   1.417   .     A
C1011  C1037   1.422   .     A
C1012  C1068   1.417   .     A
C1012  C1038   1.422   .     A
C1012  C1020   1.411   .     A
C1013  C1114   1.416   .     A
C1013  C1084   1.452   .     S
C1013  C1112   1.416   .     A
C1014  C1085   1.452   .     S
C1014  C1113   1.416   .     A
C1014  C1110   1.416   .     A
C1015  C1109   1.416   .     A
C1015  C1116   1.416   .     A
C1015  C1077   1.452   .     S
C1016  C1108   1.416   .     A
C1016  C1115   1.416   .     A
C1016  C1079   1.452   .     S
C1017  C1118   1.416   .     A
C1017  C1107   1.416   .     A
C1017  C1080   1.452   .     S
C1018  C1081   1.452   .     S
C1018  C1106   1.416   .     A
C1018  C1117   1.416   .     A
C1019  C1082   1.452   .     S
C1019  C1105   1.416   .     A
C1019  C1120   1.416   .     A
C1020  C1050   1.410   .     A
C1020  O1212   1.383   .     S
C1021  C1119   1.416   .     A
C1021  C1083   1.452   .     S
C1021  C1104   1.416   .     A
C1022  C1123   1.416   .     A
C1022  C1093   1.452   .     S
C1022  C1103   1.416   .     A
C1023  C1102   1.416   .     A
C1023  C1121   1.416   .     A
C1023  C1094   1.452   .     S
C1024  C1086   1.452   .     S
C1024  C1125   1.416   .     A
C1024  C1101   1.416   .     A
C1025  C1087   1.452   .     S
C1025  C1099   1.416   .     A
C1025  C1124   1.416   .     A
C1026  C1127   1.416   .     A
C1026  C1098   1.416   .     A
C1026  C1088   1.452   .     S
C1027  C1097   1.416   .     A
C1027  C1126   1.416   .     A
C1027  C1090   1.452   .     S
C1028  C1129   1.416   .     A
C1028  C1096   1.416   .     A
C1028  C1091   1.452   .     S
C1029  C1095   1.416   .     A
C1029  C1128   1.416   .     A
C1029  C1092   1.452   .     S
C1030  C1032   1.417   .     A
C1031  O1213   1.386   .     S
C1031  C383    1.409   1_565 S
C1032  C1131   1.423   .     A
C1033  C1034   1.413   .     A
C1033  C1132   1.418   .     A
C1033  C338    1.418   1_565 S
C1034  C335    1.418   1_565 S
C1035  C372    1.417   1_556 S
C1036  C341    1.419   1_565 S
C1036  C371    1.417   1_564 S
C1037  C674    1.419   1_655 S
C1037  C706    1.417   1_656 S
C1038  C705    1.417   1_554 S
C1039  O1214   1.386   .     S
C1040  O1215   1.386   .     S
C1041  O1216   1.386   .     S
C1041  C718    1.409   1_655 S
C1042  C1071   1.457   .     S
C1043  C1072   1.461   .     S
C1043  C1089   1.409   .     A
C1044  C405    1.461   1_565 S
C1044  C1100   1.412   .     A
C1044  C392    1.412   1_565 S
C1045  O1201   1.383   .     S
C1045  C711    1.409   1_655 S
C1046  C1070   1.461   .     S
C1046  C1111   1.412   .     A
C1047  C1122   1.410   .     A
C1047  C1075   1.460   .     S
C1048  C1076   1.459   .     S
C1048  C375    1.409   1_565 S
C1049  C1073   1.460   .     S
C1049  C708    1.410   1_655 S
C1050  C1074   1.459   .     S
C1051  C1130   1.416   .     A
C1051  C1057   1.404   .     A
C1051  O1262   1.386   .     S
C1052  O1263   1.376   .     S
C1052  C1055   1.388   .     A
C1052  C1131   1.418   .     A
C1053  C1059   1.393   .     A
C1053  O1264   1.379   .     S
C1053  C1132   1.417   .     A
C1054  C1058   1.393   .     A
C1054  O1265   1.379   .     S
C1055  O1266   1.379   .     S
C1056  O1202   1.385   .     S
C1057  O1267   1.378   .     S
C1058  O1268   1.379   .     S
C1059  O1270   1.379   .     S
C1060  O1271   1.379   .     S
C1060  C1065   1.390   1_556 S
C1061  O1272   1.379   .     S
C1061  C1064   1.390   1_554 S
C1062  O1273   1.379   .     S
C1062  C1068   1.390   1_556 S
C1063  O1274   1.379   .     S
C1063  C1066   1.390   1_554 S
C1064  O1275   1.375   .     S
C1064  C1061   1.390   1_556 S
C1065  O1276   1.375   .     S
C1065  C1060   1.390   1_554 S
C1066  O1277   1.375   .     S
C1066  C1063   1.390   1_556 S
C1067  O1203   1.385   .     S
C1067  C382    1.412   1_565 S
C1068  O1278   1.375   .     S
C1068  C1062   1.390   1_554 S
C1069  O1302   1.278   .     S
C1070  O1269   1.278   .     A
C1071  O1280   1.276   .     A
C1072  O1217   1.277   .     A
C1073  O886    1.276   1_655 S
C1073  O890    1.278   1_655 S
C1074  O1223   1.277   .     A
C1074  O1219   1.276   .     A
C1075  O1220   1.278   .     A
C1075  O1224   1.276   .     A
C1076  O557    1.277   1_565 S
C1076  O562    1.276   1_565 S
C1077  O1255   1.279   .     A
C1077  O1227   1.279   .     A
C1078  C1130   1.413   .     A
C1078  O1204   1.385   .     S
C1078  C710    1.410   1_655 S
C1079  O1228   1.279   .     A
C1079  O1256   1.279   .     A
C1080  O1253   1.279   .     A
C1080  O1229   1.279   .     A
C1081  O1230   1.279   .     A
C1081  O1254   1.279   .     A
C1082  O1260   1.279   .     A
C1082  O1231   1.279   .     A
C1083  O1232   1.279   .     A
C1083  O1261   1.279   .     A
C1084  O1257   1.279   .     A
C1084  O1233   1.279   .     A
C1085  O1234   1.279   .     A
C1085  O1259   1.279   .     A
C1086  O1246   1.279   .     A
C1086  O1235   1.279   .     A
C1087  O1237   1.279   .     A
C1087  O1248   1.279   .     A
C1088  O1244   1.279   .     A
C1088  O1238   1.279   .     A
C1089  C1131   1.411   .     A
C1089  O1205   1.383   .     S
C1090  O1239   1.279   .     A
C1090  O1245   1.279   .     A
C1091  O1240   1.279   .     A
C1091  O1251   1.279   .     A
C1092  O1241   1.279   .     A
C1092  O1252   1.279   .     A
C1093  O1249   1.279   .     A
C1093  O1242   1.279   .     A
C1094  O1250   1.279   .     A
C1094  O1243   1.279   .     A
C1095  C1112   1.392   .     A
C1095  O1279   1.385   .     S
C1096  C1110   1.392   .     A
C1096  O1281   1.385   .     S
C1097  C1109   1.392   .     A
C1097  O1282   1.385   .     S
C1098  C1108   1.392   .     A
C1098  O1283   1.385   .     S
C1099  C1107   1.392   .     A
C1099  O1284   1.385   .     S
C1100  O1206   1.385   .     S
C1100  C1132   1.408   .     A
C1101  C1106   1.392   .     A
C1101  O1285   1.385   .     S
C1102  C1105   1.392   .     A
C1102  O1286   1.385   .     S
C1103  C1104   1.392   .     A
C1103  O1287   1.385   .     S
C1104  O1288   1.385   .     S
C1105  O1289   1.385   .     S
C1106  O1290   1.385   .     S
C1107  O1292   1.385   .     S
C1108  O1293   1.385   .     S
C1109  O1294   1.385   .     S
C1110  O1295   1.385   .     S
C1111  O1207   1.385   .     S
C1112  O1296   1.385   .     S
C1113  C1129   1.392   .     A
C1113  O1297   1.385   .     S
C1114  O1298   1.385   .     S
C1114  C1128   1.392   .     A
C1115  C1127   1.392   .     A
C1115  O1299   1.385   .     S
C1116  O1300   1.385   .     S
C1116  C1126   1.392   .     A
C1117  O1301   1.385   .     S
C1117  C1125   1.392   .     A
C1118  C1124   1.392   .     A
C1118  O1303   1.385   .     S
C1119  O1304   1.385   .     S
C1119  C1123   1.392   .     A
C1120  O1305   1.385   .     S
C1120  C1121   1.392   .     A
C1121  O1306   1.385   .     S
C1122  O1208   1.383   .     S
C1123  O1307   1.385   .     S
C1124  O1308   1.385   .     S
C1125  O1309   1.385   .     S
C1126  O1310   1.385   .     S
C1127  O1311   1.385   .     S
C1128  O1312   1.385   .     S
C1129  O1199   1.385   .     S
C1130  C698    1.422   1_655 S
H1133  O1262   0.990   .     S
H1134  O1272   0.992   .     S
H1135  O1273   0.992   .     S
H1136  O1274   0.992   .     S
H1137  O1275   0.992   .     S
H1138  O1276   0.992   .     S
H1139  O1277   0.992   .     S
H1140  O1278   0.992   .     S
H1141  O1279   0.988   .     S
H1142  O1281   0.988   .     S
H1143  O1282   0.988   .     S
H1144  O1263   0.992   .     S
H1145  O1283   0.988   .     S
H1146  O1284   0.988   .     S
H1147  O1285   0.988   .     S
H1148  O1286   0.988   .     S
H1149  O1287   0.988   .     S
H1150  O1288   0.988   .     S
H1151  O1289   0.988   .     S
H1152  O1290   0.988   .     S
H1153  O1292   0.988   .     S
H1154  O1293   0.988   .     S
H1155  O1264   0.991   .     S
H1156  O1294   0.988   .     S
H1157  O1295   0.988   .     S
H1158  O1296   0.988   .     S
H1159  O1297   0.988   .     S
H1160  O1298   0.988   .     S
H1161  O1299   0.988   .     S
H1162  O1300   0.988   .     S
H1163  O1301   0.988   .     S
H1164  O1303   0.988   .     S
H1165  O1304   0.988   .     S
H1166  O1265   0.991   .     S
H1167  O1305   0.988   .     S
H1168  O1306   0.988   .     S
H1169  O1307   0.988   .     S
H1170  O1308   0.988   .     S
H1171  O1309   0.988   .     S
H1172  O1310   0.988   .     S
H1173  O1311   0.988   .     S
H1174  O1312   0.988   .     S
H1175  O1199   0.988   .     S
H1176  O1200   0.990   .     S
H1177  O1266   0.992   .     S
H1178  O1201   0.990   .     S
H1179  O1202   0.990   .     S
H1180  O1203   0.990   .     S
H1181  O1204   0.989   .     S
H1182  O1205   0.990   .     S
H1183  O1206   0.990   .     S
H1184  O1207   0.990   .     S
H1185  O1208   0.990   .     S
H1186  O1210   0.990   .     S
H1187  O1211   0.990   .     S
H1188  O1267   0.992   .     S
H1189  O1212   0.990   .     S
H1190  O1213   0.990   .     S
H1191  O1214   0.990   .     S
H1192  O1215   0.990   .     S
H1193  O1216   0.990   .     S
H1194  O1268   0.991   .     S
H1195  O1270   0.991   .     S
H1196  O1271   0.992   .     S
O1197  Zn1324  1.947   .     S
O1197  Zn1313  1.948   .     S
O1197  Zn1316  1.948   .     S
O1198  Zn1315  1.953   .     S
O1198  C406    1.278   1_565 S
O1209  Zn1318  1.953   .     S
O1209  C739    1.277   1_655 S
O1217  Zn1317  1.953   .     S
O1218  Zn1327  1.953   .     S
O1219  Zn1326  1.953   .     S
O1220  Zn1321  1.953   .     S
O1221  Zn1313  1.953   .     S
O1222  Zn1323  1.953   .     S
O1223  Zn1322  1.953   .     S
O1224  Zn1325  1.953   .     S
O1225  Zn1325  1.947   .     S
O1225  Zn1321  1.948   .     S
O1225  Zn1319  1.947   .     S
O1226  Zn1324  1.953   .     S
O1227  Zn1316  1.934   .     S
O1228  Zn1315  1.934   .     S
O1229  Zn1318  1.934   .     S
O1230  Zn1317  1.934   .     S
O1231  Zn1320  1.934   .     S
O1232  Zn1319  1.934   .     S
O1233  Zn1314  1.933   .     S
O1234  Zn1328  1.933   .     S
O1235  Zn1315  1.934   .     S
O1236  Zn1326  1.947   .     S
O1236  Zn1314  1.948   .     S
O1236  Zn1322  1.948   .     S
O1237  Zn1316  1.934   .     S
O1238  Zn1328  1.934   .     S
O1239  Zn1314  1.934   .     S
O1240  Zn1319  1.934   .     S
O1241  Zn1320  1.934   .     S
O1242  Zn1317  1.934   .     S
O1243  Zn1318  1.934   .     S
O1244  Zn991   1.934   1_655 S
O1245  Zn1322  1.934   .     S
O1246  Zn661   1.934   1_565 S
O1247  Zn1327  1.947   .     S
O1247  Zn1323  1.948   .     S
O1247  Zn1317  1.947   .     S
O1248  Zn1324  1.934   .     S
O1249  Zn1327  1.934   .     S
O1250  Zn994   1.934   1_655 S
O1251  Zn1321  1.933   .     S
O1252  Zn649   1.933   1_565 S
O1253  Zn990   1.934   1_655 S
O1254  Zn1323  1.934   .     S
O1255  Zn1313  1.934   .     S
O1256  Zn657   1.934   1_565 S
O1257  Zn1326  1.934   .     S
O1258  Zn1320  1.953   .     S
O1258  C405    1.278   1_565 A
O1259  Zn995   1.934   1_655 S
O1260  Zn660   1.934   1_565 S
O1261  Zn1325  1.934   .     S
O1269  Zn1319  1.953   .     S
O1280  Zn1314  1.953   .     S
O1291  Zn1328  1.953   .     S
O1291  C740    1.278   1_655 S
O1302  Zn1316  1.953   .     S
Zn1315 O561    1.948   1_565 S
Zn1318 O904    1.947   1_655 S
Zn1320 O533    1.947   1_565 S
Zn1328 O915    1.948   1_655 S
