data_str_m1_o10_o18_pcu_sym.43
_audit_creation_date              2020-01-03
_audit_creation_method            'Materials Studio'
_symmetry_space_group_name_H-M    'P1'
_symmetry_Int_Tables_number       1
_symmetry_cell_setting            triclinic
loop_
_symmetry_equiv_pos_as_xyz
  x,y,z
_cell_length_a                    32.5160
_cell_length_b                    32.6380
_cell_length_c                    35.8807
_cell_angle_alpha                 98.3608
_cell_angle_beta                  72.8786
_cell_angle_gamma                 98.2979
loop_
_atom_site_label
_atom_site_type_symbol
_atom_site_fract_x
_atom_site_fract_y
_atom_site_fract_z
_atom_site_U_iso_or_equiv
_atom_site_adp_type
_atom_site_occupancy
C1     C     0.05249   0.16005   0.25880   0.00000  Uiso   1.00
C2     C     0.20521   0.13797   0.45976   0.00000  Uiso   1.00
C3     C     0.22556   0.11818   0.47988   0.00000  Uiso   1.00
C4     C     0.28100   0.17357   0.24123   0.00000  Uiso   1.00
C5     C     0.21556   0.12478   0.02052   0.00000  Uiso   1.00
C6     C     0.18466   0.15245   0.04189   0.00000  Uiso   1.00
C7     C     0.23664   0.10405   0.04000   0.00000  Uiso   1.00
C8     C     0.22754   0.11043   0.08061   0.00000  Uiso   1.00
C9     C     0.17560   0.15773   0.08312   0.00000  Uiso   1.00
C10    C     0.32703   0.17610   0.23760   0.00000  Uiso   1.00
C11    C     0.00706   0.15799   0.26237   0.00000  Uiso   1.00
C12    C     0.10925   0.22680   0.42001   0.00000  Uiso   1.00
C13    C     0.17873   0.32196   0.23860   0.00000  Uiso   1.00
C14    C     0.15002   0.01255   0.26386   0.00000  Uiso   1.00
C15    C     0.15638   0.05631   0.25857   0.00000  Uiso   1.00
C16    C     0.17651   0.27766   0.24157   0.00000  Uiso   1.00
C17    C     0.18829   0.14521   0.14421   0.00000  Uiso   1.00
C18    C     0.14544   0.18786   0.35610   0.00000  Uiso   1.00
C19    C     0.13707   0.19725   0.39885   0.00000  Uiso   1.00
C20    C     0.19703   0.13718   0.10198   0.00000  Uiso   1.00
C21    C     0.10206   0.23526   0.46043   0.00000  Uiso   1.00
C22    C     0.08644   0.02309   0.31453   0.00000  Uiso   1.00
C23    C     0.15767   0.17645   0.41852   0.00000  Uiso   1.00
C24    C     0.15195   0.18523   0.45922   0.00000  Uiso   1.00
C25    C     0.12299   0.21470   0.48016   0.00000  Uiso   1.00
C26    C     0.17371   0.16533   0.47966   0.00000  Uiso   1.00
C27    C     0.16414   0.17361   0.02132   0.00000  Uiso   1.00
C28    C     0.13486   0.20315   0.04090   0.00000  Uiso   1.00
C29    C     0.11504   0.22340   0.02059   0.00000  Uiso   1.00
H30    H     0.09303   0.24597   0.03681   0.00000  Uiso   1.00
H31    H     0.12684   0.21206   0.07203   0.00000  Uiso   1.00
H32    H     0.31794   0.14154   0.28570   0.00000  Uiso   1.00
H33    H     0.07058   0.03149   0.29353   0.00000  Uiso   1.00
H34    H     0.10015   0.05141   0.32993   0.00000  Uiso   1.00
H35    H     0.06105   0.00656   0.33705   0.00000  Uiso   1.00
H36    H     0.15214   0.17750   0.10168   0.00000  Uiso   1.00
H37    H     0.21586   0.13152   0.42836   0.00000  Uiso   1.00
H38    H     0.26037   0.08309   0.02375   0.00000  Uiso   1.00
H39    H     0.01682   0.19268   0.21467   0.00000  Uiso   1.00
H40    H     0.20426   0.00202   0.21504   0.00000  Uiso   1.00
H41    H     0.24430   0.09464   0.09538   0.00000  Uiso   1.00
H42    H     0.24949   0.09750   0.46336   0.00000  Uiso   1.00
H43    H     0.08010   0.25799   0.47632   0.00000  Uiso   1.00
H44    H     0.09293   0.24324   0.40539   0.00000  Uiso   1.00
H45    H     0.17753   0.15306   0.40125   0.00000  Uiso   1.00
O46    O     0.16667   0.16667   0.25000   0.00000  Uiso   1.00
O47    O     0.15693   0.12393   0.16625   0.00000  Uiso   1.00
O48    O     0.12687   0.20646   0.33749   0.00000  Uiso   1.00
O49    O     0.21088   0.17493   0.15877   0.00000  Uiso   1.00
O50    O     0.17198   0.16135   0.33749   0.00000  Uiso   1.00
O51    O     0.11851   0.32953   0.29560   0.00000  Uiso   1.00
O52    O     0.17849   0.08101   0.27820   0.00000  Uiso   1.00
O53    O     0.14581   0.26136   0.26767   0.00000  Uiso   1.00
O54    O     0.07452   0.13251   0.23607   0.00000  Uiso   1.00
O55    O     0.26785   0.19179   0.21805   0.00000  Uiso   1.00
O56    O     0.06990   0.18960   0.27820   0.00000  Uiso   1.00
O57    O     0.25440   0.15277   0.26767   0.00000  Uiso   1.00
O58    O     0.13800   0.06903   0.23607   0.00000  Uiso   1.00
O59    O     0.20437   0.25527   0.21805   0.00000  Uiso   1.00
Zn60   Zn    0.19244   0.14090   0.28277   0.00000  Uiso   1.00
Zn61   Zn    0.13459   0.12378   0.22257   0.00000  Uiso   1.00
Zn62   Zn    0.21166   0.19664   0.21188   0.00000  Uiso   1.00
Zn63   Zn    0.12798   0.20535   0.28277   0.00000  Uiso   1.00
C64    C     0.38582   0.16005   0.25880   0.00000  Uiso   1.00
C65    C     0.53855   0.13797   0.45976   0.00000  Uiso   1.00
C66    C     0.55889   0.11818   0.47988   0.00000  Uiso   1.00
C67    C     0.61433   0.17357   0.24123   0.00000  Uiso   1.00
C68    C     0.54889   0.12478   0.02052   0.00000  Uiso   1.00
C69    C     0.51800   0.15245   0.04189   0.00000  Uiso   1.00
C70    C     0.56997   0.10405   0.04000   0.00000  Uiso   1.00
C71    C     0.56087   0.11043   0.08061   0.00000  Uiso   1.00
C72    C     0.50893   0.15773   0.08312   0.00000  Uiso   1.00
C73    C     0.66036   0.17610   0.23760   0.00000  Uiso   1.00
C74    C     0.34039   0.15799   0.26237   0.00000  Uiso   1.00
C75    C     0.44258   0.22680   0.42001   0.00000  Uiso   1.00
C76    C     0.51207   0.32196   0.23860   0.00000  Uiso   1.00
C77    C     0.48335   0.01255   0.26386   0.00000  Uiso   1.00
C78    C     0.48971   0.05631   0.25857   0.00000  Uiso   1.00
C79    C     0.50984   0.27766   0.24157   0.00000  Uiso   1.00
C80    C     0.52163   0.14521   0.14421   0.00000  Uiso   1.00
C81    C     0.47878   0.18786   0.35610   0.00000  Uiso   1.00
C82    C     0.47040   0.19725   0.39885   0.00000  Uiso   1.00
C83    C     0.53036   0.13718   0.10198   0.00000  Uiso   1.00
C84    C     0.43539   0.23526   0.46043   0.00000  Uiso   1.00
C85    C     0.41977   0.02309   0.31453   0.00000  Uiso   1.00
C86    C     0.49100   0.17645   0.41852   0.00000  Uiso   1.00
C87    C     0.48528   0.18523   0.45922   0.00000  Uiso   1.00
C88    C     0.45633   0.21470   0.48016   0.00000  Uiso   1.00
C89    C     0.50704   0.16533   0.47966   0.00000  Uiso   1.00
C90    C     0.49748   0.17361   0.02132   0.00000  Uiso   1.00
C91    C     0.46820   0.20315   0.04090   0.00000  Uiso   1.00
C92    C     0.44838   0.22340   0.02059   0.00000  Uiso   1.00
H93    H     0.42637   0.24597   0.03681   0.00000  Uiso   1.00
H94    H     0.46018   0.21206   0.07203   0.00000  Uiso   1.00
H95    H     0.65127   0.14154   0.28570   0.00000  Uiso   1.00
H96    H     0.40392   0.03149   0.29353   0.00000  Uiso   1.00
H97    H     0.43348   0.05141   0.32993   0.00000  Uiso   1.00
H98    H     0.39438   0.00656   0.33705   0.00000  Uiso   1.00
H99    H     0.48548   0.17750   0.10168   0.00000  Uiso   1.00
H100   H     0.54920   0.13152   0.42836   0.00000  Uiso   1.00
H101   H     0.59370   0.08309   0.02375   0.00000  Uiso   1.00
H102   H     0.35015   0.19268   0.21467   0.00000  Uiso   1.00
H103   H     0.53759   0.00202   0.21504   0.00000  Uiso   1.00
H104   H     0.57763   0.09464   0.09538   0.00000  Uiso   1.00
H105   H     0.58282   0.09750   0.46336   0.00000  Uiso   1.00
H106   H     0.41344   0.25799   0.47632   0.00000  Uiso   1.00
H107   H     0.42627   0.24324   0.40539   0.00000  Uiso   1.00
H108   H     0.51087   0.15306   0.40125   0.00000  Uiso   1.00
O109   O     0.50000   0.16667   0.25000   0.00000  Uiso   1.00
O110   O     0.49027   0.12393   0.16625   0.00000  Uiso   1.00
O111   O     0.46020   0.20646   0.33749   0.00000  Uiso   1.00
O112   O     0.54421   0.17493   0.15877   0.00000  Uiso   1.00
O113   O     0.50532   0.16135   0.33749   0.00000  Uiso   1.00
O114   O     0.45185   0.32953   0.29560   0.00000  Uiso   1.00
O115   O     0.51182   0.08101   0.27820   0.00000  Uiso   1.00
O116   O     0.47914   0.26136   0.26767   0.00000  Uiso   1.00
O117   O     0.40785   0.13251   0.23607   0.00000  Uiso   1.00
O118   O     0.60119   0.19179   0.21805   0.00000  Uiso   1.00
O119   O     0.40323   0.18960   0.27820   0.00000  Uiso   1.00
O120   O     0.58773   0.15277   0.26767   0.00000  Uiso   1.00
O121   O     0.47133   0.06903   0.23607   0.00000  Uiso   1.00
O122   O     0.53771   0.25527   0.21805   0.00000  Uiso   1.00
Zn123  Zn    0.52577   0.14090   0.28277   0.00000  Uiso   1.00
Zn124  Zn    0.46792   0.12378   0.22257   0.00000  Uiso   1.00
Zn125  Zn    0.54500   0.19664   0.21188   0.00000  Uiso   1.00
Zn126  Zn    0.46131   0.20535   0.28277   0.00000  Uiso   1.00
C127   C     0.71916   0.16005   0.25880   0.00000  Uiso   1.00
C128   C     0.87188   0.13797   0.45976   0.00000  Uiso   1.00
C129   C     0.89223   0.11818   0.47988   0.00000  Uiso   1.00
C130   C     0.94766   0.17357   0.24123   0.00000  Uiso   1.00
C131   C     0.88223   0.12478   0.02052   0.00000  Uiso   1.00
C132   C     0.85133   0.15245   0.04189   0.00000  Uiso   1.00
C133   C     0.90330   0.10405   0.04000   0.00000  Uiso   1.00
C134   C     0.89420   0.11043   0.08061   0.00000  Uiso   1.00
C135   C     0.84226   0.15773   0.08312   0.00000  Uiso   1.00
C136   C     0.99370   0.17610   0.23760   0.00000  Uiso   1.00
C137   C     0.67373   0.15799   0.26237   0.00000  Uiso   1.00
C138   C     0.77592   0.22680   0.42001   0.00000  Uiso   1.00
C139   C     0.84540   0.32196   0.23860   0.00000  Uiso   1.00
C140   C     0.81669   0.01255   0.26386   0.00000  Uiso   1.00
C141   C     0.82304   0.05631   0.25857   0.00000  Uiso   1.00
C142   C     0.84318   0.27766   0.24157   0.00000  Uiso   1.00
C143   C     0.85496   0.14521   0.14421   0.00000  Uiso   1.00
C144   C     0.81211   0.18786   0.35610   0.00000  Uiso   1.00
C145   C     0.80373   0.19725   0.39885   0.00000  Uiso   1.00
C146   C     0.86369   0.13718   0.10198   0.00000  Uiso   1.00
C147   C     0.76872   0.23526   0.46043   0.00000  Uiso   1.00
C148   C     0.75310   0.02309   0.31453   0.00000  Uiso   1.00
C149   C     0.82434   0.17645   0.41852   0.00000  Uiso   1.00
C150   C     0.81861   0.18523   0.45922   0.00000  Uiso   1.00
C151   C     0.78966   0.21470   0.48016   0.00000  Uiso   1.00
C152   C     0.84038   0.16533   0.47966   0.00000  Uiso   1.00
C153   C     0.83081   0.17361   0.02132   0.00000  Uiso   1.00
C154   C     0.80153   0.20315   0.04090   0.00000  Uiso   1.00
C155   C     0.78171   0.22340   0.02059   0.00000  Uiso   1.00
H156   H     0.75970   0.24597   0.03681   0.00000  Uiso   1.00
H157   H     0.79351   0.21206   0.07203   0.00000  Uiso   1.00
H158   H     0.98461   0.14154   0.28570   0.00000  Uiso   1.00
H159   H     0.73725   0.03149   0.29353   0.00000  Uiso   1.00
H160   H     0.76681   0.05141   0.32993   0.00000  Uiso   1.00
H161   H     0.72772   0.00656   0.33705   0.00000  Uiso   1.00
H162   H     0.81881   0.17750   0.10168   0.00000  Uiso   1.00
H163   H     0.88253   0.13152   0.42836   0.00000  Uiso   1.00
H164   H     0.92704   0.08309   0.02375   0.00000  Uiso   1.00
H165   H     0.68348   0.19268   0.21467   0.00000  Uiso   1.00
H166   H     0.87093   0.00202   0.21504   0.00000  Uiso   1.00
H167   H     0.91096   0.09464   0.09538   0.00000  Uiso   1.00
H168   H     0.91616   0.09750   0.46336   0.00000  Uiso   1.00
H169   H     0.74677   0.25799   0.47632   0.00000  Uiso   1.00
H170   H     0.75960   0.24324   0.40539   0.00000  Uiso   1.00
H171   H     0.84420   0.15306   0.40125   0.00000  Uiso   1.00
O172   O     0.83333   0.16667   0.25000   0.00000  Uiso   1.00
O173   O     0.82360   0.12393   0.16625   0.00000  Uiso   1.00
O174   O     0.79354   0.20646   0.33749   0.00000  Uiso   1.00
O175   O     0.87755   0.17493   0.15877   0.00000  Uiso   1.00
O176   O     0.83865   0.16135   0.33749   0.00000  Uiso   1.00
O177   O     0.78518   0.32953   0.29560   0.00000  Uiso   1.00
O178   O     0.84515   0.08101   0.27820   0.00000  Uiso   1.00
O179   O     0.81247   0.26136   0.26767   0.00000  Uiso   1.00
O180   O     0.74119   0.13251   0.23607   0.00000  Uiso   1.00
O181   O     0.93452   0.19179   0.21805   0.00000  Uiso   1.00
O182   O     0.73656   0.18960   0.27820   0.00000  Uiso   1.00
O183   O     0.92106   0.15277   0.26767   0.00000  Uiso   1.00
O184   O     0.80467   0.06903   0.23607   0.00000  Uiso   1.00
O185   O     0.87104   0.25527   0.21805   0.00000  Uiso   1.00
Zn186  Zn    0.85910   0.14090   0.28277   0.00000  Uiso   1.00
Zn187  Zn    0.80125   0.12378   0.22257   0.00000  Uiso   1.00
Zn188  Zn    0.87833   0.19664   0.21188   0.00000  Uiso   1.00
Zn189  Zn    0.79465   0.20535   0.28277   0.00000  Uiso   1.00
C190   C     0.05249   0.49339   0.25880   0.00000  Uiso   1.00
C191   C     0.20521   0.47130   0.45976   0.00000  Uiso   1.00
C192   C     0.22556   0.45152   0.47988   0.00000  Uiso   1.00
C193   C     0.28100   0.50690   0.24123   0.00000  Uiso   1.00
C194   C     0.21556   0.45811   0.02052   0.00000  Uiso   1.00
C195   C     0.18466   0.48578   0.04189   0.00000  Uiso   1.00
C196   C     0.23664   0.43739   0.04000   0.00000  Uiso   1.00
C197   C     0.22754   0.44376   0.08061   0.00000  Uiso   1.00
C198   C     0.17560   0.49107   0.08312   0.00000  Uiso   1.00
C199   C     0.32703   0.50943   0.23760   0.00000  Uiso   1.00
C200   C     0.00706   0.49133   0.26237   0.00000  Uiso   1.00
C201   C     0.10925   0.56013   0.42001   0.00000  Uiso   1.00
C202   C     0.17873   0.65529   0.23860   0.00000  Uiso   1.00
C203   C     0.15002   0.34588   0.26386   0.00000  Uiso   1.00
C204   C     0.15638   0.38964   0.25857   0.00000  Uiso   1.00
C205   C     0.17651   0.61099   0.24157   0.00000  Uiso   1.00
C206   C     0.18829   0.47855   0.14421   0.00000  Uiso   1.00
C207   C     0.14544   0.52119   0.35610   0.00000  Uiso   1.00
C208   C     0.13707   0.53058   0.39885   0.00000  Uiso   1.00
C209   C     0.19703   0.47051   0.10198   0.00000  Uiso   1.00
C210   C     0.10206   0.56860   0.46043   0.00000  Uiso   1.00
C211   C     0.08644   0.35642   0.31453   0.00000  Uiso   1.00
C212   C     0.15767   0.50979   0.41852   0.00000  Uiso   1.00
C213   C     0.15195   0.51856   0.45922   0.00000  Uiso   1.00
C214   C     0.12299   0.54803   0.48016   0.00000  Uiso   1.00
C215   C     0.17371   0.49867   0.47966   0.00000  Uiso   1.00
C216   C     0.16414   0.50695   0.02132   0.00000  Uiso   1.00
C217   C     0.13486   0.53649   0.04090   0.00000  Uiso   1.00
C218   C     0.11504   0.55673   0.02059   0.00000  Uiso   1.00
H219   H     0.09303   0.57930   0.03681   0.00000  Uiso   1.00
H220   H     0.12684   0.54540   0.07203   0.00000  Uiso   1.00
H221   H     0.31794   0.47487   0.28570   0.00000  Uiso   1.00
H222   H     0.07058   0.36482   0.29353   0.00000  Uiso   1.00
H223   H     0.10015   0.38475   0.32993   0.00000  Uiso   1.00
H224   H     0.06105   0.33989   0.33705   0.00000  Uiso   1.00
H225   H     0.15214   0.51083   0.10168   0.00000  Uiso   1.00
H226   H     0.21586   0.46486   0.42836   0.00000  Uiso   1.00
H227   H     0.26037   0.41642   0.02375   0.00000  Uiso   1.00
H228   H     0.01682   0.52601   0.21467   0.00000  Uiso   1.00
H229   H     0.20426   0.33535   0.21504   0.00000  Uiso   1.00
H230   H     0.24430   0.42797   0.09538   0.00000  Uiso   1.00
H231   H     0.24949   0.43083   0.46336   0.00000  Uiso   1.00
H232   H     0.08010   0.59132   0.47632   0.00000  Uiso   1.00
H233   H     0.09293   0.57657   0.40539   0.00000  Uiso   1.00
H234   H     0.17753   0.48639   0.40125   0.00000  Uiso   1.00
O235   O     0.16667   0.50000   0.25000   0.00000  Uiso   1.00
O236   O     0.15693   0.45726   0.16625   0.00000  Uiso   1.00
O237   O     0.12687   0.53979   0.33749   0.00000  Uiso   1.00
O238   O     0.21088   0.50826   0.15877   0.00000  Uiso   1.00
O239   O     0.17198   0.49468   0.33749   0.00000  Uiso   1.00
O240   O     0.11851   0.66286   0.29560   0.00000  Uiso   1.00
O241   O     0.17849   0.41434   0.27820   0.00000  Uiso   1.00
O242   O     0.14581   0.59469   0.26767   0.00000  Uiso   1.00
O243   O     0.07452   0.46584   0.23607   0.00000  Uiso   1.00
O244   O     0.26785   0.52512   0.21805   0.00000  Uiso   1.00
O245   O     0.06990   0.52293   0.27820   0.00000  Uiso   1.00
O246   O     0.25440   0.48610   0.26767   0.00000  Uiso   1.00
O247   O     0.13800   0.40236   0.23607   0.00000  Uiso   1.00
O248   O     0.20437   0.58860   0.21805   0.00000  Uiso   1.00
Zn249  Zn    0.19244   0.47423   0.28277   0.00000  Uiso   1.00
Zn250  Zn    0.13459   0.45711   0.22257   0.00000  Uiso   1.00
Zn251  Zn    0.21166   0.52997   0.21188   0.00000  Uiso   1.00
Zn252  Zn    0.12798   0.53868   0.28277   0.00000  Uiso   1.00
C253   C     0.38582   0.49339   0.25880   0.00000  Uiso   1.00
C254   C     0.53855   0.47130   0.45976   0.00000  Uiso   1.00
C255   C     0.55889   0.45152   0.47988   0.00000  Uiso   1.00
C256   C     0.61433   0.50690   0.24123   0.00000  Uiso   1.00
C257   C     0.54889   0.45811   0.02052   0.00000  Uiso   1.00
C258   C     0.51800   0.48578   0.04189   0.00000  Uiso   1.00
C259   C     0.56997   0.43739   0.04000   0.00000  Uiso   1.00
C260   C     0.56087   0.44376   0.08061   0.00000  Uiso   1.00
C261   C     0.50893   0.49107   0.08312   0.00000  Uiso   1.00
C262   C     0.66036   0.50943   0.23760   0.00000  Uiso   1.00
C263   C     0.34039   0.49133   0.26237   0.00000  Uiso   1.00
C264   C     0.44258   0.56013   0.42001   0.00000  Uiso   1.00
C265   C     0.51207   0.65529   0.23860   0.00000  Uiso   1.00
C266   C     0.48335   0.34588   0.26386   0.00000  Uiso   1.00
C267   C     0.48971   0.38964   0.25857   0.00000  Uiso   1.00
C268   C     0.50984   0.61099   0.24157   0.00000  Uiso   1.00
C269   C     0.52163   0.47855   0.14421   0.00000  Uiso   1.00
C270   C     0.47878   0.52119   0.35610   0.00000  Uiso   1.00
C271   C     0.47040   0.53058   0.39885   0.00000  Uiso   1.00
C272   C     0.53036   0.47051   0.10198   0.00000  Uiso   1.00
C273   C     0.43539   0.56860   0.46043   0.00000  Uiso   1.00
C274   C     0.41977   0.35642   0.31453   0.00000  Uiso   1.00
C275   C     0.49100   0.50979   0.41852   0.00000  Uiso   1.00
C276   C     0.48528   0.51856   0.45922   0.00000  Uiso   1.00
C277   C     0.45633   0.54803   0.48016   0.00000  Uiso   1.00
C278   C     0.50704   0.49867   0.47966   0.00000  Uiso   1.00
C279   C     0.49748   0.50695   0.02132   0.00000  Uiso   1.00
C280   C     0.46820   0.53649   0.04090   0.00000  Uiso   1.00
C281   C     0.44838   0.55673   0.02059   0.00000  Uiso   1.00
H282   H     0.42637   0.57930   0.03681   0.00000  Uiso   1.00
H283   H     0.46018   0.54540   0.07203   0.00000  Uiso   1.00
H284   H     0.65127   0.47487   0.28570   0.00000  Uiso   1.00
H285   H     0.40392   0.36482   0.29353   0.00000  Uiso   1.00
H286   H     0.43348   0.38475   0.32993   0.00000  Uiso   1.00
H287   H     0.39438   0.33989   0.33705   0.00000  Uiso   1.00
H288   H     0.48548   0.51083   0.10168   0.00000  Uiso   1.00
H289   H     0.54920   0.46486   0.42836   0.00000  Uiso   1.00
H290   H     0.59370   0.41642   0.02375   0.00000  Uiso   1.00
H291   H     0.35015   0.52601   0.21467   0.00000  Uiso   1.00
H292   H     0.53759   0.33535   0.21504   0.00000  Uiso   1.00
H293   H     0.57763   0.42797   0.09538   0.00000  Uiso   1.00
H294   H     0.58282   0.43083   0.46336   0.00000  Uiso   1.00
H295   H     0.41344   0.59132   0.47632   0.00000  Uiso   1.00
H296   H     0.42627   0.57657   0.40539   0.00000  Uiso   1.00
H297   H     0.51087   0.48639   0.40125   0.00000  Uiso   1.00
O298   O     0.50000   0.50000   0.25000   0.00000  Uiso   1.00
O299   O     0.49027   0.45726   0.16625   0.00000  Uiso   1.00
O300   O     0.46020   0.53979   0.33749   0.00000  Uiso   1.00
O301   O     0.54421   0.50826   0.15877   0.00000  Uiso   1.00
O302   O     0.50532   0.49468   0.33749   0.00000  Uiso   1.00
O303   O     0.45185   0.66286   0.29560   0.00000  Uiso   1.00
O304   O     0.51182   0.41434   0.27820   0.00000  Uiso   1.00
O305   O     0.47914   0.59469   0.26767   0.00000  Uiso   1.00
O306   O     0.40785   0.46584   0.23607   0.00000  Uiso   1.00
O307   O     0.60119   0.52512   0.21805   0.00000  Uiso   1.00
O308   O     0.40323   0.52293   0.27820   0.00000  Uiso   1.00
O309   O     0.58773   0.48610   0.26767   0.00000  Uiso   1.00
O310   O     0.47133   0.40236   0.23607   0.00000  Uiso   1.00
O311   O     0.53771   0.58860   0.21805   0.00000  Uiso   1.00
Zn312  Zn    0.52577   0.47423   0.28277   0.00000  Uiso   1.00
Zn313  Zn    0.46792   0.45711   0.22257   0.00000  Uiso   1.00
Zn314  Zn    0.54500   0.52997   0.21188   0.00000  Uiso   1.00
Zn315  Zn    0.46131   0.53868   0.28277   0.00000  Uiso   1.00
C316   C     0.71916   0.49339   0.25880   0.00000  Uiso   1.00
C317   C     0.87188   0.47130   0.45976   0.00000  Uiso   1.00
C318   C     0.89223   0.45152   0.47988   0.00000  Uiso   1.00
C319   C     0.94766   0.50690   0.24123   0.00000  Uiso   1.00
C320   C     0.88223   0.45811   0.02052   0.00000  Uiso   1.00
C321   C     0.85133   0.48578   0.04189   0.00000  Uiso   1.00
C322   C     0.90330   0.43739   0.04000   0.00000  Uiso   1.00
C323   C     0.89420   0.44376   0.08061   0.00000  Uiso   1.00
C324   C     0.84226   0.49107   0.08312   0.00000  Uiso   1.00
C325   C     0.99370   0.50943   0.23760   0.00000  Uiso   1.00
C326   C     0.67373   0.49133   0.26237   0.00000  Uiso   1.00
C327   C     0.77592   0.56013   0.42001   0.00000  Uiso   1.00
C328   C     0.84540   0.65529   0.23860   0.00000  Uiso   1.00
C329   C     0.81669   0.34588   0.26386   0.00000  Uiso   1.00
C330   C     0.82304   0.38964   0.25857   0.00000  Uiso   1.00
C331   C     0.84318   0.61099   0.24157   0.00000  Uiso   1.00
C332   C     0.85496   0.47855   0.14421   0.00000  Uiso   1.00
C333   C     0.81211   0.52119   0.35610   0.00000  Uiso   1.00
C334   C     0.80373   0.53058   0.39885   0.00000  Uiso   1.00
C335   C     0.86369   0.47051   0.10198   0.00000  Uiso   1.00
C336   C     0.76872   0.56860   0.46043   0.00000  Uiso   1.00
C337   C     0.75310   0.35642   0.31453   0.00000  Uiso   1.00
C338   C     0.82434   0.50979   0.41852   0.00000  Uiso   1.00
C339   C     0.81861   0.51856   0.45922   0.00000  Uiso   1.00
C340   C     0.78966   0.54803   0.48016   0.00000  Uiso   1.00
C341   C     0.84038   0.49867   0.47966   0.00000  Uiso   1.00
C342   C     0.83081   0.50695   0.02132   0.00000  Uiso   1.00
C343   C     0.80153   0.53649   0.04090   0.00000  Uiso   1.00
C344   C     0.78171   0.55673   0.02059   0.00000  Uiso   1.00
H345   H     0.75970   0.57930   0.03681   0.00000  Uiso   1.00
H346   H     0.79351   0.54540   0.07203   0.00000  Uiso   1.00
H347   H     0.98461   0.47487   0.28570   0.00000  Uiso   1.00
H348   H     0.73725   0.36482   0.29353   0.00000  Uiso   1.00
H349   H     0.76681   0.38475   0.32993   0.00000  Uiso   1.00
H350   H     0.72772   0.33989   0.33705   0.00000  Uiso   1.00
H351   H     0.81881   0.51083   0.10168   0.00000  Uiso   1.00
H352   H     0.88253   0.46486   0.42836   0.00000  Uiso   1.00
H353   H     0.92704   0.41642   0.02375   0.00000  Uiso   1.00
H354   H     0.68348   0.52601   0.21467   0.00000  Uiso   1.00
H355   H     0.87093   0.33535   0.21504   0.00000  Uiso   1.00
H356   H     0.91096   0.42797   0.09538   0.00000  Uiso   1.00
H357   H     0.91616   0.43083   0.46336   0.00000  Uiso   1.00
H358   H     0.74677   0.59132   0.47632   0.00000  Uiso   1.00
H359   H     0.75960   0.57657   0.40539   0.00000  Uiso   1.00
H360   H     0.84420   0.48639   0.40125   0.00000  Uiso   1.00
O361   O     0.83333   0.50000   0.25000   0.00000  Uiso   1.00
O362   O     0.82360   0.45726   0.16625   0.00000  Uiso   1.00
O363   O     0.79354   0.53979   0.33749   0.00000  Uiso   1.00
O364   O     0.87755   0.50826   0.15877   0.00000  Uiso   1.00
O365   O     0.83865   0.49468   0.33749   0.00000  Uiso   1.00
O366   O     0.78518   0.66286   0.29560   0.00000  Uiso   1.00
O367   O     0.84515   0.41434   0.27820   0.00000  Uiso   1.00
O368   O     0.81247   0.59469   0.26767   0.00000  Uiso   1.00
O369   O     0.74119   0.46584   0.23607   0.00000  Uiso   1.00
O370   O     0.93452   0.52512   0.21805   0.00000  Uiso   1.00
O371   O     0.73656   0.52293   0.27820   0.00000  Uiso   1.00
O372   O     0.92106   0.48610   0.26767   0.00000  Uiso   1.00
O373   O     0.80467   0.40236   0.23607   0.00000  Uiso   1.00
O374   O     0.87104   0.58860   0.21805   0.00000  Uiso   1.00
Zn375  Zn    0.85910   0.47423   0.28277   0.00000  Uiso   1.00
Zn376  Zn    0.80125   0.45711   0.22257   0.00000  Uiso   1.00
Zn377  Zn    0.87833   0.52997   0.21188   0.00000  Uiso   1.00
Zn378  Zn    0.79465   0.53868   0.28277   0.00000  Uiso   1.00
C379   C     0.05249   0.82672   0.25880   0.00000  Uiso   1.00
C380   C     0.20521   0.80463   0.45976   0.00000  Uiso   1.00
C381   C     0.22556   0.78485   0.47988   0.00000  Uiso   1.00
C382   C     0.28100   0.84023   0.24123   0.00000  Uiso   1.00
C383   C     0.21556   0.79145   0.02052   0.00000  Uiso   1.00
C384   C     0.18466   0.81912   0.04189   0.00000  Uiso   1.00
C385   C     0.23664   0.77072   0.04000   0.00000  Uiso   1.00
C386   C     0.22754   0.77709   0.08061   0.00000  Uiso   1.00
C387   C     0.17560   0.82440   0.08312   0.00000  Uiso   1.00
C388   C     0.32703   0.84276   0.23760   0.00000  Uiso   1.00
C389   C     0.00706   0.82466   0.26237   0.00000  Uiso   1.00
C390   C     0.10925   0.89346   0.42001   0.00000  Uiso   1.00
C391   C     0.17873   0.98862   0.23860   0.00000  Uiso   1.00
C392   C     0.15002   0.67921   0.26386   0.00000  Uiso   1.00
C393   C     0.15638   0.72298   0.25857   0.00000  Uiso   1.00
C394   C     0.17651   0.94433   0.24157   0.00000  Uiso   1.00
C395   C     0.18829   0.81188   0.14421   0.00000  Uiso   1.00
C396   C     0.14544   0.85452   0.35610   0.00000  Uiso   1.00
C397   C     0.13707   0.86391   0.39885   0.00000  Uiso   1.00
C398   C     0.19703   0.80385   0.10198   0.00000  Uiso   1.00
C399   C     0.10206   0.90193   0.46043   0.00000  Uiso   1.00
C400   C     0.08644   0.68975   0.31453   0.00000  Uiso   1.00
C401   C     0.15767   0.84312   0.41852   0.00000  Uiso   1.00
C402   C     0.15195   0.85189   0.45922   0.00000  Uiso   1.00
C403   C     0.12299   0.88136   0.48016   0.00000  Uiso   1.00
C404   C     0.17371   0.83200   0.47966   0.00000  Uiso   1.00
C405   C     0.16414   0.84028   0.02132   0.00000  Uiso   1.00
C406   C     0.13486   0.86982   0.04090   0.00000  Uiso   1.00
C407   C     0.11504   0.89007   0.02059   0.00000  Uiso   1.00
H408   H     0.09303   0.91264   0.03681   0.00000  Uiso   1.00
H409   H     0.12684   0.87873   0.07203   0.00000  Uiso   1.00
H410   H     0.31794   0.80820   0.28570   0.00000  Uiso   1.00
H411   H     0.07058   0.69815   0.29353   0.00000  Uiso   1.00
H412   H     0.10015   0.71808   0.32993   0.00000  Uiso   1.00
H413   H     0.06105   0.67323   0.33705   0.00000  Uiso   1.00
H414   H     0.15214   0.84417   0.10168   0.00000  Uiso   1.00
H415   H     0.21586   0.79819   0.42836   0.00000  Uiso   1.00
H416   H     0.26037   0.74976   0.02375   0.00000  Uiso   1.00
H417   H     0.01682   0.85935   0.21467   0.00000  Uiso   1.00
H418   H     0.20426   0.66868   0.21504   0.00000  Uiso   1.00
H419   H     0.24430   0.76130   0.09538   0.00000  Uiso   1.00
H420   H     0.24949   0.76417   0.46336   0.00000  Uiso   1.00
H421   H     0.08010   0.92466   0.47632   0.00000  Uiso   1.00
H422   H     0.09293   0.90990   0.40539   0.00000  Uiso   1.00
H423   H     0.17753   0.81972   0.40125   0.00000  Uiso   1.00
O424   O     0.16667   0.83333   0.25000   0.00000  Uiso   1.00
O425   O     0.15693   0.79060   0.16625   0.00000  Uiso   1.00
O426   O     0.12687   0.87313   0.33749   0.00000  Uiso   1.00
O427   O     0.21088   0.84159   0.15877   0.00000  Uiso   1.00
O428   O     0.17198   0.82802   0.33749   0.00000  Uiso   1.00
O429   O     0.11851   0.99620   0.29560   0.00000  Uiso   1.00
O430   O     0.17849   0.74768   0.27820   0.00000  Uiso   1.00
O431   O     0.14581   0.92803   0.26767   0.00000  Uiso   1.00
O432   O     0.07452   0.79917   0.23607   0.00000  Uiso   1.00
O433   O     0.26785   0.85845   0.21805   0.00000  Uiso   1.00
O434   O     0.06990   0.85627   0.27820   0.00000  Uiso   1.00
O435   O     0.25440   0.81944   0.26767   0.00000  Uiso   1.00
O436   O     0.13800   0.73570   0.23607   0.00000  Uiso   1.00
O437   O     0.20437   0.92193   0.21805   0.00000  Uiso   1.00
Zn438  Zn    0.19244   0.80756   0.28277   0.00000  Uiso   1.00
Zn439  Zn    0.13459   0.79044   0.22257   0.00000  Uiso   1.00
Zn440  Zn    0.21166   0.86331   0.21188   0.00000  Uiso   1.00
Zn441  Zn    0.12798   0.87202   0.28277   0.00000  Uiso   1.00
C442   C     0.38582   0.82672   0.25880   0.00000  Uiso   1.00
C443   C     0.53855   0.80463   0.45976   0.00000  Uiso   1.00
C444   C     0.55889   0.78485   0.47988   0.00000  Uiso   1.00
C445   C     0.61433   0.84023   0.24123   0.00000  Uiso   1.00
C446   C     0.54889   0.79145   0.02052   0.00000  Uiso   1.00
C447   C     0.51800   0.81912   0.04189   0.00000  Uiso   1.00
C448   C     0.56997   0.77072   0.04000   0.00000  Uiso   1.00
C449   C     0.56087   0.77709   0.08061   0.00000  Uiso   1.00
C450   C     0.50893   0.82440   0.08312   0.00000  Uiso   1.00
C451   C     0.66036   0.84276   0.23760   0.00000  Uiso   1.00
C452   C     0.34039   0.82466   0.26237   0.00000  Uiso   1.00
C453   C     0.44258   0.89346   0.42001   0.00000  Uiso   1.00
C454   C     0.51207   0.98862   0.23860   0.00000  Uiso   1.00
C455   C     0.48335   0.67921   0.26386   0.00000  Uiso   1.00
C456   C     0.48971   0.72298   0.25857   0.00000  Uiso   1.00
C457   C     0.50984   0.94433   0.24157   0.00000  Uiso   1.00
C458   C     0.52163   0.81188   0.14421   0.00000  Uiso   1.00
C459   C     0.47878   0.85452   0.35610   0.00000  Uiso   1.00
C460   C     0.47040   0.86391   0.39885   0.00000  Uiso   1.00
C461   C     0.53036   0.80385   0.10198   0.00000  Uiso   1.00
C462   C     0.43539   0.90193   0.46043   0.00000  Uiso   1.00
C463   C     0.41977   0.68975   0.31453   0.00000  Uiso   1.00
C464   C     0.49100   0.84312   0.41852   0.00000  Uiso   1.00
C465   C     0.48528   0.85189   0.45922   0.00000  Uiso   1.00
C466   C     0.45633   0.88136   0.48016   0.00000  Uiso   1.00
C467   C     0.50704   0.83200   0.47966   0.00000  Uiso   1.00
C468   C     0.49748   0.84028   0.02132   0.00000  Uiso   1.00
C469   C     0.46820   0.86982   0.04090   0.00000  Uiso   1.00
C470   C     0.44838   0.89007   0.02059   0.00000  Uiso   1.00
H471   H     0.42637   0.91264   0.03681   0.00000  Uiso   1.00
H472   H     0.46018   0.87873   0.07203   0.00000  Uiso   1.00
H473   H     0.65127   0.80820   0.28570   0.00000  Uiso   1.00
H474   H     0.40392   0.69815   0.29353   0.00000  Uiso   1.00
H475   H     0.43348   0.71808   0.32993   0.00000  Uiso   1.00
H476   H     0.39438   0.67323   0.33705   0.00000  Uiso   1.00
H477   H     0.48548   0.84417   0.10168   0.00000  Uiso   1.00
H478   H     0.54920   0.79819   0.42836   0.00000  Uiso   1.00
H479   H     0.59370   0.74976   0.02375   0.00000  Uiso   1.00
H480   H     0.35015   0.85935   0.21467   0.00000  Uiso   1.00
H481   H     0.53759   0.66868   0.21504   0.00000  Uiso   1.00
H482   H     0.57763   0.76130   0.09538   0.00000  Uiso   1.00
H483   H     0.58282   0.76417   0.46336   0.00000  Uiso   1.00
H484   H     0.41344   0.92466   0.47632   0.00000  Uiso   1.00
H485   H     0.42627   0.90990   0.40539   0.00000  Uiso   1.00
H486   H     0.51087   0.81972   0.40125   0.00000  Uiso   1.00
O487   O     0.50000   0.83333   0.25000   0.00000  Uiso   1.00
O488   O     0.49027   0.79060   0.16625   0.00000  Uiso   1.00
O489   O     0.46020   0.87313   0.33749   0.00000  Uiso   1.00
O490   O     0.54421   0.84159   0.15877   0.00000  Uiso   1.00
O491   O     0.50532   0.82802   0.33749   0.00000  Uiso   1.00
O492   O     0.45185   0.99620   0.29560   0.00000  Uiso   1.00
O493   O     0.51182   0.74768   0.27820   0.00000  Uiso   1.00
O494   O     0.47914   0.92803   0.26767   0.00000  Uiso   1.00
O495   O     0.40785   0.79917   0.23607   0.00000  Uiso   1.00
O496   O     0.60119   0.85845   0.21805   0.00000  Uiso   1.00
O497   O     0.40323   0.85627   0.27820   0.00000  Uiso   1.00
O498   O     0.58773   0.81944   0.26767   0.00000  Uiso   1.00
O499   O     0.47133   0.73570   0.23607   0.00000  Uiso   1.00
O500   O     0.53771   0.92193   0.21805   0.00000  Uiso   1.00
Zn501  Zn    0.52577   0.80756   0.28277   0.00000  Uiso   1.00
Zn502  Zn    0.46792   0.79044   0.22257   0.00000  Uiso   1.00
Zn503  Zn    0.54500   0.86331   0.21188   0.00000  Uiso   1.00
Zn504  Zn    0.46131   0.87202   0.28277   0.00000  Uiso   1.00
C505   C     0.71916   0.82672   0.25880   0.00000  Uiso   1.00
C506   C     0.87188   0.80463   0.45976   0.00000  Uiso   1.00
C507   C     0.89223   0.78485   0.47988   0.00000  Uiso   1.00
C508   C     0.94766   0.84023   0.24123   0.00000  Uiso   1.00
C509   C     0.88223   0.79145   0.02052   0.00000  Uiso   1.00
C510   C     0.85133   0.81912   0.04189   0.00000  Uiso   1.00
C511   C     0.90330   0.77072   0.04000   0.00000  Uiso   1.00
C512   C     0.89420   0.77709   0.08061   0.00000  Uiso   1.00
C513   C     0.84226   0.82440   0.08312   0.00000  Uiso   1.00
C514   C     0.99370   0.84276   0.23760   0.00000  Uiso   1.00
C515   C     0.67373   0.82466   0.26237   0.00000  Uiso   1.00
C516   C     0.77592   0.89346   0.42001   0.00000  Uiso   1.00
C517   C     0.84540   0.98862   0.23860   0.00000  Uiso   1.00
C518   C     0.81669   0.67921   0.26386   0.00000  Uiso   1.00
C519   C     0.82304   0.72298   0.25857   0.00000  Uiso   1.00
C520   C     0.84318   0.94433   0.24157   0.00000  Uiso   1.00
C521   C     0.85496   0.81188   0.14421   0.00000  Uiso   1.00
C522   C     0.81211   0.85452   0.35610   0.00000  Uiso   1.00
C523   C     0.80373   0.86391   0.39885   0.00000  Uiso   1.00
C524   C     0.86369   0.80385   0.10198   0.00000  Uiso   1.00
C525   C     0.76872   0.90193   0.46043   0.00000  Uiso   1.00
C526   C     0.75310   0.68975   0.31453   0.00000  Uiso   1.00
C527   C     0.82434   0.84312   0.41852   0.00000  Uiso   1.00
C528   C     0.81861   0.85189   0.45922   0.00000  Uiso   1.00
C529   C     0.78966   0.88136   0.48016   0.00000  Uiso   1.00
C530   C     0.84038   0.83200   0.47966   0.00000  Uiso   1.00
C531   C     0.83081   0.84028   0.02132   0.00000  Uiso   1.00
C532   C     0.80153   0.86982   0.04090   0.00000  Uiso   1.00
C533   C     0.78171   0.89007   0.02059   0.00000  Uiso   1.00
H534   H     0.75970   0.91264   0.03681   0.00000  Uiso   1.00
H535   H     0.79351   0.87873   0.07203   0.00000  Uiso   1.00
H536   H     0.98461   0.80820   0.28570   0.00000  Uiso   1.00
H537   H     0.73725   0.69815   0.29353   0.00000  Uiso   1.00
H538   H     0.76681   0.71808   0.32993   0.00000  Uiso   1.00
H539   H     0.72772   0.67323   0.33705   0.00000  Uiso   1.00
H540   H     0.81881   0.84417   0.10168   0.00000  Uiso   1.00
H541   H     0.88253   0.79819   0.42836   0.00000  Uiso   1.00
H542   H     0.92704   0.74976   0.02375   0.00000  Uiso   1.00
H543   H     0.68348   0.85935   0.21467   0.00000  Uiso   1.00
H544   H     0.87093   0.66868   0.21504   0.00000  Uiso   1.00
H545   H     0.91096   0.76130   0.09538   0.00000  Uiso   1.00
H546   H     0.91616   0.76417   0.46336   0.00000  Uiso   1.00
H547   H     0.74677   0.92466   0.47632   0.00000  Uiso   1.00
H548   H     0.75960   0.90990   0.40539   0.00000  Uiso   1.00
H549   H     0.84420   0.81972   0.40125   0.00000  Uiso   1.00
O550   O     0.83333   0.83333   0.25000   0.00000  Uiso   1.00
O551   O     0.82360   0.79060   0.16625   0.00000  Uiso   1.00
O552   O     0.79354   0.87313   0.33749   0.00000  Uiso   1.00
O553   O     0.87755   0.84159   0.15877   0.00000  Uiso   1.00
O554   O     0.83865   0.82802   0.33749   0.00000  Uiso   1.00
O555   O     0.78518   0.99620   0.29560   0.00000  Uiso   1.00
O556   O     0.84515   0.74768   0.27820   0.00000  Uiso   1.00
O557   O     0.81247   0.92803   0.26767   0.00000  Uiso   1.00
O558   O     0.74119   0.79917   0.23607   0.00000  Uiso   1.00
O559   O     0.93452   0.85845   0.21805   0.00000  Uiso   1.00
O560   O     0.73656   0.85627   0.27820   0.00000  Uiso   1.00
O561   O     0.92106   0.81944   0.26767   0.00000  Uiso   1.00
O562   O     0.80467   0.73570   0.23607   0.00000  Uiso   1.00
O563   O     0.87104   0.92193   0.21805   0.00000  Uiso   1.00
Zn564  Zn    0.85910   0.80756   0.28277   0.00000  Uiso   1.00
Zn565  Zn    0.80125   0.79044   0.22257   0.00000  Uiso   1.00
Zn566  Zn    0.87833   0.86331   0.21188   0.00000  Uiso   1.00
Zn567  Zn    0.79465   0.87202   0.28277   0.00000  Uiso   1.00
C568   C     0.05249   0.16005   0.75880   0.00000  Uiso   1.00
C569   C     0.20521   0.13797   0.95976   0.00000  Uiso   1.00
C570   C     0.22556   0.11818   0.97988   0.00000  Uiso   1.00
C571   C     0.28100   0.17357   0.74123   0.00000  Uiso   1.00
C572   C     0.21556   0.12478   0.52052   0.00000  Uiso   1.00
C573   C     0.18466   0.15245   0.54189   0.00000  Uiso   1.00
C574   C     0.23664   0.10405   0.54000   0.00000  Uiso   1.00
C575   C     0.22754   0.11043   0.58061   0.00000  Uiso   1.00
C576   C     0.17560   0.15773   0.58312   0.00000  Uiso   1.00
C577   C     0.32703   0.17610   0.73760   0.00000  Uiso   1.00
C578   C     0.00706   0.15799   0.76237   0.00000  Uiso   1.00
C579   C     0.10925   0.22680   0.92001   0.00000  Uiso   1.00
C580   C     0.17873   0.32196   0.73860   0.00000  Uiso   1.00
C581   C     0.15002   0.01255   0.76386   0.00000  Uiso   1.00
C582   C     0.15638   0.05631   0.75857   0.00000  Uiso   1.00
C583   C     0.17651   0.27766   0.74157   0.00000  Uiso   1.00
C584   C     0.18829   0.14521   0.64421   0.00000  Uiso   1.00
C585   C     0.14544   0.18786   0.85610   0.00000  Uiso   1.00
C586   C     0.13707   0.19725   0.89885   0.00000  Uiso   1.00
C587   C     0.19703   0.13718   0.60198   0.00000  Uiso   1.00
C588   C     0.10206   0.23526   0.96043   0.00000  Uiso   1.00
C589   C     0.08644   0.02309   0.81453   0.00000  Uiso   1.00
C590   C     0.15767   0.17645   0.91852   0.00000  Uiso   1.00
C591   C     0.15195   0.18523   0.95922   0.00000  Uiso   1.00
C592   C     0.12299   0.21470   0.98016   0.00000  Uiso   1.00
C593   C     0.17371   0.16533   0.97966   0.00000  Uiso   1.00
C594   C     0.16414   0.17361   0.52132   0.00000  Uiso   1.00
C595   C     0.13486   0.20315   0.54090   0.00000  Uiso   1.00
C596   C     0.11504   0.22340   0.52059   0.00000  Uiso   1.00
H597   H     0.09303   0.24597   0.53681   0.00000  Uiso   1.00
H598   H     0.12684   0.21206   0.57203   0.00000  Uiso   1.00
H599   H     0.31794   0.14154   0.78570   0.00000  Uiso   1.00
H600   H     0.07058   0.03149   0.79353   0.00000  Uiso   1.00
H601   H     0.10015   0.05141   0.82993   0.00000  Uiso   1.00
H602   H     0.06105   0.00656   0.83705   0.00000  Uiso   1.00
H603   H     0.15214   0.17750   0.60168   0.00000  Uiso   1.00
H604   H     0.21586   0.13152   0.92836   0.00000  Uiso   1.00
H605   H     0.26037   0.08309   0.52375   0.00000  Uiso   1.00
H606   H     0.01682   0.19268   0.71467   0.00000  Uiso   1.00
H607   H     0.20426   0.00202   0.71504   0.00000  Uiso   1.00
H608   H     0.24430   0.09464   0.59538   0.00000  Uiso   1.00
H609   H     0.24949   0.09750   0.96336   0.00000  Uiso   1.00
H610   H     0.08010   0.25799   0.97632   0.00000  Uiso   1.00
H611   H     0.09293   0.24324   0.90539   0.00000  Uiso   1.00
H612   H     0.17753   0.15306   0.90125   0.00000  Uiso   1.00
O613   O     0.16667   0.16667   0.75000   0.00000  Uiso   1.00
O614   O     0.15693   0.12393   0.66625   0.00000  Uiso   1.00
O615   O     0.12687   0.20646   0.83749   0.00000  Uiso   1.00
O616   O     0.21088   0.17493   0.65877   0.00000  Uiso   1.00
O617   O     0.17198   0.16135   0.83749   0.00000  Uiso   1.00
O618   O     0.11851   0.32953   0.79560   0.00000  Uiso   1.00
O619   O     0.17849   0.08101   0.77820   0.00000  Uiso   1.00
O620   O     0.14581   0.26136   0.76767   0.00000  Uiso   1.00
O621   O     0.07452   0.13251   0.73607   0.00000  Uiso   1.00
O622   O     0.26785   0.19179   0.71805   0.00000  Uiso   1.00
O623   O     0.06990   0.18960   0.77820   0.00000  Uiso   1.00
O624   O     0.25440   0.15277   0.76767   0.00000  Uiso   1.00
O625   O     0.13800   0.06903   0.73607   0.00000  Uiso   1.00
O626   O     0.20437   0.25527   0.71805   0.00000  Uiso   1.00
Zn627  Zn    0.19244   0.14090   0.78277   0.00000  Uiso   1.00
Zn628  Zn    0.13459   0.12378   0.72257   0.00000  Uiso   1.00
Zn629  Zn    0.21166   0.19664   0.71188   0.00000  Uiso   1.00
Zn630  Zn    0.12798   0.20535   0.78277   0.00000  Uiso   1.00
C631   C     0.38582   0.16005   0.75880   0.00000  Uiso   1.00
C632   C     0.53855   0.13797   0.95976   0.00000  Uiso   1.00
C633   C     0.55889   0.11818   0.97988   0.00000  Uiso   1.00
C634   C     0.61433   0.17357   0.74123   0.00000  Uiso   1.00
C635   C     0.54889   0.12478   0.52052   0.00000  Uiso   1.00
C636   C     0.51800   0.15245   0.54189   0.00000  Uiso   1.00
C637   C     0.56997   0.10405   0.54000   0.00000  Uiso   1.00
C638   C     0.56087   0.11043   0.58061   0.00000  Uiso   1.00
C639   C     0.50893   0.15773   0.58312   0.00000  Uiso   1.00
C640   C     0.66036   0.17610   0.73760   0.00000  Uiso   1.00
C641   C     0.34039   0.15799   0.76237   0.00000  Uiso   1.00
C642   C     0.44258   0.22680   0.92001   0.00000  Uiso   1.00
C643   C     0.51207   0.32196   0.73860   0.00000  Uiso   1.00
C644   C     0.48335   0.01255   0.76386   0.00000  Uiso   1.00
C645   C     0.48971   0.05631   0.75857   0.00000  Uiso   1.00
C646   C     0.50984   0.27766   0.74157   0.00000  Uiso   1.00
C647   C     0.52163   0.14521   0.64421   0.00000  Uiso   1.00
C648   C     0.47878   0.18786   0.85610   0.00000  Uiso   1.00
C649   C     0.47040   0.19725   0.89885   0.00000  Uiso   1.00
C650   C     0.53036   0.13718   0.60198   0.00000  Uiso   1.00
C651   C     0.43539   0.23526   0.96043   0.00000  Uiso   1.00
C652   C     0.41977   0.02309   0.81453   0.00000  Uiso   1.00
C653   C     0.49100   0.17645   0.91852   0.00000  Uiso   1.00
C654   C     0.48528   0.18523   0.95922   0.00000  Uiso   1.00
C655   C     0.45633   0.21470   0.98016   0.00000  Uiso   1.00
C656   C     0.50704   0.16533   0.97966   0.00000  Uiso   1.00
C657   C     0.49748   0.17361   0.52132   0.00000  Uiso   1.00
C658   C     0.46820   0.20315   0.54090   0.00000  Uiso   1.00
C659   C     0.44838   0.22340   0.52059   0.00000  Uiso   1.00
H660   H     0.42637   0.24597   0.53681   0.00000  Uiso   1.00
H661   H     0.46018   0.21206   0.57203   0.00000  Uiso   1.00
H662   H     0.65127   0.14154   0.78570   0.00000  Uiso   1.00
H663   H     0.40392   0.03149   0.79353   0.00000  Uiso   1.00
H664   H     0.43348   0.05141   0.82993   0.00000  Uiso   1.00
H665   H     0.39438   0.00656   0.83705   0.00000  Uiso   1.00
H666   H     0.48548   0.17750   0.60168   0.00000  Uiso   1.00
H667   H     0.54920   0.13152   0.92836   0.00000  Uiso   1.00
H668   H     0.59370   0.08309   0.52375   0.00000  Uiso   1.00
H669   H     0.35015   0.19268   0.71467   0.00000  Uiso   1.00
H670   H     0.53759   0.00202   0.71504   0.00000  Uiso   1.00
H671   H     0.57763   0.09464   0.59538   0.00000  Uiso   1.00
H672   H     0.58282   0.09750   0.96336   0.00000  Uiso   1.00
H673   H     0.41344   0.25799   0.97632   0.00000  Uiso   1.00
H674   H     0.42627   0.24324   0.90539   0.00000  Uiso   1.00
H675   H     0.51087   0.15306   0.90125   0.00000  Uiso   1.00
O676   O     0.50000   0.16667   0.75000   0.00000  Uiso   1.00
O677   O     0.49027   0.12393   0.66625   0.00000  Uiso   1.00
O678   O     0.46020   0.20646   0.83749   0.00000  Uiso   1.00
O679   O     0.54421   0.17493   0.65877   0.00000  Uiso   1.00
O680   O     0.50532   0.16135   0.83749   0.00000  Uiso   1.00
O681   O     0.45185   0.32953   0.79560   0.00000  Uiso   1.00
O682   O     0.51182   0.08101   0.77820   0.00000  Uiso   1.00
O683   O     0.47914   0.26136   0.76767   0.00000  Uiso   1.00
O684   O     0.40785   0.13251   0.73607   0.00000  Uiso   1.00
O685   O     0.60119   0.19179   0.71805   0.00000  Uiso   1.00
O686   O     0.40323   0.18960   0.77820   0.00000  Uiso   1.00
O687   O     0.58773   0.15277   0.76767   0.00000  Uiso   1.00
O688   O     0.47133   0.06903   0.73607   0.00000  Uiso   1.00
O689   O     0.53771   0.25527   0.71805   0.00000  Uiso   1.00
Zn690  Zn    0.52577   0.14090   0.78277   0.00000  Uiso   1.00
Zn691  Zn    0.46792   0.12378   0.72257   0.00000  Uiso   1.00
Zn692  Zn    0.54500   0.19664   0.71188   0.00000  Uiso   1.00
Zn693  Zn    0.46131   0.20535   0.78277   0.00000  Uiso   1.00
C694   C     0.71916   0.16005   0.75880   0.00000  Uiso   1.00
C695   C     0.87188   0.13797   0.95976   0.00000  Uiso   1.00
C696   C     0.89223   0.11818   0.97988   0.00000  Uiso   1.00
C697   C     0.94766   0.17357   0.74123   0.00000  Uiso   1.00
C698   C     0.88223   0.12478   0.52052   0.00000  Uiso   1.00
C699   C     0.85133   0.15245   0.54189   0.00000  Uiso   1.00
C700   C     0.90330   0.10405   0.54000   0.00000  Uiso   1.00
C701   C     0.89420   0.11043   0.58061   0.00000  Uiso   1.00
C702   C     0.84226   0.15773   0.58312   0.00000  Uiso   1.00
C703   C     0.99370   0.17610   0.73760   0.00000  Uiso   1.00
C704   C     0.67373   0.15799   0.76237   0.00000  Uiso   1.00
C705   C     0.77592   0.22680   0.92001   0.00000  Uiso   1.00
C706   C     0.84540   0.32196   0.73860   0.00000  Uiso   1.00
C707   C     0.81669   0.01255   0.76386   0.00000  Uiso   1.00
C708   C     0.82304   0.05631   0.75857   0.00000  Uiso   1.00
C709   C     0.84318   0.27766   0.74157   0.00000  Uiso   1.00
C710   C     0.85496   0.14521   0.64421   0.00000  Uiso   1.00
C711   C     0.81211   0.18786   0.85610   0.00000  Uiso   1.00
C712   C     0.80373   0.19725   0.89885   0.00000  Uiso   1.00
C713   C     0.86369   0.13718   0.60198   0.00000  Uiso   1.00
C714   C     0.76872   0.23526   0.96043   0.00000  Uiso   1.00
C715   C     0.75310   0.02309   0.81453   0.00000  Uiso   1.00
C716   C     0.82434   0.17645   0.91852   0.00000  Uiso   1.00
C717   C     0.81861   0.18523   0.95922   0.00000  Uiso   1.00
C718   C     0.78966   0.21470   0.98016   0.00000  Uiso   1.00
C719   C     0.84038   0.16533   0.97966   0.00000  Uiso   1.00
C720   C     0.83081   0.17361   0.52132   0.00000  Uiso   1.00
C721   C     0.80153   0.20315   0.54090   0.00000  Uiso   1.00
C722   C     0.78171   0.22340   0.52059   0.00000  Uiso   1.00
H723   H     0.75970   0.24597   0.53681   0.00000  Uiso   1.00
H724   H     0.79351   0.21206   0.57203   0.00000  Uiso   1.00
H725   H     0.98461   0.14154   0.78570   0.00000  Uiso   1.00
H726   H     0.73725   0.03149   0.79353   0.00000  Uiso   1.00
H727   H     0.76681   0.05141   0.82993   0.00000  Uiso   1.00
H728   H     0.72772   0.00656   0.83705   0.00000  Uiso   1.00
H729   H     0.81881   0.17750   0.60168   0.00000  Uiso   1.00
H730   H     0.88253   0.13152   0.92836   0.00000  Uiso   1.00
H731   H     0.92704   0.08309   0.52375   0.00000  Uiso   1.00
H732   H     0.68348   0.19268   0.71467   0.00000  Uiso   1.00
H733   H     0.87093   0.00202   0.71504   0.00000  Uiso   1.00
H734   H     0.91096   0.09464   0.59538   0.00000  Uiso   1.00
H735   H     0.91616   0.09750   0.96336   0.00000  Uiso   1.00
H736   H     0.74677   0.25799   0.97632   0.00000  Uiso   1.00
H737   H     0.75960   0.24324   0.90539   0.00000  Uiso   1.00
H738   H     0.84420   0.15306   0.90125   0.00000  Uiso   1.00
O739   O     0.83333   0.16667   0.75000   0.00000  Uiso   1.00
O740   O     0.82360   0.12393   0.66625   0.00000  Uiso   1.00
O741   O     0.79354   0.20646   0.83749   0.00000  Uiso   1.00
O742   O     0.87755   0.17493   0.65877   0.00000  Uiso   1.00
O743   O     0.83865   0.16135   0.83749   0.00000  Uiso   1.00
O744   O     0.78518   0.32953   0.79560   0.00000  Uiso   1.00
O745   O     0.84515   0.08101   0.77820   0.00000  Uiso   1.00
O746   O     0.81247   0.26136   0.76767   0.00000  Uiso   1.00
O747   O     0.74119   0.13251   0.73607   0.00000  Uiso   1.00
O748   O     0.93452   0.19179   0.71805   0.00000  Uiso   1.00
O749   O     0.73656   0.18960   0.77820   0.00000  Uiso   1.00
O750   O     0.92106   0.15277   0.76767   0.00000  Uiso   1.00
O751   O     0.80467   0.06903   0.73607   0.00000  Uiso   1.00
O752   O     0.87104   0.25527   0.71805   0.00000  Uiso   1.00
Zn753  Zn    0.85910   0.14090   0.78277   0.00000  Uiso   1.00
Zn754  Zn    0.80125   0.12378   0.72257   0.00000  Uiso   1.00
Zn755  Zn    0.87833   0.19664   0.71188   0.00000  Uiso   1.00
Zn756  Zn    0.79465   0.20535   0.78277   0.00000  Uiso   1.00
C757   C     0.05249   0.49339   0.75880   0.00000  Uiso   1.00
C758   C     0.20521   0.47130   0.95976   0.00000  Uiso   1.00
C759   C     0.22556   0.45152   0.97988   0.00000  Uiso   1.00
C760   C     0.28100   0.50690   0.74123   0.00000  Uiso   1.00
C761   C     0.21556   0.45811   0.52052   0.00000  Uiso   1.00
C762   C     0.18466   0.48578   0.54189   0.00000  Uiso   1.00
C763   C     0.23664   0.43739   0.54000   0.00000  Uiso   1.00
C764   C     0.22754   0.44376   0.58061   0.00000  Uiso   1.00
C765   C     0.17560   0.49107   0.58312   0.00000  Uiso   1.00
C766   C     0.32703   0.50943   0.73760   0.00000  Uiso   1.00
C767   C     0.00706   0.49133   0.76237   0.00000  Uiso   1.00
C768   C     0.10925   0.56013   0.92001   0.00000  Uiso   1.00
C769   C     0.17873   0.65529   0.73860   0.00000  Uiso   1.00
C770   C     0.15002   0.34588   0.76386   0.00000  Uiso   1.00
C771   C     0.15638   0.38964   0.75857   0.00000  Uiso   1.00
C772   C     0.17651   0.61099   0.74157   0.00000  Uiso   1.00
C773   C     0.18829   0.47855   0.64421   0.00000  Uiso   1.00
C774   C     0.14544   0.52119   0.85610   0.00000  Uiso   1.00
C775   C     0.13707   0.53058   0.89885   0.00000  Uiso   1.00
C776   C     0.19703   0.47051   0.60198   0.00000  Uiso   1.00
C777   C     0.10206   0.56860   0.96043   0.00000  Uiso   1.00
C778   C     0.08644   0.35642   0.81453   0.00000  Uiso   1.00
C779   C     0.15767   0.50979   0.91852   0.00000  Uiso   1.00
C780   C     0.15195   0.51856   0.95922   0.00000  Uiso   1.00
C781   C     0.12299   0.54803   0.98016   0.00000  Uiso   1.00
C782   C     0.17371   0.49867   0.97966   0.00000  Uiso   1.00
C783   C     0.16414   0.50695   0.52132   0.00000  Uiso   1.00
C784   C     0.13486   0.53649   0.54090   0.00000  Uiso   1.00
C785   C     0.11504   0.55673   0.52059   0.00000  Uiso   1.00
H786   H     0.09303   0.57930   0.53681   0.00000  Uiso   1.00
H787   H     0.12684   0.54540   0.57203   0.00000  Uiso   1.00
H788   H     0.31794   0.47487   0.78570   0.00000  Uiso   1.00
H789   H     0.07058   0.36482   0.79353   0.00000  Uiso   1.00
H790   H     0.10015   0.38475   0.82993   0.00000  Uiso   1.00
H791   H     0.06105   0.33989   0.83705   0.00000  Uiso   1.00
H792   H     0.15214   0.51083   0.60168   0.00000  Uiso   1.00
H793   H     0.21586   0.46486   0.92836   0.00000  Uiso   1.00
H794   H     0.26037   0.41642   0.52375   0.00000  Uiso   1.00
H795   H     0.01682   0.52601   0.71467   0.00000  Uiso   1.00
H796   H     0.20426   0.33535   0.71504   0.00000  Uiso   1.00
H797   H     0.24430   0.42797   0.59538   0.00000  Uiso   1.00
H798   H     0.24949   0.43083   0.96336   0.00000  Uiso   1.00
H799   H     0.08010   0.59132   0.97632   0.00000  Uiso   1.00
H800   H     0.09293   0.57657   0.90539   0.00000  Uiso   1.00
H801   H     0.17753   0.48639   0.90125   0.00000  Uiso   1.00
O802   O     0.16667   0.50000   0.75000   0.00000  Uiso   1.00
O803   O     0.15693   0.45726   0.66625   0.00000  Uiso   1.00
O804   O     0.12687   0.53979   0.83749   0.00000  Uiso   1.00
O805   O     0.21088   0.50826   0.65877   0.00000  Uiso   1.00
O806   O     0.17198   0.49468   0.83749   0.00000  Uiso   1.00
O807   O     0.11851   0.66286   0.79560   0.00000  Uiso   1.00
O808   O     0.17849   0.41434   0.77820   0.00000  Uiso   1.00
O809   O     0.14581   0.59469   0.76767   0.00000  Uiso   1.00
O810   O     0.07452   0.46584   0.73607   0.00000  Uiso   1.00
O811   O     0.26785   0.52512   0.71805   0.00000  Uiso   1.00
O812   O     0.06990   0.52293   0.77820   0.00000  Uiso   1.00
O813   O     0.25440   0.48610   0.76767   0.00000  Uiso   1.00
O814   O     0.13800   0.40236   0.73607   0.00000  Uiso   1.00
O815   O     0.20437   0.58860   0.71805   0.00000  Uiso   1.00
Zn816  Zn    0.19244   0.47423   0.78277   0.00000  Uiso   1.00
Zn817  Zn    0.13459   0.45711   0.72257   0.00000  Uiso   1.00
Zn818  Zn    0.21166   0.52997   0.71188   0.00000  Uiso   1.00
Zn819  Zn    0.12798   0.53868   0.78277   0.00000  Uiso   1.00
C820   C     0.38582   0.49339   0.75880   0.00000  Uiso   1.00
C821   C     0.53855   0.47130   0.95976   0.00000  Uiso   1.00
C822   C     0.55889   0.45152   0.97988   0.00000  Uiso   1.00
C823   C     0.61433   0.50690   0.74123   0.00000  Uiso   1.00
C824   C     0.54889   0.45811   0.52052   0.00000  Uiso   1.00
C825   C     0.51800   0.48578   0.54189   0.00000  Uiso   1.00
C826   C     0.56997   0.43739   0.54000   0.00000  Uiso   1.00
C827   C     0.56087   0.44376   0.58061   0.00000  Uiso   1.00
C828   C     0.50893   0.49107   0.58312   0.00000  Uiso   1.00
C829   C     0.66036   0.50943   0.73760   0.00000  Uiso   1.00
C830   C     0.34039   0.49133   0.76237   0.00000  Uiso   1.00
C831   C     0.44258   0.56013   0.92001   0.00000  Uiso   1.00
C832   C     0.51207   0.65529   0.73860   0.00000  Uiso   1.00
C833   C     0.48335   0.34588   0.76386   0.00000  Uiso   1.00
C834   C     0.48971   0.38964   0.75857   0.00000  Uiso   1.00
C835   C     0.50984   0.61099   0.74157   0.00000  Uiso   1.00
C836   C     0.52163   0.47855   0.64421   0.00000  Uiso   1.00
C837   C     0.47878   0.52119   0.85610   0.00000  Uiso   1.00
C838   C     0.47040   0.53058   0.89885   0.00000  Uiso   1.00
C839   C     0.53036   0.47051   0.60198   0.00000  Uiso   1.00
C840   C     0.43539   0.56860   0.96043   0.00000  Uiso   1.00
C841   C     0.41977   0.35642   0.81453   0.00000  Uiso   1.00
C842   C     0.49100   0.50979   0.91852   0.00000  Uiso   1.00
C843   C     0.48528   0.51856   0.95922   0.00000  Uiso   1.00
C844   C     0.45633   0.54803   0.98016   0.00000  Uiso   1.00
C845   C     0.50704   0.49867   0.97966   0.00000  Uiso   1.00
C846   C     0.49748   0.50695   0.52132   0.00000  Uiso   1.00
C847   C     0.46820   0.53649   0.54090   0.00000  Uiso   1.00
C848   C     0.44838   0.55673   0.52059   0.00000  Uiso   1.00
H849   H     0.42637   0.57930   0.53681   0.00000  Uiso   1.00
H850   H     0.46018   0.54540   0.57203   0.00000  Uiso   1.00
H851   H     0.65127   0.47487   0.78570   0.00000  Uiso   1.00
H852   H     0.40392   0.36482   0.79353   0.00000  Uiso   1.00
H853   H     0.43348   0.38475   0.82993   0.00000  Uiso   1.00
H854   H     0.39438   0.33989   0.83705   0.00000  Uiso   1.00
H855   H     0.48548   0.51083   0.60168   0.00000  Uiso   1.00
H856   H     0.54920   0.46486   0.92836   0.00000  Uiso   1.00
H857   H     0.59370   0.41642   0.52375   0.00000  Uiso   1.00
H858   H     0.35015   0.52601   0.71467   0.00000  Uiso   1.00
H859   H     0.53759   0.33535   0.71504   0.00000  Uiso   1.00
H860   H     0.57763   0.42797   0.59538   0.00000  Uiso   1.00
H861   H     0.58282   0.43083   0.96336   0.00000  Uiso   1.00
H862   H     0.41344   0.59132   0.97632   0.00000  Uiso   1.00
H863   H     0.42627   0.57657   0.90539   0.00000  Uiso   1.00
H864   H     0.51087   0.48639   0.90125   0.00000  Uiso   1.00
O865   O     0.50000   0.50000   0.75000   0.00000  Uiso   1.00
O866   O     0.49027   0.45726   0.66625   0.00000  Uiso   1.00
O867   O     0.46020   0.53979   0.83749   0.00000  Uiso   1.00
O868   O     0.54421   0.50826   0.65877   0.00000  Uiso   1.00
O869   O     0.50532   0.49468   0.83749   0.00000  Uiso   1.00
O870   O     0.45185   0.66286   0.79560   0.00000  Uiso   1.00
O871   O     0.51182   0.41434   0.77820   0.00000  Uiso   1.00
O872   O     0.47914   0.59469   0.76767   0.00000  Uiso   1.00
O873   O     0.40785   0.46584   0.73607   0.00000  Uiso   1.00
O874   O     0.60119   0.52512   0.71805   0.00000  Uiso   1.00
O875   O     0.40323   0.52293   0.77820   0.00000  Uiso   1.00
O876   O     0.58773   0.48610   0.76767   0.00000  Uiso   1.00
O877   O     0.47133   0.40236   0.73607   0.00000  Uiso   1.00
O878   O     0.53771   0.58860   0.71805   0.00000  Uiso   1.00
Zn879  Zn    0.52577   0.47423   0.78277   0.00000  Uiso   1.00
Zn880  Zn    0.46792   0.45711   0.72257   0.00000  Uiso   1.00
Zn881  Zn    0.54500   0.52997   0.71188   0.00000  Uiso   1.00
Zn882  Zn    0.46131   0.53868   0.78277   0.00000  Uiso   1.00
C883   C     0.71916   0.49339   0.75880   0.00000  Uiso   1.00
C884   C     0.87188   0.47130   0.95976   0.00000  Uiso   1.00
C885   C     0.89223   0.45152   0.97988   0.00000  Uiso   1.00
C886   C     0.94766   0.50690   0.74123   0.00000  Uiso   1.00
C887   C     0.88223   0.45811   0.52052   0.00000  Uiso   1.00
C888   C     0.85133   0.48578   0.54189   0.00000  Uiso   1.00
C889   C     0.90330   0.43739   0.54000   0.00000  Uiso   1.00
C890   C     0.89420   0.44376   0.58061   0.00000  Uiso   1.00
C891   C     0.84226   0.49107   0.58312   0.00000  Uiso   1.00
C892   C     0.99370   0.50943   0.73760   0.00000  Uiso   1.00
C893   C     0.67373   0.49133   0.76237   0.00000  Uiso   1.00
C894   C     0.77592   0.56013   0.92001   0.00000  Uiso   1.00
C895   C     0.84540   0.65529   0.73860   0.00000  Uiso   1.00
C896   C     0.81669   0.34588   0.76386   0.00000  Uiso   1.00
C897   C     0.82304   0.38964   0.75857   0.00000  Uiso   1.00
C898   C     0.84318   0.61099   0.74157   0.00000  Uiso   1.00
C899   C     0.85496   0.47855   0.64421   0.00000  Uiso   1.00
C900   C     0.81211   0.52119   0.85610   0.00000  Uiso   1.00
C901   C     0.80373   0.53058   0.89885   0.00000  Uiso   1.00
C902   C     0.86369   0.47051   0.60198   0.00000  Uiso   1.00
C903   C     0.76872   0.56860   0.96043   0.00000  Uiso   1.00
C904   C     0.75310   0.35642   0.81453   0.00000  Uiso   1.00
C905   C     0.82434   0.50979   0.91852   0.00000  Uiso   1.00
C906   C     0.81861   0.51856   0.95922   0.00000  Uiso   1.00
C907   C     0.78966   0.54803   0.98016   0.00000  Uiso   1.00
C908   C     0.84038   0.49867   0.97966   0.00000  Uiso   1.00
C909   C     0.83081   0.50695   0.52132   0.00000  Uiso   1.00
C910   C     0.80153   0.53649   0.54090   0.00000  Uiso   1.00
C911   C     0.78171   0.55673   0.52059   0.00000  Uiso   1.00
H912   H     0.75970   0.57930   0.53681   0.00000  Uiso   1.00
H913   H     0.79351   0.54540   0.57203   0.00000  Uiso   1.00
H914   H     0.98461   0.47487   0.78570   0.00000  Uiso   1.00
H915   H     0.73725   0.36482   0.79353   0.00000  Uiso   1.00
H916   H     0.76681   0.38475   0.82993   0.00000  Uiso   1.00
H917   H     0.72772   0.33989   0.83705   0.00000  Uiso   1.00
H918   H     0.81881   0.51083   0.60168   0.00000  Uiso   1.00
H919   H     0.88253   0.46486   0.92836   0.00000  Uiso   1.00
H920   H     0.92704   0.41642   0.52375   0.00000  Uiso   1.00
H921   H     0.68348   0.52601   0.71467   0.00000  Uiso   1.00
H922   H     0.87093   0.33535   0.71504   0.00000  Uiso   1.00
H923   H     0.91096   0.42797   0.59538   0.00000  Uiso   1.00
H924   H     0.91616   0.43083   0.96336   0.00000  Uiso   1.00
H925   H     0.74677   0.59132   0.97632   0.00000  Uiso   1.00
H926   H     0.75960   0.57657   0.90539   0.00000  Uiso   1.00
H927   H     0.84420   0.48639   0.90125   0.00000  Uiso   1.00
O928   O     0.83333   0.50000   0.75000   0.00000  Uiso   1.00
O929   O     0.82360   0.45726   0.66625   0.00000  Uiso   1.00
O930   O     0.79354   0.53979   0.83749   0.00000  Uiso   1.00
O931   O     0.87755   0.50826   0.65877   0.00000  Uiso   1.00
O932   O     0.83865   0.49468   0.83749   0.00000  Uiso   1.00
O933   O     0.78518   0.66286   0.79560   0.00000  Uiso   1.00
O934   O     0.84515   0.41434   0.77820   0.00000  Uiso   1.00
O935   O     0.81247   0.59469   0.76767   0.00000  Uiso   1.00
O936   O     0.74119   0.46584   0.73607   0.00000  Uiso   1.00
O937   O     0.93452   0.52512   0.71805   0.00000  Uiso   1.00
O938   O     0.73656   0.52293   0.77820   0.00000  Uiso   1.00
O939   O     0.92106   0.48610   0.76767   0.00000  Uiso   1.00
O940   O     0.80467   0.40236   0.73607   0.00000  Uiso   1.00
O941   O     0.87104   0.58860   0.71805   0.00000  Uiso   1.00
Zn942  Zn    0.85910   0.47423   0.78277   0.00000  Uiso   1.00
Zn943  Zn    0.80125   0.45711   0.72257   0.00000  Uiso   1.00
Zn944  Zn    0.87833   0.52997   0.71188   0.00000  Uiso   1.00
Zn945  Zn    0.79465   0.53868   0.78277   0.00000  Uiso   1.00
C946   C     0.05249   0.82672   0.75880   0.00000  Uiso   1.00
C947   C     0.20521   0.80463   0.95976   0.00000  Uiso   1.00
C948   C     0.22556   0.78485   0.97988   0.00000  Uiso   1.00
C949   C     0.28100   0.84023   0.74123   0.00000  Uiso   1.00
C950   C     0.21556   0.79145   0.52052   0.00000  Uiso   1.00
C951   C     0.18466   0.81912   0.54189   0.00000  Uiso   1.00
C952   C     0.23664   0.77072   0.54000   0.00000  Uiso   1.00
C953   C     0.22754   0.77709   0.58061   0.00000  Uiso   1.00
C954   C     0.17560   0.82440   0.58312   0.00000  Uiso   1.00
C955   C     0.32703   0.84276   0.73760   0.00000  Uiso   1.00
C956   C     0.00706   0.82466   0.76237   0.00000  Uiso   1.00
C957   C     0.10925   0.89346   0.92001   0.00000  Uiso   1.00
C958   C     0.17873   0.98862   0.73860   0.00000  Uiso   1.00
C959   C     0.15002   0.67921   0.76386   0.00000  Uiso   1.00
C960   C     0.15638   0.72298   0.75857   0.00000  Uiso   1.00
C961   C     0.17651   0.94433   0.74157   0.00000  Uiso   1.00
C962   C     0.18829   0.81188   0.64421   0.00000  Uiso   1.00
C963   C     0.14544   0.85452   0.85610   0.00000  Uiso   1.00
C964   C     0.13707   0.86391   0.89885   0.00000  Uiso   1.00
C965   C     0.19703   0.80385   0.60198   0.00000  Uiso   1.00
C966   C     0.10206   0.90193   0.96043   0.00000  Uiso   1.00
C967   C     0.08644   0.68975   0.81453   0.00000  Uiso   1.00
C968   C     0.15767   0.84312   0.91852   0.00000  Uiso   1.00
C969   C     0.15195   0.85189   0.95922   0.00000  Uiso   1.00
C970   C     0.12299   0.88136   0.98016   0.00000  Uiso   1.00
C971   C     0.17371   0.83200   0.97966   0.00000  Uiso   1.00
C972   C     0.16414   0.84028   0.52132   0.00000  Uiso   1.00
C973   C     0.13486   0.86982   0.54090   0.00000  Uiso   1.00
C974   C     0.11504   0.89007   0.52059   0.00000  Uiso   1.00
H975   H     0.09303   0.91264   0.53681   0.00000  Uiso   1.00
H976   H     0.12684   0.87873   0.57203   0.00000  Uiso   1.00
H977   H     0.31794   0.80820   0.78570   0.00000  Uiso   1.00
H978   H     0.07058   0.69815   0.79353   0.00000  Uiso   1.00
H979   H     0.10015   0.71808   0.82993   0.00000  Uiso   1.00
H980   H     0.06105   0.67323   0.83705   0.00000  Uiso   1.00
H981   H     0.15214   0.84417   0.60168   0.00000  Uiso   1.00
H982   H     0.21586   0.79819   0.92836   0.00000  Uiso   1.00
H983   H     0.26037   0.74976   0.52375   0.00000  Uiso   1.00
H984   H     0.01682   0.85935   0.71467   0.00000  Uiso   1.00
H985   H     0.20426   0.66868   0.71504   0.00000  Uiso   1.00
H986   H     0.24430   0.76130   0.59538   0.00000  Uiso   1.00
H987   H     0.24949   0.76417   0.96336   0.00000  Uiso   1.00
H988   H     0.08010   0.92466   0.97632   0.00000  Uiso   1.00
H989   H     0.09293   0.90990   0.90539   0.00000  Uiso   1.00
H990   H     0.17753   0.81972   0.90125   0.00000  Uiso   1.00
O991   O     0.16667   0.83333   0.75000   0.00000  Uiso   1.00
O992   O     0.15693   0.79060   0.66625   0.00000  Uiso   1.00
O993   O     0.12687   0.87313   0.83749   0.00000  Uiso   1.00
O994   O     0.21088   0.84159   0.65877   0.00000  Uiso   1.00
O995   O     0.17198   0.82802   0.83749   0.00000  Uiso   1.00
O996   O     0.11851   0.99620   0.79560   0.00000  Uiso   1.00
O997   O     0.17849   0.74768   0.77820   0.00000  Uiso   1.00
O998   O     0.14581   0.92803   0.76767   0.00000  Uiso   1.00
O999   O     0.07452   0.79917   0.73607   0.00000  Uiso   1.00
O1000  O     0.26785   0.85845   0.71805   0.00000  Uiso   1.00
O1001  O     0.06990   0.85627   0.77820   0.00000  Uiso   1.00
O1002  O     0.25440   0.81944   0.76767   0.00000  Uiso   1.00
O1003  O     0.13800   0.73570   0.73607   0.00000  Uiso   1.00
O1004  O     0.20437   0.92193   0.71805   0.00000  Uiso   1.00
Zn1005 Zn    0.19244   0.80756   0.78277   0.00000  Uiso   1.00
Zn1006 Zn    0.13459   0.79044   0.72257   0.00000  Uiso   1.00
Zn1007 Zn    0.21166   0.86331   0.71188   0.00000  Uiso   1.00
Zn1008 Zn    0.12798   0.87202   0.78277   0.00000  Uiso   1.00
C1009  C     0.38582   0.82672   0.75880   0.00000  Uiso   1.00
C1010  C     0.53855   0.80463   0.95976   0.00000  Uiso   1.00
C1011  C     0.55889   0.78485   0.97988   0.00000  Uiso   1.00
C1012  C     0.61433   0.84023   0.74123   0.00000  Uiso   1.00
C1013  C     0.54889   0.79145   0.52052   0.00000  Uiso   1.00
C1014  C     0.51800   0.81912   0.54189   0.00000  Uiso   1.00
C1015  C     0.56997   0.77072   0.54000   0.00000  Uiso   1.00
C1016  C     0.56087   0.77709   0.58061   0.00000  Uiso   1.00
C1017  C     0.50893   0.82440   0.58312   0.00000  Uiso   1.00
C1018  C     0.66036   0.84276   0.73760   0.00000  Uiso   1.00
C1019  C     0.34039   0.82466   0.76237   0.00000  Uiso   1.00
C1020  C     0.44258   0.89346   0.92001   0.00000  Uiso   1.00
C1021  C     0.51207   0.98862   0.73860   0.00000  Uiso   1.00
C1022  C     0.48335   0.67921   0.76386   0.00000  Uiso   1.00
C1023  C     0.48971   0.72298   0.75857   0.00000  Uiso   1.00
C1024  C     0.50984   0.94433   0.74157   0.00000  Uiso   1.00
C1025  C     0.52163   0.81188   0.64421   0.00000  Uiso   1.00
C1026  C     0.47878   0.85452   0.85610   0.00000  Uiso   1.00
C1027  C     0.47040   0.86391   0.89885   0.00000  Uiso   1.00
C1028  C     0.53036   0.80385   0.60198   0.00000  Uiso   1.00
C1029  C     0.43539   0.90193   0.96043   0.00000  Uiso   1.00
C1030  C     0.41977   0.68975   0.81453   0.00000  Uiso   1.00
C1031  C     0.49100   0.84312   0.91852   0.00000  Uiso   1.00
C1032  C     0.48528   0.85189   0.95922   0.00000  Uiso   1.00
C1033  C     0.45633   0.88136   0.98016   0.00000  Uiso   1.00
C1034  C     0.50704   0.83200   0.97966   0.00000  Uiso   1.00
C1035  C     0.49748   0.84028   0.52132   0.00000  Uiso   1.00
C1036  C     0.46820   0.86982   0.54090   0.00000  Uiso   1.00
C1037  C     0.44838   0.89007   0.52059   0.00000  Uiso   1.00
H1038  H     0.42637   0.91264   0.53681   0.00000  Uiso   1.00
H1039  H     0.46018   0.87873   0.57203   0.00000  Uiso   1.00
H1040  H     0.65127   0.80820   0.78570   0.00000  Uiso   1.00
H1041  H     0.40392   0.69815   0.79353   0.00000  Uiso   1.00
H1042  H     0.43348   0.71808   0.82993   0.00000  Uiso   1.00
H1043  H     0.39438   0.67323   0.83705   0.00000  Uiso   1.00
H1044  H     0.48548   0.84417   0.60168   0.00000  Uiso   1.00
H1045  H     0.54920   0.79819   0.92836   0.00000  Uiso   1.00
H1046  H     0.59370   0.74976   0.52375   0.00000  Uiso   1.00
H1047  H     0.35015   0.85935   0.71467   0.00000  Uiso   1.00
H1048  H     0.53759   0.66868   0.71504   0.00000  Uiso   1.00
H1049  H     0.57763   0.76130   0.59538   0.00000  Uiso   1.00
H1050  H     0.58282   0.76417   0.96336   0.00000  Uiso   1.00
H1051  H     0.41344   0.92466   0.97632   0.00000  Uiso   1.00
H1052  H     0.42627   0.90990   0.90539   0.00000  Uiso   1.00
H1053  H     0.51087   0.81972   0.90125   0.00000  Uiso   1.00
O1054  O     0.50000   0.83333   0.75000   0.00000  Uiso   1.00
O1055  O     0.49027   0.79060   0.66625   0.00000  Uiso   1.00
O1056  O     0.46020   0.87313   0.83749   0.00000  Uiso   1.00
O1057  O     0.54421   0.84159   0.65877   0.00000  Uiso   1.00
O1058  O     0.50532   0.82802   0.83749   0.00000  Uiso   1.00
O1059  O     0.45185   0.99620   0.79560   0.00000  Uiso   1.00
O1060  O     0.51182   0.74768   0.77820   0.00000  Uiso   1.00
O1061  O     0.47914   0.92803   0.76767   0.00000  Uiso   1.00
O1062  O     0.40785   0.79917   0.73607   0.00000  Uiso   1.00
O1063  O     0.60119   0.85845   0.71805   0.00000  Uiso   1.00
O1064  O     0.40323   0.85627   0.77820   0.00000  Uiso   1.00
O1065  O     0.58773   0.81944   0.76767   0.00000  Uiso   1.00
O1066  O     0.47133   0.73570   0.73607   0.00000  Uiso   1.00
O1067  O     0.53771   0.92193   0.71805   0.00000  Uiso   1.00
Zn1068 Zn    0.52577   0.80756   0.78277   0.00000  Uiso   1.00
Zn1069 Zn    0.46792   0.79044   0.72257   0.00000  Uiso   1.00
Zn1070 Zn    0.54500   0.86331   0.71188   0.00000  Uiso   1.00
Zn1071 Zn    0.46131   0.87202   0.78277   0.00000  Uiso   1.00
C1072  C     0.71916   0.82672   0.75880   0.00000  Uiso   1.00
C1073  C     0.87188   0.80463   0.95976   0.00000  Uiso   1.00
C1074  C     0.89223   0.78485   0.97988   0.00000  Uiso   1.00
C1075  C     0.94766   0.84023   0.74123   0.00000  Uiso   1.00
C1076  C     0.88223   0.79145   0.52052   0.00000  Uiso   1.00
C1077  C     0.85133   0.81912   0.54189   0.00000  Uiso   1.00
C1078  C     0.90330   0.77072   0.54000   0.00000  Uiso   1.00
C1079  C     0.89420   0.77709   0.58061   0.00000  Uiso   1.00
C1080  C     0.84226   0.82440   0.58312   0.00000  Uiso   1.00
C1081  C     0.99370   0.84276   0.73760   0.00000  Uiso   1.00
C1082  C     0.67373   0.82466   0.76237   0.00000  Uiso   1.00
C1083  C     0.77592   0.89346   0.92001   0.00000  Uiso   1.00
C1084  C     0.84540   0.98862   0.73860   0.00000  Uiso   1.00
C1085  C     0.81669   0.67921   0.76386   0.00000  Uiso   1.00
C1086  C     0.82304   0.72298   0.75857   0.00000  Uiso   1.00
C1087  C     0.84318   0.94433   0.74157   0.00000  Uiso   1.00
C1088  C     0.85496   0.81188   0.64421   0.00000  Uiso   1.00
C1089  C     0.81211   0.85452   0.85610   0.00000  Uiso   1.00
C1090  C     0.80373   0.86391   0.89885   0.00000  Uiso   1.00
C1091  C     0.86369   0.80385   0.60198   0.00000  Uiso   1.00
C1092  C     0.76872   0.90193   0.96043   0.00000  Uiso   1.00
C1093  C     0.75310   0.68975   0.81453   0.00000  Uiso   1.00
C1094  C     0.82434   0.84312   0.91852   0.00000  Uiso   1.00
C1095  C     0.81861   0.85189   0.95922   0.00000  Uiso   1.00
C1096  C     0.78966   0.88136   0.98016   0.00000  Uiso   1.00
C1097  C     0.84038   0.83200   0.97966   0.00000  Uiso   1.00
C1098  C     0.83081   0.84028   0.52132   0.00000  Uiso   1.00
C1099  C     0.80153   0.86982   0.54090   0.00000  Uiso   1.00
C1100  C     0.78171   0.89007   0.52059   0.00000  Uiso   1.00
H1101  H     0.75970   0.91264   0.53681   0.00000  Uiso   1.00
H1102  H     0.79351   0.87873   0.57203   0.00000  Uiso   1.00
H1103  H     0.98461   0.80820   0.78570   0.00000  Uiso   1.00
H1104  H     0.73725   0.69815   0.79353   0.00000  Uiso   1.00
H1105  H     0.76681   0.71808   0.82993   0.00000  Uiso   1.00
H1106  H     0.72772   0.67323   0.83705   0.00000  Uiso   1.00
H1107  H     0.81881   0.84417   0.60168   0.00000  Uiso   1.00
H1108  H     0.88253   0.79819   0.92836   0.00000  Uiso   1.00
H1109  H     0.92704   0.74976   0.52375   0.00000  Uiso   1.00
H1110  H     0.68348   0.85935   0.71467   0.00000  Uiso   1.00
H1111  H     0.87093   0.66868   0.71504   0.00000  Uiso   1.00
H1112  H     0.91096   0.76130   0.59538   0.00000  Uiso   1.00
H1113  H     0.91616   0.76417   0.96336   0.00000  Uiso   1.00
H1114  H     0.74677   0.92466   0.97632   0.00000  Uiso   1.00
H1115  H     0.75960   0.90990   0.90539   0.00000  Uiso   1.00
H1116  H     0.84420   0.81972   0.90125   0.00000  Uiso   1.00
O1117  O     0.83333   0.83333   0.75000   0.00000  Uiso   1.00
O1118  O     0.82360   0.79060   0.66625   0.00000  Uiso   1.00
O1119  O     0.79354   0.87313   0.83749   0.00000  Uiso   1.00
O1120  O     0.87755   0.84159   0.65877   0.00000  Uiso   1.00
O1121  O     0.83865   0.82802   0.83749   0.00000  Uiso   1.00
O1122  O     0.78518   0.99620   0.79560   0.00000  Uiso   1.00
O1123  O     0.84515   0.74768   0.77820   0.00000  Uiso   1.00
O1124  O     0.81247   0.92803   0.76767   0.00000  Uiso   1.00
O1125  O     0.74119   0.79917   0.73607   0.00000  Uiso   1.00
O1126  O     0.93452   0.85845   0.71805   0.00000  Uiso   1.00
O1127  O     0.73656   0.85627   0.77820   0.00000  Uiso   1.00
O1128  O     0.92106   0.81944   0.76767   0.00000  Uiso   1.00
O1129  O     0.80467   0.73570   0.73607   0.00000  Uiso   1.00
O1130  O     0.87104   0.92193   0.71805   0.00000  Uiso   1.00
Zn1131 Zn    0.85910   0.80756   0.78277   0.00000  Uiso   1.00
Zn1132 Zn    0.80125   0.79044   0.72257   0.00000  Uiso   1.00
Zn1133 Zn    0.87833   0.86331   0.71188   0.00000  Uiso   1.00
Zn1134 Zn    0.79465   0.87202   0.78277   0.00000  Uiso   1.00
loop_
_geom_bond_atom_site_label_1
_geom_bond_atom_site_label_2
_geom_bond_distance
_geom_bond_site_symmetry_2
_ccdc_geom_bond_type
C1     C11     1.437   .     S
C1     O54     1.271   .     A
C1     O56     1.271   .     A
C2     C3      1.384   .     A
C2     H37     1.075   .     S
C2     C26     1.416   .     A
C3     H42     1.084   .     S
C3     C572    1.389   .     S
C4     O57     1.282   .     A
C4     O55     1.286   .     A
C4     C10     1.455   .     S
C5     C6      1.421   .     A
C5     C7      1.403   .     A
C5     C570    1.389   1_554 S
C6     C9      1.410   .     A
C6     C27     1.428   .     A
C7     C8      1.389   .     A
C7     H38     1.084   .     S
C8     C20     1.393   .     A
C8     H41     1.083   .     S
C9     H36     1.077   .     S
C9     C20     1.392   .     A
C10    C74     1.335   .     S
C10    H102    1.088   .     S
C11    C136    1.335   1_455 S
C11    H158    1.086   1_455 S
C12    H44     1.083   .     S
C12    C19     1.400   .     A
C12    C21     1.392   .     A
C13    C16     1.455   .     S
C13    C203    1.345   .     S
C13    H229    1.088   .     S
C14    C15     1.445   .     S
C14    C391    1.345   1_545 S
C14    O429    1.401   1_545 S
C15    O52     1.276   .     A
C15    O58     1.279   .     A
C16    O53     1.264   .     A
C16    O59     1.276   .     A
C17    C20     1.449   .     S
C17    O47     1.276   .     A
C17    O49     1.275   .     A
C18    O50     1.283   .     A
C18    C19     1.471   .     S
C18    O48     1.281   .     A
C19    C23     1.398   .     A
C21    H43     1.084   .     S
C21    C25     1.403   .     A
C22    H35     1.109   .     S
C22    H34     1.112   .     S
C22    H33     1.113   .     S
C22    O429    1.412   1_545 S
C23    C24     1.408   .     A
C23    H45     1.074   .     S
C24    C25     1.418   .     A
C24    C26     1.427   .     A
C25    C596    1.390   .     S
C26    C594    1.427   .     S
C27    C28     1.416   .     A
C27    C593    1.427   1_554 S
C28    C29     1.386   .     A
C28    H31     1.076   .     S
C29    H30     1.084   .     S
C29    C592    1.390   1_554 S
H32    C74     1.086   .     S
H39    C136    1.088   1_455 S
H40    C391    1.088   1_545 S
O46    Zn63    1.927   .     S
O46    Zn62    1.941   .     S
O46    Zn61    1.949   .     S
O46    Zn60    1.966   .     S
O47    Zn61    1.936   .     S
O48    Zn63    1.948   .     S
O49    Zn62    1.940   .     S
O50    Zn60    1.929   .     S
O51    C203    1.401   .     S
O51    C211    1.412   .     S
O52    Zn60    1.936   .     S
O53    Zn63    1.941   .     S
O54    Zn61    1.922   .     S
O55    Zn62    1.935   .     S
O56    Zn63    1.933   .     S
O57    Zn60    1.922   .     S
O58    Zn61    1.944   .     S
O59    Zn62    1.935   .     S
C64    C74     1.437   .     S
C64    O117    1.271   .     A
C64    O119    1.271   .     A
C65    C66     1.384   .     A
C65    H100    1.075   .     S
C65    C89     1.416   .     A
C66    H105    1.084   .     S
C66    C635    1.389   .     S
C67    O120    1.282   .     A
C67    O118    1.286   .     A
C67    C73     1.455   .     S
C68    C69     1.421   .     A
C68    C70     1.403   .     A
C68    C633    1.389   1_554 S
C69    C72     1.410   .     A
C69    C90     1.428   .     A
C70    C71     1.389   .     A
C70    H101    1.084   .     S
C71    C83     1.393   .     A
C71    H104    1.083   .     S
C72    H99     1.077   .     S
C72    C83     1.392   .     A
C73    C137    1.335   .     S
C73    H165    1.088   .     S
C75    H107    1.083   .     S
C75    C82     1.400   .     A
C75    C84     1.392   .     A
C76    C79     1.455   .     S
C76    C266    1.345   .     S
C76    H292    1.088   .     S
C77    C78     1.445   .     S
C77    C454    1.345   1_545 S
C77    O492    1.401   1_545 S
C78    O115    1.276   .     A
C78    O121    1.279   .     A
C79    O116    1.264   .     A
C79    O122    1.276   .     A
C80    C83     1.449   .     S
C80    O110    1.276   .     A
C80    O112    1.275   .     A
C81    O113    1.283   .     A
C81    C82     1.471   .     S
C81    O111    1.281   .     A
C82    C86     1.398   .     A
C84    H106    1.084   .     S
C84    C88     1.403   .     A
C85    H98     1.109   .     S
C85    H97     1.112   .     S
C85    H96     1.113   .     S
C85    O492    1.412   1_545 S
C86    C87     1.408   .     A
C86    H108    1.074   .     S
C87    C88     1.418   .     A
C87    C89     1.427   .     A
C88    C659    1.390   .     S
C89    C657    1.427   .     S
C90    C91     1.416   .     A
C90    C656    1.427   1_554 S
C91    C92     1.386   .     A
C91    H94     1.076   .     S
C92    H93     1.084   .     S
C92    C655    1.390   1_554 S
H95    C137    1.086   .     S
H103   C454    1.088   1_545 S
O109   Zn126   1.927   .     S
O109   Zn125   1.941   .     S
O109   Zn124   1.949   .     S
O109   Zn123   1.966   .     S
O110   Zn124   1.936   .     S
O111   Zn126   1.948   .     S
O112   Zn125   1.940   .     S
O113   Zn123   1.929   .     S
O114   C266    1.401   .     S
O114   C274    1.412   .     S
O115   Zn123   1.936   .     S
O116   Zn126   1.941   .     S
O117   Zn124   1.922   .     S
O118   Zn125   1.935   .     S
O119   Zn126   1.933   .     S
O120   Zn123   1.922   .     S
O121   Zn124   1.944   .     S
O122   Zn125   1.935   .     S
C127   C137    1.437   .     S
C127   O180    1.271   .     A
C127   O182    1.271   .     A
C128   C129    1.384   .     A
C128   H163    1.075   .     S
C128   C152    1.416   .     A
C129   H168    1.084   .     S
C129   C698    1.389   .     S
C130   O183    1.282   .     A
C130   O181    1.286   .     A
C130   C136    1.455   .     S
C131   C132    1.421   .     A
C131   C133    1.403   .     A
C131   C696    1.389   1_554 S
C132   C135    1.410   .     A
C132   C153    1.428   .     A
C133   C134    1.389   .     A
C133   H164    1.084   .     S
C134   C146    1.393   .     A
C134   H167    1.083   .     S
C135   H162    1.077   .     S
C135   C146    1.392   .     A
C136   C11     1.335   1_655 S
C136   H39     1.088   1_655 S
C138   H170    1.083   .     S
C138   C145    1.400   .     A
C138   C147    1.392   .     A
C139   C142    1.455   .     S
C139   C329    1.345   .     S
C139   H355    1.088   .     S
C140   C141    1.445   .     S
C140   C517    1.345   1_545 S
C140   O555    1.401   1_545 S
C141   O178    1.276   .     A
C141   O184    1.279   .     A
C142   O179    1.264   .     A
C142   O185    1.276   .     A
C143   C146    1.449   .     S
C143   O173    1.276   .     A
C143   O175    1.275   .     A
C144   O176    1.283   .     A
C144   C145    1.471   .     S
C144   O174    1.281   .     A
C145   C149    1.398   .     A
C147   H169    1.084   .     S
C147   C151    1.403   .     A
C148   H161    1.109   .     S
C148   H160    1.112   .     S
C148   H159    1.113   .     S
C148   O555    1.412   1_545 S
C149   C150    1.408   .     A
C149   H171    1.074   .     S
C150   C151    1.418   .     A
C150   C152    1.427   .     A
C151   C722    1.390   .     S
C152   C720    1.427   .     S
C153   C154    1.416   .     A
C153   C719    1.427   1_554 S
C154   C155    1.386   .     A
C154   H157    1.076   .     S
C155   H156    1.084   .     S
C155   C718    1.390   1_554 S
H158   C11     1.086   1_655 S
H166   C517    1.088   1_545 S
O172   Zn189   1.927   .     S
O172   Zn188   1.941   .     S
O172   Zn187   1.949   .     S
O172   Zn186   1.966   .     S
O173   Zn187   1.936   .     S
O174   Zn189   1.948   .     S
O175   Zn188   1.940   .     S
O176   Zn186   1.929   .     S
O177   C329    1.401   .     S
O177   C337    1.412   .     S
O178   Zn186   1.936   .     S
O179   Zn189   1.941   .     S
O180   Zn187   1.922   .     S
O181   Zn188   1.935   .     S
O182   Zn189   1.933   .     S
O183   Zn186   1.922   .     S
O184   Zn187   1.944   .     S
O185   Zn188   1.935   .     S
C190   C200    1.437   .     S
C190   O243    1.271   .     A
C190   O245    1.271   .     A
C191   C192    1.384   .     A
C191   H226    1.075   .     S
C191   C215    1.416   .     A
C192   H231    1.084   .     S
C192   C761    1.389   .     S
C193   O246    1.282   .     A
C193   O244    1.286   .     A
C193   C199    1.455   .     S
C194   C195    1.421   .     A
C194   C196    1.403   .     A
C194   C759    1.389   1_554 S
C195   C198    1.410   .     A
C195   C216    1.428   .     A
C196   C197    1.389   .     A
C196   H227    1.084   .     S
C197   C209    1.393   .     A
C197   H230    1.083   .     S
C198   H225    1.077   .     S
C198   C209    1.392   .     A
C199   C263    1.335   .     S
C199   H291    1.088   .     S
C200   C325    1.335   1_455 S
C200   H347    1.086   1_455 S
C201   H233    1.083   .     S
C201   C208    1.400   .     A
C201   C210    1.392   .     A
C202   C205    1.455   .     S
C202   C392    1.345   .     S
C202   H418    1.088   .     S
C203   C204    1.445   .     S
C204   O241    1.276   .     A
C204   O247    1.279   .     A
C205   O242    1.264   .     A
C205   O248    1.276   .     A
C206   C209    1.449   .     S
C206   O236    1.276   .     A
C206   O238    1.275   .     A
C207   O239    1.283   .     A
C207   C208    1.471   .     S
C207   O237    1.281   .     A
C208   C212    1.398   .     A
C210   H232    1.084   .     S
C210   C214    1.403   .     A
C211   H224    1.109   .     S
C211   H223    1.112   .     S
C211   H222    1.113   .     S
C212   C213    1.408   .     A
C212   H234    1.074   .     S
C213   C214    1.418   .     A
C213   C215    1.427   .     A
C214   C785    1.390   .     S
C215   C783    1.427   .     S
C216   C217    1.416   .     A
C216   C782    1.427   1_554 S
C217   C218    1.386   .     A
C217   H220    1.076   .     S
C218   H219    1.084   .     S
C218   C781    1.390   1_554 S
H221   C263    1.086   .     S
H228   C325    1.088   1_455 S
O235   Zn252   1.927   .     S
O235   Zn251   1.941   .     S
O235   Zn250   1.949   .     S
O235   Zn249   1.966   .     S
O236   Zn250   1.936   .     S
O237   Zn252   1.948   .     S
O238   Zn251   1.940   .     S
O239   Zn249   1.929   .     S
O240   C392    1.401   .     S
O240   C400    1.412   .     S
O241   Zn249   1.936   .     S
O242   Zn252   1.941   .     S
O243   Zn250   1.922   .     S
O244   Zn251   1.935   .     S
O245   Zn252   1.933   .     S
O246   Zn249   1.922   .     S
O247   Zn250   1.944   .     S
O248   Zn251   1.935   .     S
C253   C263    1.437   .     S
C253   O306    1.271   .     A
C253   O308    1.271   .     A
C254   C255    1.384   .     A
C254   H289    1.075   .     S
C254   C278    1.416   .     A
C255   H294    1.084   .     S
C255   C824    1.389   .     S
C256   O309    1.282   .     A
C256   O307    1.286   .     A
C256   C262    1.455   .     S
C257   C258    1.421   .     A
C257   C259    1.403   .     A
C257   C822    1.389   1_554 S
C258   C261    1.410   .     A
C258   C279    1.428   .     A
C259   C260    1.389   .     A
C259   H290    1.084   .     S
C260   C272    1.393   .     A
C260   H293    1.083   .     S
C261   H288    1.077   .     S
C261   C272    1.392   .     A
C262   C326    1.335   .     S
C262   H354    1.088   .     S
C264   H296    1.083   .     S
C264   C271    1.400   .     A
C264   C273    1.392   .     A
C265   C268    1.455   .     S
C265   C455    1.345   .     S
C265   H481    1.088   .     S
C266   C267    1.445   .     S
C267   O304    1.276   .     A
C267   O310    1.279   .     A
C268   O305    1.264   .     A
C268   O311    1.276   .     A
C269   C272    1.449   .     S
C269   O299    1.276   .     A
C269   O301    1.275   .     A
C270   O302    1.283   .     A
C270   C271    1.471   .     S
C270   O300    1.281   .     A
C271   C275    1.398   .     A
C273   H295    1.084   .     S
C273   C277    1.403   .     A
C274   H287    1.109   .     S
C274   H286    1.112   .     S
C274   H285    1.113   .     S
C275   C276    1.408   .     A
C275   H297    1.074   .     S
C276   C277    1.418   .     A
C276   C278    1.427   .     A
C277   C848    1.390   .     S
C278   C846    1.427   .     S
C279   C280    1.416   .     A
C279   C845    1.427   1_554 S
C280   C281    1.386   .     A
C280   H283    1.076   .     S
C281   H282    1.084   .     S
C281   C844    1.390   1_554 S
H284   C326    1.086   .     S
O298   Zn315   1.927   .     S
O298   Zn314   1.941   .     S
O298   Zn313   1.949   .     S
O298   Zn312   1.966   .     S
O299   Zn313   1.936   .     S
O300   Zn315   1.948   .     S
O301   Zn314   1.940   .     S
O302   Zn312   1.929   .     S
O303   C455    1.401   .     S
O303   C463    1.412   .     S
O304   Zn312   1.936   .     S
O305   Zn315   1.941   .     S
O306   Zn313   1.922   .     S
O307   Zn314   1.935   .     S
O308   Zn315   1.933   .     S
O309   Zn312   1.922   .     S
O310   Zn313   1.944   .     S
O311   Zn314   1.935   .     S
C316   C326    1.437   .     S
C316   O369    1.271   .     A
C316   O371    1.271   .     A
C317   C318    1.384   .     A
C317   H352    1.075   .     S
C317   C341    1.416   .     A
C318   H357    1.084   .     S
C318   C887    1.389   .     S
C319   O372    1.282   .     A
C319   O370    1.286   .     A
C319   C325    1.455   .     S
C320   C321    1.421   .     A
C320   C322    1.403   .     A
C320   C885    1.389   1_554 S
C321   C324    1.410   .     A
C321   C342    1.428   .     A
C322   C323    1.389   .     A
C322   H353    1.084   .     S
C323   C335    1.393   .     A
C323   H356    1.083   .     S
C324   H351    1.077   .     S
C324   C335    1.392   .     A
C325   C200    1.335   1_655 S
C325   H228    1.088   1_655 S
C327   H359    1.083   .     S
C327   C334    1.400   .     A
C327   C336    1.392   .     A
C328   C331    1.455   .     S
C328   C518    1.345   .     S
C328   H544    1.088   .     S
C329   C330    1.445   .     S
C330   O367    1.276   .     A
C330   O373    1.279   .     A
C331   O368    1.264   .     A
C331   O374    1.276   .     A
C332   C335    1.449   .     S
C332   O362    1.276   .     A
C332   O364    1.275   .     A
C333   O365    1.283   .     A
C333   C334    1.471   .     S
C333   O363    1.281   .     A
C334   C338    1.398   .     A
C336   H358    1.084   .     S
C336   C340    1.403   .     A
C337   H350    1.109   .     S
C337   H349    1.112   .     S
C337   H348    1.113   .     S
C338   C339    1.408   .     A
C338   H360    1.074   .     S
C339   C340    1.418   .     A
C339   C341    1.427   .     A
C340   C911    1.390   .     S
C341   C909    1.427   .     S
C342   C343    1.416   .     A
C342   C908    1.427   1_554 S
C343   C344    1.386   .     A
C343   H346    1.076   .     S
C344   H345    1.084   .     S
C344   C907    1.390   1_554 S
H347   C200    1.086   1_655 S
O361   Zn378   1.927   .     S
O361   Zn377   1.941   .     S
O361   Zn376   1.949   .     S
O361   Zn375   1.966   .     S
O362   Zn376   1.936   .     S
O363   Zn378   1.948   .     S
O364   Zn377   1.940   .     S
O365   Zn375   1.929   .     S
O366   C518    1.401   .     S
O366   C526    1.412   .     S
O367   Zn375   1.936   .     S
O368   Zn378   1.941   .     S
O369   Zn376   1.922   .     S
O370   Zn377   1.935   .     S
O371   Zn378   1.933   .     S
O372   Zn375   1.922   .     S
O373   Zn376   1.944   .     S
O374   Zn377   1.935   .     S
C379   C389    1.437   .     S
C379   O432    1.271   .     A
C379   O434    1.271   .     A
C380   C381    1.384   .     A
C380   H415    1.075   .     S
C380   C404    1.416   .     A
C381   H420    1.084   .     S
C381   C950    1.389   .     S
C382   O435    1.282   .     A
C382   O433    1.286   .     A
C382   C388    1.455   .     S
C383   C384    1.421   .     A
C383   C385    1.403   .     A
C383   C948    1.389   1_554 S
C384   C387    1.410   .     A
C384   C405    1.428   .     A
C385   C386    1.389   .     A
C385   H416    1.084   .     S
C386   C398    1.393   .     A
C386   H419    1.083   .     S
C387   H414    1.077   .     S
C387   C398    1.392   .     A
C388   C452    1.335   .     S
C388   H480    1.088   .     S
C389   C514    1.335   1_455 S
C389   H536    1.086   1_455 S
C390   H422    1.083   .     S
C390   C397    1.400   .     A
C390   C399    1.392   .     A
C391   C394    1.455   .     S
C391   C14     1.345   1_565 S
C391   H40     1.088   1_565 S
C392   C393    1.445   .     S
C393   O430    1.276   .     A
C393   O436    1.279   .     A
C394   O431    1.264   .     A
C394   O437    1.276   .     A
C395   C398    1.449   .     S
C395   O425    1.276   .     A
C395   O427    1.275   .     A
C396   O428    1.283   .     A
C396   C397    1.471   .     S
C396   O426    1.281   .     A
C397   C401    1.398   .     A
C399   H421    1.084   .     S
C399   C403    1.403   .     A
C400   H413    1.109   .     S
C400   H412    1.112   .     S
C400   H411    1.113   .     S
C401   C402    1.408   .     A
C401   H423    1.074   .     S
C402   C403    1.418   .     A
C402   C404    1.427   .     A
C403   C974    1.390   .     S
C404   C972    1.427   .     S
C405   C406    1.416   .     A
C405   C971    1.427   1_554 S
C406   C407    1.386   .     A
C406   H409    1.076   .     S
C407   H408    1.084   .     S
C407   C970    1.390   1_554 S
H410   C452    1.086   .     S
H417   C514    1.088   1_455 S
O424   Zn441   1.927   .     S
O424   Zn440   1.941   .     S
O424   Zn439   1.949   .     S
O424   Zn438   1.966   .     S
O425   Zn439   1.936   .     S
O426   Zn441   1.948   .     S
O427   Zn440   1.940   .     S
O428   Zn438   1.929   .     S
O429   C14     1.401   1_565 S
O429   C22     1.412   1_565 S
O430   Zn438   1.936   .     S
O431   Zn441   1.941   .     S
O432   Zn439   1.922   .     S
O433   Zn440   1.935   .     S
O434   Zn441   1.933   .     S
O435   Zn438   1.922   .     S
O436   Zn439   1.944   .     S
O437   Zn440   1.935   .     S
C442   C452    1.437   .     S
C442   O495    1.271   .     A
C442   O497    1.271   .     A
C443   C444    1.384   .     A
C443   H478    1.075   .     S
C443   C467    1.416   .     A
C444   H483    1.084   .     S
C444   C1013   1.389   .     S
C445   O498    1.282   .     A
C445   O496    1.286   .     A
C445   C451    1.455   .     S
C446   C447    1.421   .     A
C446   C448    1.403   .     A
C446   C1011   1.389   1_554 S
C447   C450    1.410   .     A
C447   C468    1.428   .     A
C448   C449    1.389   .     A
C448   H479    1.084   .     S
C449   C461    1.393   .     A
C449   H482    1.083   .     S
C450   H477    1.077   .     S
C450   C461    1.392   .     A
C451   C515    1.335   .     S
C451   H543    1.088   .     S
C453   H485    1.083   .     S
C453   C460    1.400   .     A
C453   C462    1.392   .     A
C454   C457    1.455   .     S
C454   C77     1.345   1_565 S
C454   H103    1.088   1_565 S
C455   C456    1.445   .     S
C456   O493    1.276   .     A
C456   O499    1.279   .     A
C457   O494    1.264   .     A
C457   O500    1.276   .     A
C458   C461    1.449   .     S
C458   O488    1.276   .     A
C458   O490    1.275   .     A
C459   O491    1.283   .     A
C459   C460    1.471   .     S
C459   O489    1.281   .     A
C460   C464    1.398   .     A
C462   H484    1.084   .     S
C462   C466    1.403   .     A
C463   H476    1.109   .     S
C463   H475    1.112   .     S
C463   H474    1.113   .     S
C464   C465    1.408   .     A
C464   H486    1.074   .     S
C465   C466    1.418   .     A
C465   C467    1.427   .     A
C466   C1037   1.390   .     S
C467   C1035   1.427   .     S
C468   C469    1.416   .     A
C468   C1034   1.427   1_554 S
C469   C470    1.386   .     A
C469   H472    1.076   .     S
C470   H471    1.084   .     S
C470   C1033   1.390   1_554 S
H473   C515    1.086   .     S
O487   Zn504   1.927   .     S
O487   Zn503   1.941   .     S
O487   Zn502   1.949   .     S
O487   Zn501   1.966   .     S
O488   Zn502   1.936   .     S
O489   Zn504   1.948   .     S
O490   Zn503   1.940   .     S
O491   Zn501   1.929   .     S
O492   C77     1.401   1_565 S
O492   C85     1.412   1_565 S
O493   Zn501   1.936   .     S
O494   Zn504   1.941   .     S
O495   Zn502   1.922   .     S
O496   Zn503   1.935   .     S
O497   Zn504   1.933   .     S
O498   Zn501   1.922   .     S
O499   Zn502   1.944   .     S
O500   Zn503   1.935   .     S
C505   C515    1.437   .     S
C505   O558    1.271   .     A
C505   O560    1.271   .     A
C506   C507    1.384   .     A
C506   H541    1.075   .     S
C506   C530    1.416   .     A
C507   H546    1.084   .     S
C507   C1076   1.389   .     S
C508   O561    1.282   .     A
C508   O559    1.286   .     A
C508   C514    1.455   .     S
C509   C510    1.421   .     A
C509   C511    1.403   .     A
C509   C1074   1.389   1_554 S
C510   C513    1.410   .     A
C510   C531    1.428   .     A
C511   C512    1.389   .     A
C511   H542    1.084   .     S
C512   C524    1.393   .     A
C512   H545    1.083   .     S
C513   H540    1.077   .     S
C513   C524    1.392   .     A
C514   C389    1.335   1_655 S
C514   H417    1.088   1_655 S
C516   H548    1.083   .     S
C516   C523    1.400   .     A
C516   C525    1.392   .     A
C517   C520    1.455   .     S
C517   C140    1.345   1_565 S
C517   H166    1.088   1_565 S
C518   C519    1.445   .     S
C519   O556    1.276   .     A
C519   O562    1.279   .     A
C520   O557    1.264   .     A
C520   O563    1.276   .     A
C521   C524    1.449   .     S
C521   O551    1.276   .     A
C521   O553    1.275   .     A
C522   O554    1.283   .     A
C522   C523    1.471   .     S
C522   O552    1.281   .     A
C523   C527    1.398   .     A
C525   H547    1.084   .     S
C525   C529    1.403   .     A
C526   H539    1.109   .     S
C526   H538    1.112   .     S
C526   H537    1.113   .     S
C527   C528    1.408   .     A
C527   H549    1.074   .     S
C528   C529    1.418   .     A
C528   C530    1.427   .     A
C529   C1100   1.390   .     S
C530   C1098   1.427   .     S
C531   C532    1.416   .     A
C531   C1097   1.427   1_554 S
C532   C533    1.386   .     A
C532   H535    1.076   .     S
C533   H534    1.084   .     S
C533   C1096   1.390   1_554 S
H536   C389    1.086   1_655 S
O550   Zn567   1.927   .     S
O550   Zn566   1.941   .     S
O550   Zn565   1.949   .     S
O550   Zn564   1.966   .     S
O551   Zn565   1.936   .     S
O552   Zn567   1.948   .     S
O553   Zn566   1.940   .     S
O554   Zn564   1.929   .     S
O555   C140    1.401   1_565 S
O555   C148    1.412   1_565 S
O556   Zn564   1.936   .     S
O557   Zn567   1.941   .     S
O558   Zn565   1.922   .     S
O559   Zn566   1.935   .     S
O560   Zn567   1.933   .     S
O561   Zn564   1.922   .     S
O562   Zn565   1.944   .     S
O563   Zn566   1.935   .     S
C568   C578    1.437   .     S
C568   O621    1.271   .     A
C568   O623    1.271   .     A
C569   C570    1.384   .     A
C569   H604    1.075   .     S
C569   C593    1.416   .     A
C570   H609    1.084   .     S
C570   C5      1.389   1_556 S
C571   O624    1.282   .     A
C571   O622    1.286   .     A
C571   C577    1.455   .     S
C572   C573    1.421   .     A
C572   C574    1.403   .     A
C573   C576    1.410   .     A
C573   C594    1.428   .     A
C574   C575    1.389   .     A
C574   H605    1.084   .     S
C575   C587    1.393   .     A
C575   H608    1.083   .     S
C576   H603    1.077   .     S
C576   C587    1.392   .     A
C577   C641    1.335   .     S
C577   H669    1.088   .     S
C578   C703    1.335   1_455 S
C578   H725    1.086   1_455 S
C579   H611    1.083   .     S
C579   C586    1.400   .     A
C579   C588    1.392   .     A
C580   C583    1.455   .     S
C580   C770    1.345   .     S
C580   H796    1.088   .     S
C581   C582    1.445   .     S
C581   C958    1.345   1_545 S
C581   O996    1.401   1_545 S
C582   O619    1.276   .     A
C582   O625    1.279   .     A
C583   O620    1.264   .     A
C583   O626    1.276   .     A
C584   C587    1.449   .     S
C584   O614    1.276   .     A
C584   O616    1.275   .     A
C585   O617    1.283   .     A
C585   C586    1.471   .     S
C585   O615    1.281   .     A
C586   C590    1.398   .     A
C588   H610    1.084   .     S
C588   C592    1.403   .     A
C589   H602    1.109   .     S
C589   H601    1.112   .     S
C589   H600    1.113   .     S
C589   O996    1.412   1_545 S
C590   C591    1.408   .     A
C590   H612    1.074   .     S
C591   C592    1.418   .     A
C591   C593    1.427   .     A
C592   C29     1.390   1_556 S
C593   C27     1.427   1_556 S
C594   C595    1.416   .     A
C595   C596    1.386   .     A
C595   H598    1.076   .     S
C596   H597    1.084   .     S
H599   C641    1.086   .     S
H606   C703    1.088   1_455 S
H607   C958    1.088   1_545 S
O613   Zn630   1.927   .     S
O613   Zn629   1.941   .     S
O613   Zn628   1.949   .     S
O613   Zn627   1.966   .     S
O614   Zn628   1.936   .     S
O615   Zn630   1.948   .     S
O616   Zn629   1.940   .     S
O617   Zn627   1.929   .     S
O618   C770    1.401   .     S
O618   C778    1.412   .     S
O619   Zn627   1.936   .     S
O620   Zn630   1.941   .     S
O621   Zn628   1.922   .     S
O622   Zn629   1.935   .     S
O623   Zn630   1.933   .     S
O624   Zn627   1.922   .     S
O625   Zn628   1.944   .     S
O626   Zn629   1.935   .     S
C631   C641    1.437   .     S
C631   O684    1.271   .     A
C631   O686    1.271   .     A
C632   C633    1.384   .     A
C632   H667    1.075   .     S
C632   C656    1.416   .     A
C633   H672    1.084   .     S
C633   C68     1.389   1_556 S
C634   O687    1.282   .     A
C634   O685    1.286   .     A
C634   C640    1.455   .     S
C635   C636    1.421   .     A
C635   C637    1.403   .     A
C636   C639    1.410   .     A
C636   C657    1.428   .     A
C637   C638    1.389   .     A
C637   H668    1.084   .     S
C638   C650    1.393   .     A
C638   H671    1.083   .     S
C639   H666    1.077   .     S
C639   C650    1.392   .     A
C640   C704    1.335   .     S
C640   H732    1.088   .     S
C642   H674    1.083   .     S
C642   C649    1.400   .     A
C642   C651    1.392   .     A
C643   C646    1.455   .     S
C643   C833    1.345   .     S
C643   H859    1.088   .     S
C644   C645    1.445   .     S
C644   C1021   1.345   1_545 S
C644   O1059   1.401   1_545 S
C645   O682    1.276   .     A
C645   O688    1.279   .     A
C646   O683    1.264   .     A
C646   O689    1.276   .     A
C647   C650    1.449   .     S
C647   O677    1.276   .     A
C647   O679    1.275   .     A
C648   O680    1.283   .     A
C648   C649    1.471   .     S
C648   O678    1.281   .     A
C649   C653    1.398   .     A
C651   H673    1.084   .     S
C651   C655    1.403   .     A
C652   H665    1.109   .     S
C652   H664    1.112   .     S
C652   H663    1.113   .     S
C652   O1059   1.412   1_545 S
C653   C654    1.408   .     A
C653   H675    1.074   .     S
C654   C655    1.418   .     A
C654   C656    1.427   .     A
C655   C92     1.390   1_556 S
C656   C90     1.427   1_556 S
C657   C658    1.416   .     A
C658   C659    1.386   .     A
C658   H661    1.076   .     S
C659   H660    1.084   .     S
H662   C704    1.086   .     S
H670   C1021   1.088   1_545 S
O676   Zn693   1.927   .     S
O676   Zn692   1.941   .     S
O676   Zn691   1.949   .     S
O676   Zn690   1.966   .     S
O677   Zn691   1.936   .     S
O678   Zn693   1.948   .     S
O679   Zn692   1.940   .     S
O680   Zn690   1.929   .     S
O681   C833    1.401   .     S
O681   C841    1.412   .     S
O682   Zn690   1.936   .     S
O683   Zn693   1.941   .     S
O684   Zn691   1.922   .     S
O685   Zn692   1.935   .     S
O686   Zn693   1.933   .     S
O687   Zn690   1.922   .     S
O688   Zn691   1.944   .     S
O689   Zn692   1.935   .     S
C694   C704    1.437   .     S
C694   O747    1.271   .     A
C694   O749    1.271   .     A
C695   C696    1.384   .     A
C695   H730    1.075   .     S
C695   C719    1.416   .     A
C696   H735    1.084   .     S
C696   C131    1.389   1_556 S
C697   O750    1.282   .     A
C697   O748    1.286   .     A
C697   C703    1.455   .     S
C698   C699    1.421   .     A
C698   C700    1.403   .     A
C699   C702    1.410   .     A
C699   C720    1.428   .     A
C700   C701    1.389   .     A
C700   H731    1.084   .     S
C701   C713    1.393   .     A
C701   H734    1.083   .     S
C702   H729    1.077   .     S
C702   C713    1.392   .     A
C703   C578    1.335   1_655 S
C703   H606    1.088   1_655 S
C705   H737    1.083   .     S
C705   C712    1.400   .     A
C705   C714    1.392   .     A
C706   C709    1.455   .     S
C706   C896    1.345   .     S
C706   H922    1.088   .     S
C707   C708    1.445   .     S
C707   C1084   1.345   1_545 S
C707   O1122   1.401   1_545 S
C708   O745    1.276   .     A
C708   O751    1.279   .     A
C709   O746    1.264   .     A
C709   O752    1.276   .     A
C710   C713    1.449   .     S
C710   O740    1.276   .     A
C710   O742    1.275   .     A
C711   O743    1.283   .     A
C711   C712    1.471   .     S
C711   O741    1.281   .     A
C712   C716    1.398   .     A
C714   H736    1.084   .     S
C714   C718    1.403   .     A
C715   H728    1.109   .     S
C715   H727    1.112   .     S
C715   H726    1.113   .     S
C715   O1122   1.412   1_545 S
C716   C717    1.408   .     A
C716   H738    1.074   .     S
C717   C718    1.418   .     A
C717   C719    1.427   .     A
C718   C155    1.390   1_556 S
C719   C153    1.427   1_556 S
C720   C721    1.416   .     A
C721   C722    1.386   .     A
C721   H724    1.076   .     S
C722   H723    1.084   .     S
H725   C578    1.086   1_655 S
H733   C1084   1.088   1_545 S
O739   Zn756   1.927   .     S
O739   Zn755   1.941   .     S
O739   Zn754   1.949   .     S
O739   Zn753   1.966   .     S
O740   Zn754   1.936   .     S
O741   Zn756   1.948   .     S
O742   Zn755   1.940   .     S
O743   Zn753   1.929   .     S
O744   C896    1.401   .     S
O744   C904    1.412   .     S
O745   Zn753   1.936   .     S
O746   Zn756   1.941   .     S
O747   Zn754   1.922   .     S
O748   Zn755   1.935   .     S
O749   Zn756   1.933   .     S
O750   Zn753   1.922   .     S
O751   Zn754   1.944   .     S
O752   Zn755   1.935   .     S
C757   C767    1.437   .     S
C757   O810    1.271   .     A
C757   O812    1.271   .     A
C758   C759    1.384   .     A
C758   H793    1.075   .     S
C758   C782    1.416   .     A
C759   H798    1.084   .     S
C759   C194    1.389   1_556 S
C760   O813    1.282   .     A
C760   O811    1.286   .     A
C760   C766    1.455   .     S
C761   C762    1.421   .     A
C761   C763    1.403   .     A
C762   C765    1.410   .     A
C762   C783    1.428   .     A
C763   C764    1.389   .     A
C763   H794    1.084   .     S
C764   C776    1.393   .     A
C764   H797    1.083   .     S
C765   H792    1.077   .     S
C765   C776    1.392   .     A
C766   C830    1.335   .     S
C766   H858    1.088   .     S
C767   C892    1.335   1_455 S
C767   H914    1.086   1_455 S
C768   H800    1.083   .     S
C768   C775    1.400   .     A
C768   C777    1.392   .     A
C769   C772    1.455   .     S
C769   C959    1.345   .     S
C769   H985    1.088   .     S
C770   C771    1.445   .     S
C771   O808    1.276   .     A
C771   O814    1.279   .     A
C772   O809    1.264   .     A
C772   O815    1.276   .     A
C773   C776    1.449   .     S
C773   O803    1.276   .     A
C773   O805    1.275   .     A
C774   O806    1.283   .     A
C774   C775    1.471   .     S
C774   O804    1.281   .     A
C775   C779    1.398   .     A
C777   H799    1.084   .     S
C777   C781    1.403   .     A
C778   H791    1.109   .     S
C778   H790    1.112   .     S
C778   H789    1.113   .     S
C779   C780    1.408   .     A
C779   H801    1.074   .     S
C780   C781    1.418   .     A
C780   C782    1.427   .     A
C781   C218    1.390   1_556 S
C782   C216    1.427   1_556 S
C783   C784    1.416   .     A
C784   C785    1.386   .     A
C784   H787    1.076   .     S
C785   H786    1.084   .     S
H788   C830    1.086   .     S
H795   C892    1.088   1_455 S
O802   Zn819   1.927   .     S
O802   Zn818   1.941   .     S
O802   Zn817   1.949   .     S
O802   Zn816   1.966   .     S
O803   Zn817   1.936   .     S
O804   Zn819   1.948   .     S
O805   Zn818   1.940   .     S
O806   Zn816   1.929   .     S
O807   C959    1.401   .     S
O807   C967    1.412   .     S
O808   Zn816   1.936   .     S
O809   Zn819   1.941   .     S
O810   Zn817   1.922   .     S
O811   Zn818   1.935   .     S
O812   Zn819   1.933   .     S
O813   Zn816   1.922   .     S
O814   Zn817   1.944   .     S
O815   Zn818   1.935   .     S
C820   C830    1.437   .     S
C820   O873    1.271   .     A
C820   O875    1.271   .     A
C821   C822    1.384   .     A
C821   H856    1.075   .     S
C821   C845    1.416   .     A
C822   H861    1.084   .     S
C822   C257    1.389   1_556 S
C823   O876    1.282   .     A
C823   O874    1.286   .     A
C823   C829    1.455   .     S
C824   C825    1.421   .     A
C824   C826    1.403   .     A
C825   C828    1.410   .     A
C825   C846    1.428   .     A
C826   C827    1.389   .     A
C826   H857    1.084   .     S
C827   C839    1.393   .     A
C827   H860    1.083   .     S
C828   H855    1.077   .     S
C828   C839    1.392   .     A
C829   C893    1.335   .     S
C829   H921    1.088   .     S
C831   H863    1.083   .     S
C831   C838    1.400   .     A
C831   C840    1.392   .     A
C832   C835    1.455   .     S
C832   C1022   1.345   .     S
C832   H1048   1.088   .     S
C833   C834    1.445   .     S
C834   O871    1.276   .     A
C834   O877    1.279   .     A
C835   O872    1.264   .     A
C835   O878    1.276   .     A
C836   C839    1.449   .     S
C836   O866    1.276   .     A
C836   O868    1.275   .     A
C837   O869    1.283   .     A
C837   C838    1.471   .     S
C837   O867    1.281   .     A
C838   C842    1.398   .     A
C840   H862    1.084   .     S
C840   C844    1.403   .     A
C841   H854    1.109   .     S
C841   H853    1.112   .     S
C841   H852    1.113   .     S
C842   C843    1.408   .     A
C842   H864    1.074   .     S
C843   C844    1.418   .     A
C843   C845    1.427   .     A
C844   C281    1.390   1_556 S
C845   C279    1.427   1_556 S
C846   C847    1.416   .     A
C847   C848    1.386   .     A
C847   H850    1.076   .     S
C848   H849    1.084   .     S
H851   C893    1.086   .     S
O865   Zn882   1.927   .     S
O865   Zn881   1.941   .     S
O865   Zn880   1.949   .     S
O865   Zn879   1.966   .     S
O866   Zn880   1.936   .     S
O867   Zn882   1.948   .     S
O868   Zn881   1.940   .     S
O869   Zn879   1.929   .     S
O870   C1022   1.401   .     S
O870   C1030   1.412   .     S
O871   Zn879   1.936   .     S
O872   Zn882   1.941   .     S
O873   Zn880   1.922   .     S
O874   Zn881   1.935   .     S
O875   Zn882   1.933   .     S
O876   Zn879   1.922   .     S
O877   Zn880   1.944   .     S
O878   Zn881   1.935   .     S
C883   C893    1.437   .     S
C883   O936    1.271   .     A
C883   O938    1.271   .     A
C884   C885    1.384   .     A
C884   H919    1.075   .     S
C884   C908    1.416   .     A
C885   H924    1.084   .     S
C885   C320    1.389   1_556 S
C886   O939    1.282   .     A
C886   O937    1.286   .     A
C886   C892    1.455   .     S
C887   C888    1.421   .     A
C887   C889    1.403   .     A
C888   C891    1.410   .     A
C888   C909    1.428   .     A
C889   C890    1.389   .     A
C889   H920    1.084   .     S
C890   C902    1.393   .     A
C890   H923    1.083   .     S
C891   H918    1.077   .     S
C891   C902    1.392   .     A
C892   C767    1.335   1_655 S
C892   H795    1.088   1_655 S
C894   H926    1.083   .     S
C894   C901    1.400   .     A
C894   C903    1.392   .     A
C895   C898    1.455   .     S
C895   C1085   1.345   .     S
C895   H1111   1.088   .     S
C896   C897    1.445   .     S
C897   O934    1.276   .     A
C897   O940    1.279   .     A
C898   O935    1.264   .     A
C898   O941    1.276   .     A
C899   C902    1.449   .     S
C899   O929    1.276   .     A
C899   O931    1.275   .     A
C900   O932    1.283   .     A
C900   C901    1.471   .     S
C900   O930    1.281   .     A
C901   C905    1.398   .     A
C903   H925    1.084   .     S
C903   C907    1.403   .     A
C904   H917    1.109   .     S
C904   H916    1.112   .     S
C904   H915    1.113   .     S
C905   C906    1.408   .     A
C905   H927    1.074   .     S
C906   C907    1.418   .     A
C906   C908    1.427   .     A
C907   C344    1.390   1_556 S
C908   C342    1.427   1_556 S
C909   C910    1.416   .     A
C910   C911    1.386   .     A
C910   H913    1.076   .     S
C911   H912    1.084   .     S
H914   C767    1.086   1_655 S
O928   Zn945   1.927   .     S
O928   Zn944   1.941   .     S
O928   Zn943   1.949   .     S
O928   Zn942   1.966   .     S
O929   Zn943   1.936   .     S
O930   Zn945   1.948   .     S
O931   Zn944   1.940   .     S
O932   Zn942   1.929   .     S
O933   C1085   1.401   .     S
O933   C1093   1.412   .     S
O934   Zn942   1.936   .     S
O935   Zn945   1.941   .     S
O936   Zn943   1.922   .     S
O937   Zn944   1.935   .     S
O938   Zn945   1.933   .     S
O939   Zn942   1.922   .     S
O940   Zn943   1.944   .     S
O941   Zn944   1.935   .     S
C946   C956    1.437   .     S
C946   O999    1.271   .     A
C946   O1001   1.271   .     A
C947   C948    1.384   .     A
C947   H982    1.075   .     S
C947   C971    1.416   .     A
C948   H987    1.084   .     S
C948   C383    1.389   1_556 S
C949   O1002   1.282   .     A
C949   O1000   1.286   .     A
C949   C955    1.455   .     S
C950   C951    1.421   .     A
C950   C952    1.403   .     A
C951   C954    1.410   .     A
C951   C972    1.428   .     A
C952   C953    1.389   .     A
C952   H983    1.084   .     S
C953   C965    1.393   .     A
C953   H986    1.083   .     S
C954   H981    1.077   .     S
C954   C965    1.392   .     A
C955   C1019   1.335   .     S
C955   H1047   1.088   .     S
C956   C1081   1.335   1_455 S
C956   H1103   1.086   1_455 S
C957   H989    1.083   .     S
C957   C964    1.400   .     A
C957   C966    1.392   .     A
C958   C961    1.455   .     S
C958   C581    1.345   1_565 S
C958   H607    1.088   1_565 S
C959   C960    1.445   .     S
C960   O997    1.276   .     A
C960   O1003   1.279   .     A
C961   O998    1.264   .     A
C961   O1004   1.276   .     A
C962   C965    1.449   .     S
C962   O992    1.276   .     A
C962   O994    1.275   .     A
C963   O995    1.283   .     A
C963   C964    1.471   .     S
C963   O993    1.281   .     A
C964   C968    1.398   .     A
C966   H988    1.084   .     S
C966   C970    1.403   .     A
C967   H980    1.109   .     S
C967   H979    1.112   .     S
C967   H978    1.113   .     S
C968   C969    1.408   .     A
C968   H990    1.074   .     S
C969   C970    1.418   .     A
C969   C971    1.427   .     A
C970   C407    1.390   1_556 S
C971   C405    1.427   1_556 S
C972   C973    1.416   .     A
C973   C974    1.386   .     A
C973   H976    1.076   .     S
C974   H975    1.084   .     S
H977   C1019   1.086   .     S
H984   C1081   1.088   1_455 S
O991   Zn1008  1.927   .     S
O991   Zn1007  1.941   .     S
O991   Zn1006  1.949   .     S
O991   Zn1005  1.966   .     S
O992   Zn1006  1.936   .     S
O993   Zn1008  1.948   .     S
O994   Zn1007  1.940   .     S
O995   Zn1005  1.929   .     S
O996   C581    1.401   1_565 S
O996   C589    1.412   1_565 S
O997   Zn1005  1.936   .     S
O998   Zn1008  1.941   .     S
O999   Zn1006  1.922   .     S
O1000  Zn1007  1.935   .     S
O1001  Zn1008  1.933   .     S
O1002  Zn1005  1.922   .     S
O1003  Zn1006  1.944   .     S
O1004  Zn1007  1.935   .     S
C1009  C1019   1.437   .     S
C1009  O1062   1.271   .     A
C1009  O1064   1.271   .     A
C1010  C1011   1.384   .     A
C1010  H1045   1.075   .     S
C1010  C1034   1.416   .     A
C1011  H1050   1.084   .     S
C1011  C446    1.389   1_556 S
C1012  O1065   1.282   .     A
C1012  O1063   1.286   .     A
C1012  C1018   1.455   .     S
C1013  C1014   1.421   .     A
C1013  C1015   1.403   .     A
C1014  C1017   1.410   .     A
C1014  C1035   1.428   .     A
C1015  C1016   1.389   .     A
C1015  H1046   1.084   .     S
C1016  C1028   1.393   .     A
C1016  H1049   1.083   .     S
C1017  H1044   1.077   .     S
C1017  C1028   1.392   .     A
C1018  C1082   1.335   .     S
C1018  H1110   1.088   .     S
C1020  H1052   1.083   .     S
C1020  C1027   1.400   .     A
C1020  C1029   1.392   .     A
C1021  C1024   1.455   .     S
C1021  C644    1.345   1_565 S
C1021  H670    1.088   1_565 S
C1022  C1023   1.445   .     S
C1023  O1060   1.276   .     A
C1023  O1066   1.279   .     A
C1024  O1061   1.264   .     A
C1024  O1067   1.276   .     A
C1025  C1028   1.449   .     S
C1025  O1055   1.276   .     A
C1025  O1057   1.275   .     A
C1026  O1058   1.283   .     A
C1026  C1027   1.471   .     S
C1026  O1056   1.281   .     A
C1027  C1031   1.398   .     A
C1029  H1051   1.084   .     S
C1029  C1033   1.403   .     A
C1030  H1043   1.109   .     S
C1030  H1042   1.112   .     S
C1030  H1041   1.113   .     S
C1031  C1032   1.408   .     A
C1031  H1053   1.074   .     S
C1032  C1033   1.418   .     A
C1032  C1034   1.427   .     A
C1033  C470    1.390   1_556 S
C1034  C468    1.427   1_556 S
C1035  C1036   1.416   .     A
C1036  C1037   1.386   .     A
C1036  H1039   1.076   .     S
C1037  H1038   1.084   .     S
H1040  C1082   1.086   .     S
O1054  Zn1071  1.927   .     S
O1054  Zn1070  1.941   .     S
O1054  Zn1069  1.949   .     S
O1054  Zn1068  1.966   .     S
O1055  Zn1069  1.936   .     S
O1056  Zn1071  1.948   .     S
O1057  Zn1070  1.940   .     S
O1058  Zn1068  1.929   .     S
O1059  C644    1.401   1_565 S
O1059  C652    1.412   1_565 S
O1060  Zn1068  1.936   .     S
O1061  Zn1071  1.941   .     S
O1062  Zn1069  1.922   .     S
O1063  Zn1070  1.935   .     S
O1064  Zn1071  1.933   .     S
O1065  Zn1068  1.922   .     S
O1066  Zn1069  1.944   .     S
O1067  Zn1070  1.935   .     S
C1072  C1082   1.437   .     S
C1072  O1125   1.271   .     A
C1072  O1127   1.271   .     A
C1073  C1074   1.384   .     A
C1073  H1108   1.075   .     S
C1073  C1097   1.416   .     A
C1074  H1113   1.084   .     S
C1074  C509    1.389   1_556 S
C1075  O1128   1.282   .     A
C1075  O1126   1.286   .     A
C1075  C1081   1.455   .     S
C1076  C1077   1.421   .     A
C1076  C1078   1.403   .     A
C1077  C1080   1.410   .     A
C1077  C1098   1.428   .     A
C1078  C1079   1.389   .     A
C1078  H1109   1.084   .     S
C1079  C1091   1.393   .     A
C1079  H1112   1.083   .     S
C1080  H1107   1.077   .     S
C1080  C1091   1.392   .     A
C1081  C956    1.335   1_655 S
C1081  H984    1.088   1_655 S
C1083  H1115   1.083   .     S
C1083  C1090   1.400   .     A
C1083  C1092   1.392   .     A
C1084  C1087   1.455   .     S
C1084  C707    1.345   1_565 S
C1084  H733    1.088   1_565 S
C1085  C1086   1.445   .     S
C1086  O1123   1.276   .     A
C1086  O1129   1.279   .     A
C1087  O1124   1.264   .     A
C1087  O1130   1.276   .     A
C1088  C1091   1.449   .     S
C1088  O1118   1.276   .     A
C1088  O1120   1.275   .     A
C1089  O1121   1.283   .     A
C1089  C1090   1.471   .     S
C1089  O1119   1.281   .     A
C1090  C1094   1.398   .     A
C1092  H1114   1.084   .     S
C1092  C1096   1.403   .     A
C1093  H1106   1.109   .     S
C1093  H1105   1.112   .     S
C1093  H1104   1.113   .     S
C1094  C1095   1.408   .     A
C1094  H1116   1.074   .     S
C1095  C1096   1.418   .     A
C1095  C1097   1.427   .     A
C1096  C533    1.390   1_556 S
C1097  C531    1.427   1_556 S
C1098  C1099   1.416   .     A
C1099  C1100   1.386   .     A
C1099  H1102   1.076   .     S
C1100  H1101   1.084   .     S
H1103  C956    1.086   1_655 S
O1117  Zn1134  1.927   .     S
O1117  Zn1133  1.941   .     S
O1117  Zn1132  1.949   .     S
O1117  Zn1131  1.966   .     S
O1118  Zn1132  1.936   .     S
O1119  Zn1134  1.948   .     S
O1120  Zn1133  1.940   .     S
O1121  Zn1131  1.929   .     S
O1122  C707    1.401   1_565 S
O1122  C715    1.412   1_565 S
O1123  Zn1131  1.936   .     S
O1124  Zn1134  1.941   .     S
O1125  Zn1132  1.922   .     S
O1126  Zn1133  1.935   .     S
O1127  Zn1134  1.933   .     S
O1128  Zn1131  1.922   .     S
O1129  Zn1132  1.944   .     S
O1130  Zn1133  1.935   .     S
