data_str_m1_o1_o17_pcu_sym.135
_audit_creation_date              2020-01-03
_audit_creation_method            'Materials Studio'
_symmetry_space_group_name_H-M    'P1'
_symmetry_Int_Tables_number       1
_symmetry_cell_setting            triclinic
loop_
_symmetry_equiv_pos_as_xyz
  x,y,z
_cell_length_a                    36.6675
_cell_length_b                    36.6675
_cell_length_c                    34.4561
_cell_angle_alpha                 90.0000
_cell_angle_beta                  90.0000
_cell_angle_gamma                 90.0000
loop_
_atom_site_label
_atom_site_type_symbol
_atom_site_fract_x
_atom_site_fract_y
_atom_site_fract_z
_atom_site_U_iso_or_equiv
_atom_site_adp_type
_atom_site_occupancy
Zn1    Zn    0.20660   0.00000   0.21735   0.00000  Uiso   1.00
Zn2    Zn    0.29341   0.00000   0.78265   0.00000  Uiso   1.00
Zn3    Zn    0.00000   0.20660   0.21735   0.00000  Uiso   1.00
Zn4    Zn    0.00000   0.29341   0.78265   0.00000  Uiso   1.00
Zn5    Zn    0.29341   0.00000   0.21735   0.00000  Uiso   1.00
Zn6    Zn    0.20660   0.00000   0.78265   0.00000  Uiso   1.00
Zn7    Zn    0.00000   0.29341   0.21735   0.00000  Uiso   1.00
Zn8    Zn    0.00000   0.20660   0.78265   0.00000  Uiso   1.00
Zn9    Zn    0.45660   0.25000   0.71735   0.00000  Uiso   1.00
Zn10   Zn    0.04341   0.25000   0.28265   0.00000  Uiso   1.00
Zn11   Zn    0.25000   0.45660   0.71735   0.00000  Uiso   1.00
Zn12   Zn    0.25000   0.04341   0.28265   0.00000  Uiso   1.00
Zn13   Zn    0.04341   0.25000   0.71735   0.00000  Uiso   1.00
Zn14   Zn    0.45660   0.25000   0.28265   0.00000  Uiso   1.00
Zn15   Zn    0.25000   0.04341   0.71735   0.00000  Uiso   1.00
Zn16   Zn    0.25000   0.45660   0.28265   0.00000  Uiso   1.00
C17    C     0.47713   0.27438   0.41829   0.00000  Uiso   1.00
C18    C     0.02287   0.22562   0.58171   0.00000  Uiso   1.00
C19    C     0.22562   0.47713   0.41829   0.00000  Uiso   1.00
C20    C     0.27438   0.02287   0.58171   0.00000  Uiso   1.00
C21    C     0.02287   0.22562   0.41829   0.00000  Uiso   1.00
C22    C     0.47713   0.27438   0.58172   0.00000  Uiso   1.00
C23    C     0.27438   0.02287   0.41829   0.00000  Uiso   1.00
C24    C     0.22562   0.47713   0.58172   0.00000  Uiso   1.00
C25    C     0.22713   0.02438   0.91828   0.00000  Uiso   1.00
C26    C     0.27287   0.47562   0.08171   0.00000  Uiso   1.00
C27    C     0.47562   0.22713   0.91829   0.00000  Uiso   1.00
C28    C     0.02438   0.27287   0.08172   0.00000  Uiso   1.00
C29    C     0.27287   0.47562   0.91829   0.00000  Uiso   1.00
C30    C     0.22713   0.02438   0.08171   0.00000  Uiso   1.00
C31    C     0.02438   0.27287   0.91828   0.00000  Uiso   1.00
C32    C     0.47562   0.22713   0.08171   0.00000  Uiso   1.00
C33    C     0.00000   0.25000   0.39815   0.00000  Uiso   1.00
C34    C     0.00000   0.25000   0.60185   0.00000  Uiso   1.00
C35    C     0.25000   0.00000   0.39815   0.00000  Uiso   1.00
C36    C     0.25000   0.00000   0.60185   0.00000  Uiso   1.00
C37    C     0.25000  -0.00000   0.89815   0.00000  Uiso   1.00
C38    C     0.25000  -0.00000   0.10185   0.00000  Uiso   1.00
C39    C     0.00000   0.25000   0.89815   0.00000  Uiso   1.00
C40    C     0.00000   0.25000   0.10185   0.00000  Uiso   1.00
O41    O     0.25000   0.00000   0.25000   0.00000  Uiso   1.00
O42    O     0.25000   0.00000   0.75000   0.00000  Uiso   1.00
O43    O     0.00000   0.25000   0.25000   0.00000  Uiso   1.00
O44    O     0.00000   0.25000   0.75000   0.00000  Uiso   1.00
O45    O     0.25000   0.46964   0.33755   0.00000  Uiso   1.00
O46    O     0.25000   0.03037   0.66245   0.00000  Uiso   1.00
O47    O     0.03037   0.25000   0.33755   0.00000  Uiso   1.00
O48    O     0.46964   0.25000   0.66245   0.00000  Uiso   1.00
O49    O     0.25000   0.03037   0.33755   0.00000  Uiso   1.00
O50    O     0.25000   0.46964   0.66245   0.00000  Uiso   1.00
O51    O     0.46964   0.25000   0.33755   0.00000  Uiso   1.00
O52    O     0.03037   0.25000   0.66245   0.00000  Uiso   1.00
O53    O     0.00000   0.21964   0.83755   0.00000  Uiso   1.00
O54    O     0.00000   0.28037   0.16245   0.00000  Uiso   1.00
O55    O     0.28037   0.00000   0.83755   0.00000  Uiso   1.00
O56    O     0.21964   0.00000   0.16245   0.00000  Uiso   1.00
O57    O     0.00000   0.28037   0.83755   0.00000  Uiso   1.00
O58    O     0.00000   0.21964   0.16245   0.00000  Uiso   1.00
O59    O     0.21964   0.00000   0.83755   0.00000  Uiso   1.00
O60    O     0.28037   0.00000   0.16245   0.00000  Uiso   1.00
H61    H     0.06092   0.18039   0.46529   0.00000  Uiso   1.00
H62    H     0.43908   0.31961   0.53471   0.00000  Uiso   1.00
H63    H     0.31962   0.06091   0.46529   0.00000  Uiso   1.00
H64    H     0.18039   0.43909   0.53471   0.00000  Uiso   1.00
H65    H     0.43908   0.31961   0.46529   0.00000  Uiso   1.00
H66    H     0.06092   0.18039   0.53471   0.00000  Uiso   1.00
H67    H     0.18039   0.43909   0.46529   0.00000  Uiso   1.00
H68    H     0.31962   0.06091   0.53471   0.00000  Uiso   1.00
H69    H     0.31092   0.43039   0.96529   0.00000  Uiso   1.00
H70    H     0.18908   0.06961   0.03471   0.00000  Uiso   1.00
H71    H     0.06961   0.31092   0.96529   0.00000  Uiso   1.00
H72    H     0.43039   0.18908   0.03471   0.00000  Uiso   1.00
H73    H     0.18908   0.06961   0.96529   0.00000  Uiso   1.00
H74    H     0.31092   0.43039   0.03471   0.00000  Uiso   1.00
H75    H     0.43039   0.18908   0.96529   0.00000  Uiso   1.00
H76    H     0.06961   0.31092   0.03471   0.00000  Uiso   1.00
O77    O     0.20725   0.07308   0.27302   0.00000  Uiso   1.00
O78    O     0.29276   0.42693   0.72698   0.00000  Uiso   1.00
O79    O     0.42693   0.20725   0.27302   0.00000  Uiso   1.00
O80    O     0.07308   0.29276   0.72698   0.00000  Uiso   1.00
O81    O     0.29276   0.42693   0.27302   0.00000  Uiso   1.00
O82    O     0.20725   0.07308   0.72698   0.00000  Uiso   1.00
O83    O     0.07308   0.29276   0.27302   0.00000  Uiso   1.00
O84    O     0.42693   0.20725   0.72698   0.00000  Uiso   1.00
O85    O     0.20725   0.42693   0.72698   0.00000  Uiso   1.00
O86    O     0.29276   0.07308   0.27302   0.00000  Uiso   1.00
O87    O     0.42693   0.29276   0.72698   0.00000  Uiso   1.00
O88    O     0.07308   0.20725   0.27302   0.00000  Uiso   1.00
O89    O     0.29276   0.07308   0.72698   0.00000  Uiso   1.00
O90    O     0.20725   0.42693   0.27302   0.00000  Uiso   1.00
O91    O     0.07308   0.20725   0.72698   0.00000  Uiso   1.00
O92    O     0.42693   0.29276   0.27302   0.00000  Uiso   1.00
O93    O     0.45725   0.32308   0.77302   0.00000  Uiso   1.00
O94    O     0.04276   0.17693   0.22698   0.00000  Uiso   1.00
O95    O     0.17693   0.45725   0.77302   0.00000  Uiso   1.00
O96    O     0.32308   0.04276   0.22698   0.00000  Uiso   1.00
O97    O     0.04276   0.17693   0.77302   0.00000  Uiso   1.00
O98    O     0.45725   0.32308   0.22698   0.00000  Uiso   1.00
O99    O     0.32308   0.04276   0.77302   0.00000  Uiso   1.00
O100   O     0.17693   0.45725   0.22698   0.00000  Uiso   1.00
O101   O     0.45725   0.17693   0.22698   0.00000  Uiso   1.00
O102   O     0.04276   0.32308   0.77302   0.00000  Uiso   1.00
O103   O     0.17693   0.04276   0.22698   0.00000  Uiso   1.00
O104   O     0.32308   0.45725   0.77302   0.00000  Uiso   1.00
O105   O     0.04276   0.32308   0.22698   0.00000  Uiso   1.00
O106   O     0.45725   0.17693   0.77302   0.00000  Uiso   1.00
O107   O     0.32308   0.45725   0.22698   0.00000  Uiso   1.00
O108   O     0.17693   0.04276   0.77302   0.00000  Uiso   1.00
C109   C     0.04411   0.20040   0.47987   0.00000  Uiso   1.00
C110   C     0.45589   0.29960   0.52013   0.00000  Uiso   1.00
C111   C     0.29961   0.04411   0.47987   0.00000  Uiso   1.00
C112   C     0.20039   0.45589   0.52013   0.00000  Uiso   1.00
C113   C     0.45589   0.29960   0.47987   0.00000  Uiso   1.00
C114   C     0.04411   0.20040   0.52013   0.00000  Uiso   1.00
C115   C     0.20039   0.45589   0.47987   0.00000  Uiso   1.00
C116   C     0.29961   0.04411   0.52013   0.00000  Uiso   1.00
C117   C     0.29411   0.45040   0.97987   0.00000  Uiso   1.00
C118   C     0.20589   0.04960   0.02013   0.00000  Uiso   1.00
C119   C     0.04960   0.29411   0.97987   0.00000  Uiso   1.00
C120   C     0.45040   0.20589   0.02013   0.00000  Uiso   1.00
C121   C     0.20589   0.04960   0.97987   0.00000  Uiso   1.00
C122   C     0.29411   0.45040   0.02013   0.00000  Uiso   1.00
C123   C     0.45040   0.20589   0.97987   0.00000  Uiso   1.00
C124   C     0.04960   0.29411   0.02013   0.00000  Uiso   1.00
C125   C     0.25000   0.00000   0.35581   0.00000  Uiso   1.00
C126   C     0.25000   0.00000   0.64419   0.00000  Uiso   1.00
C127   C     0.00000   0.25000   0.35581   0.00000  Uiso   1.00
C128   C     0.00000   0.25000   0.64419   0.00000  Uiso   1.00
C129   C     0.00000   0.25000   0.85581   0.00000  Uiso   1.00
C130   C     0.00000   0.25000   0.14419   0.00000  Uiso   1.00
C131   C     0.25000   0.00000   0.85581   0.00000  Uiso   1.00
C132   C     0.25000   0.00000   0.14419   0.00000  Uiso   1.00
C133   C     0.17995   0.07007   0.24999   0.00000  Uiso   1.00
C134   C     0.32005   0.42993   0.75001   0.00000  Uiso   1.00
C135   C     0.42993   0.17995   0.24999   0.00000  Uiso   1.00
C136   C     0.07007   0.32005   0.75001   0.00000  Uiso   1.00
C137   C     0.32005   0.42993   0.24999   0.00000  Uiso   1.00
C138   C     0.17995   0.07007   0.75001   0.00000  Uiso   1.00
C139   C     0.07007   0.32005   0.24999   0.00000  Uiso   1.00
C140   C     0.42993   0.17995   0.75001   0.00000  Uiso   1.00
C141   C     0.17993   0.42995   0.74999   0.00000  Uiso   1.00
C142   C     0.32007   0.07005   0.25001   0.00000  Uiso   1.00
C143   C     0.42995   0.32007   0.74999   0.00000  Uiso   1.00
C144   C     0.07005   0.17993   0.25001   0.00000  Uiso   1.00
C145   C     0.32007   0.07005   0.74999   0.00000  Uiso   1.00
C146   C     0.17993   0.42995   0.25001   0.00000  Uiso   1.00
C147   C     0.07005   0.17993   0.74999   0.00000  Uiso   1.00
C148   C     0.42995   0.32007   0.25001   0.00000  Uiso   1.00
C149   C     0.12233   0.40440   0.22432   0.00000  Uiso   1.00
C150   C     0.37767   0.09560   0.77568   0.00000  Uiso   1.00
C151   C     0.09560   0.12233   0.22432   0.00000  Uiso   1.00
C152   C     0.40440   0.37767   0.77568   0.00000  Uiso   1.00
C153   C     0.37767   0.09560   0.22432   0.00000  Uiso   1.00
C154   C     0.12233   0.40440   0.77568   0.00000  Uiso   1.00
C155   C     0.40440   0.37767   0.22432   0.00000  Uiso   1.00
C156   C     0.09560   0.12233   0.77568   0.00000  Uiso   1.00
C157   C     0.12234   0.09561   0.77570   0.00000  Uiso   1.00
C158   C     0.37766   0.40439   0.22430   0.00000  Uiso   1.00
C159   C     0.09561   0.37766   0.77570   0.00000  Uiso   1.00
C160   C     0.40439   0.12234   0.22430   0.00000  Uiso   1.00
C161   C     0.37766   0.40439   0.77570   0.00000  Uiso   1.00
C162   C     0.12234   0.09561   0.22430   0.00000  Uiso   1.00
C163   C     0.40439   0.12234   0.77570   0.00000  Uiso   1.00
C164   C     0.09561   0.37766   0.22430   0.00000  Uiso   1.00
C165   C     0.37233   0.15440   0.72432   0.00000  Uiso   1.00
C166   C     0.12767   0.34560   0.27568   0.00000  Uiso   1.00
C167   C     0.34560   0.37233   0.72432   0.00000  Uiso   1.00
C168   C     0.15440   0.12767   0.27568   0.00000  Uiso   1.00
C169   C     0.12767   0.34560   0.72432   0.00000  Uiso   1.00
C170   C     0.37233   0.15440   0.27568   0.00000  Uiso   1.00
C171   C     0.15440   0.12767   0.72432   0.00000  Uiso   1.00
C172   C     0.34560   0.37233   0.27568   0.00000  Uiso   1.00
C173   C     0.37234   0.34561   0.27570   0.00000  Uiso   1.00
C174   C     0.12766   0.15439   0.72430   0.00000  Uiso   1.00
C175   C     0.34561   0.12766   0.27570   0.00000  Uiso   1.00
C176   C     0.15439   0.37234   0.72430   0.00000  Uiso   1.00
C177   C     0.12766   0.15439   0.27570   0.00000  Uiso   1.00
C178   C     0.37234   0.34561   0.72430   0.00000  Uiso   1.00
C179   C     0.15439   0.37234   0.27570   0.00000  Uiso   1.00
C180   C     0.34561   0.12766   0.72430   0.00000  Uiso   1.00
H181   H     0.11985   0.42697   0.20421   0.00000  Uiso   1.00
H182   H     0.38015   0.07303   0.79579   0.00000  Uiso   1.00
H183   H     0.07303   0.11985   0.20421   0.00000  Uiso   1.00
H184   H     0.42697   0.38015   0.79579   0.00000  Uiso   1.00
H185   H     0.38015   0.07303   0.20421   0.00000  Uiso   1.00
H186   H     0.11985   0.42697   0.79579   0.00000  Uiso   1.00
H187   H     0.42697   0.38015   0.20421   0.00000  Uiso   1.00
H188   H     0.07303   0.11985   0.79579   0.00000  Uiso   1.00
H189   H     0.11988   0.07305   0.79583   0.00000  Uiso   1.00
H190   H     0.38013   0.42695   0.20417   0.00000  Uiso   1.00
H191   H     0.07305   0.38013   0.79583   0.00000  Uiso   1.00
H192   H     0.42695   0.11988   0.20417   0.00000  Uiso   1.00
H193   H     0.38013   0.42695   0.79583   0.00000  Uiso   1.00
H194   H     0.11988   0.07305   0.20417   0.00000  Uiso   1.00
H195   H     0.42695   0.11988   0.79583   0.00000  Uiso   1.00
H196   H     0.07305   0.38013   0.20417   0.00000  Uiso   1.00
H197   H     0.36985   0.17697   0.70421   0.00000  Uiso   1.00
H198   H     0.13015   0.32303   0.29579   0.00000  Uiso   1.00
H199   H     0.32303   0.36985   0.70421   0.00000  Uiso   1.00
H200   H     0.17697   0.13015   0.29579   0.00000  Uiso   1.00
H201   H     0.13015   0.32303   0.70421   0.00000  Uiso   1.00
H202   H     0.36985   0.17697   0.29579   0.00000  Uiso   1.00
H203   H     0.17697   0.13015   0.70421   0.00000  Uiso   1.00
H204   H     0.32303   0.36985   0.29579   0.00000  Uiso   1.00
H205   H     0.36988   0.32305   0.29583   0.00000  Uiso   1.00
H206   H     0.13013   0.17695   0.70417   0.00000  Uiso   1.00
H207   H     0.32305   0.13013   0.29583   0.00000  Uiso   1.00
H208   H     0.17695   0.36988   0.70417   0.00000  Uiso   1.00
H209   H     0.13013   0.17695   0.29583   0.00000  Uiso   1.00
H210   H     0.36988   0.32305   0.70417   0.00000  Uiso   1.00
H211   H     0.17695   0.36988   0.29583   0.00000  Uiso   1.00
H212   H     0.32305   0.13013   0.70417   0.00000  Uiso   1.00
C213   C     0.02267   0.22537   0.45906   0.00000  Uiso   1.00
C214   C     0.47733   0.27463   0.54094   0.00000  Uiso   1.00
C215   C     0.27464   0.02267   0.45906   0.00000  Uiso   1.00
C216   C     0.22536   0.47733   0.54094   0.00000  Uiso   1.00
C217   C     0.47733   0.27463   0.45906   0.00000  Uiso   1.00
C218   C     0.02267   0.22537   0.54094   0.00000  Uiso   1.00
C219   C     0.22536   0.47733   0.45906   0.00000  Uiso   1.00
C220   C     0.27464   0.02267   0.54094   0.00000  Uiso   1.00
C221   C     0.27267   0.47537   0.95906   0.00000  Uiso   1.00
C222   C     0.22733   0.02463   0.04094   0.00000  Uiso   1.00
C223   C     0.02463   0.27267   0.95906   0.00000  Uiso   1.00
C224   C     0.47537   0.22733   0.04094   0.00000  Uiso   1.00
C225   C     0.22733   0.02463   0.95906   0.00000  Uiso   1.00
C226   C     0.27267   0.47537   0.04094   0.00000  Uiso   1.00
C227   C     0.47537   0.22733   0.95906   0.00000  Uiso   1.00
C228   C     0.02463   0.27267   0.04094   0.00000  Uiso   1.00
C229   C     0.09814   0.34812   0.24999   0.00000  Uiso   1.00
C230   C     0.40186   0.15188   0.75001   0.00000  Uiso   1.00
C231   C     0.15188   0.09814   0.24999   0.00000  Uiso   1.00
C232   C     0.34812   0.40186   0.75001   0.00000  Uiso   1.00
C233   C     0.40186   0.15188   0.24999   0.00000  Uiso   1.00
C234   C     0.09814   0.34812   0.75001   0.00000  Uiso   1.00
C235   C     0.34812   0.40186   0.24999   0.00000  Uiso   1.00
C236   C     0.15188   0.09814   0.75001   0.00000  Uiso   1.00
C237   C     0.09812   0.15186   0.74999   0.00000  Uiso   1.00
C238   C     0.40188   0.34814   0.25001   0.00000  Uiso   1.00
C239   C     0.15186   0.40188   0.74999   0.00000  Uiso   1.00
C240   C     0.34814   0.09812   0.25001   0.00000  Uiso   1.00
C241   C     0.40188   0.34814   0.74999   0.00000  Uiso   1.00
C242   C     0.09812   0.15186   0.25001   0.00000  Uiso   1.00
C243   C     0.34814   0.09812   0.74999   0.00000  Uiso   1.00
C244   C     0.15186   0.40188   0.25001   0.00000  Uiso   1.00
C245   C     0.00000   0.25000   0.47949   0.00000  Uiso   1.00
C246   C     0.00000   0.25000   0.52051   0.00000  Uiso   1.00
C247   C     0.25000   0.00000   0.47949   0.00000  Uiso   1.00
C248   C     0.25000   0.00000   0.52051   0.00000  Uiso   1.00
C249   C     0.25000  -0.00000   0.97949   0.00000  Uiso   1.00
C250   C     0.25000  -0.00000   0.02051   0.00000  Uiso   1.00
C251   C     0.00000   0.25000   0.97949   0.00000  Uiso   1.00
C252   C     0.00000   0.25000   0.02051   0.00000  Uiso   1.00
N253   N     0.45450   0.29950   0.39718   0.00000  Uiso   1.00
O254   O     0.41917   0.29656   0.39869   0.00000  Uiso   1.00
O255   O     0.46919   0.32373   0.37444   0.00000  Uiso   1.00
N256   N     0.04550   0.20050   0.60282   0.00000  Uiso   1.00
O257   O     0.03081   0.17627   0.62556   0.00000  Uiso   1.00
O258   O     0.08083   0.20344   0.60131   0.00000  Uiso   1.00
N259   N     0.20050   0.45451   0.39718   0.00000  Uiso   1.00
O260   O     0.20344   0.41917   0.39869   0.00000  Uiso   1.00
O261   O     0.17627   0.46920   0.37444   0.00000  Uiso   1.00
N262   N     0.29951   0.04550   0.60282   0.00000  Uiso   1.00
O263   O     0.32373   0.03081   0.62556   0.00000  Uiso   1.00
O264   O     0.29656   0.08083   0.60131   0.00000  Uiso   1.00
N265   N     0.04550   0.20050   0.39718   0.00000  Uiso   1.00
O266   O     0.03081   0.17627   0.37444   0.00000  Uiso   1.00
O267   O     0.08083   0.20344   0.39869   0.00000  Uiso   1.00
N268   N     0.45450   0.29950   0.60282   0.00000  Uiso   1.00
O269   O     0.41917   0.29655   0.60131   0.00000  Uiso   1.00
O270   O     0.46919   0.32373   0.62555   0.00000  Uiso   1.00
N271   N     0.29951   0.04550   0.39718   0.00000  Uiso   1.00
O272   O     0.32373   0.03081   0.37444   0.00000  Uiso   1.00
O273   O     0.29656   0.08083   0.39869   0.00000  Uiso   1.00
N274   N     0.20050   0.45451   0.60282   0.00000  Uiso   1.00
O275   O     0.20344   0.41917   0.60131   0.00000  Uiso   1.00
O276   O     0.17627   0.46920   0.62556   0.00000  Uiso   1.00
N277   N     0.20450   0.04950   0.89718   0.00000  Uiso   1.00
O278   O     0.16917   0.04655   0.89869   0.00000  Uiso   1.00
O279   O     0.21919   0.07373   0.87445   0.00000  Uiso   1.00
N280   N     0.29550   0.45050   0.10282   0.00000  Uiso   1.00
O281   O     0.28081   0.42627   0.12556   0.00000  Uiso   1.00
O282   O     0.33083   0.45345   0.10131   0.00000  Uiso   1.00
N283   N     0.45050   0.20450   0.89718   0.00000  Uiso   1.00
O284   O     0.45344   0.16917   0.89869   0.00000  Uiso   1.00
O285   O     0.42627   0.21919   0.87444   0.00000  Uiso   1.00
N286   N     0.04950   0.29550   0.10282   0.00000  Uiso   1.00
O287   O     0.07373   0.28081   0.12556   0.00000  Uiso   1.00
O288   O     0.04656   0.33083   0.10131   0.00000  Uiso   1.00
N289   N     0.29550   0.45050   0.89718   0.00000  Uiso   1.00
O290   O     0.28081   0.42627   0.87444   0.00000  Uiso   1.00
O291   O     0.33083   0.45345   0.89869   0.00000  Uiso   1.00
N292   N     0.20450   0.04950   0.10282   0.00000  Uiso   1.00
O293   O     0.16917   0.04655   0.10131   0.00000  Uiso   1.00
O294   O     0.21919   0.07373   0.12555   0.00000  Uiso   1.00
N295   N     0.04950   0.29550   0.89718   0.00000  Uiso   1.00
O296   O     0.07373   0.28081   0.87444   0.00000  Uiso   1.00
O297   O     0.04656   0.33083   0.89869   0.00000  Uiso   1.00
N298   N     0.45050   0.20450   0.10282   0.00000  Uiso   1.00
O299   O     0.45344   0.16917   0.10131   0.00000  Uiso   1.00
O300   O     0.42627   0.21919   0.12556   0.00000  Uiso   1.00
Zn301  Zn    0.70660   0.00000   0.21735   0.00000  Uiso   1.00
Zn302  Zn    0.79341   0.00000   0.78265   0.00000  Uiso   1.00
Zn303  Zn    0.50000   0.20660   0.21735   0.00000  Uiso   1.00
Zn304  Zn    0.50000   0.29341   0.78265   0.00000  Uiso   1.00
Zn305  Zn    0.79341   0.00000   0.21735   0.00000  Uiso   1.00
Zn306  Zn    0.70660   0.00000   0.78265   0.00000  Uiso   1.00
Zn307  Zn    0.50000   0.29341   0.21735   0.00000  Uiso   1.00
Zn308  Zn    0.50000   0.20660   0.78265   0.00000  Uiso   1.00
Zn309  Zn    0.95660   0.25000   0.71735   0.00000  Uiso   1.00
Zn310  Zn    0.54341   0.25000   0.28265   0.00000  Uiso   1.00
Zn311  Zn    0.75000   0.45660   0.71735   0.00000  Uiso   1.00
Zn312  Zn    0.75000   0.04341   0.28265   0.00000  Uiso   1.00
Zn313  Zn    0.54341   0.25000   0.71735   0.00000  Uiso   1.00
Zn314  Zn    0.95660   0.25000   0.28265   0.00000  Uiso   1.00
Zn315  Zn    0.75000   0.04341   0.71735   0.00000  Uiso   1.00
Zn316  Zn    0.75000   0.45660   0.28265   0.00000  Uiso   1.00
C317   C     0.97713   0.27438   0.41829   0.00000  Uiso   1.00
C318   C     0.52287   0.22562   0.58171   0.00000  Uiso   1.00
C319   C     0.72562   0.47713   0.41829   0.00000  Uiso   1.00
C320   C     0.77438   0.02287   0.58171   0.00000  Uiso   1.00
C321   C     0.52287   0.22562   0.41829   0.00000  Uiso   1.00
C322   C     0.97713   0.27438   0.58172   0.00000  Uiso   1.00
C323   C     0.77438   0.02287   0.41829   0.00000  Uiso   1.00
C324   C     0.72562   0.47713   0.58172   0.00000  Uiso   1.00
C325   C     0.72713   0.02438   0.91828   0.00000  Uiso   1.00
C326   C     0.77287   0.47562   0.08171   0.00000  Uiso   1.00
C327   C     0.97562   0.22713   0.91829   0.00000  Uiso   1.00
C328   C     0.52438   0.27287   0.08172   0.00000  Uiso   1.00
C329   C     0.77287   0.47562   0.91829   0.00000  Uiso   1.00
C330   C     0.72713   0.02438   0.08171   0.00000  Uiso   1.00
C331   C     0.52438   0.27287   0.91828   0.00000  Uiso   1.00
C332   C     0.97562   0.22713   0.08171   0.00000  Uiso   1.00
C333   C     0.50000   0.25000   0.39815   0.00000  Uiso   1.00
C334   C     0.50000   0.25000   0.60185   0.00000  Uiso   1.00
C335   C     0.75000   0.00000   0.39815   0.00000  Uiso   1.00
C336   C     0.75000   0.00000   0.60185   0.00000  Uiso   1.00
C337   C     0.75000  -0.00000   0.89815   0.00000  Uiso   1.00
C338   C     0.75000  -0.00000   0.10185   0.00000  Uiso   1.00
C339   C     0.50000   0.25000   0.89815   0.00000  Uiso   1.00
C340   C     0.50000   0.25000   0.10185   0.00000  Uiso   1.00
O341   O     0.75000   0.00000   0.25000   0.00000  Uiso   1.00
O342   O     0.75000   0.00000   0.75000   0.00000  Uiso   1.00
O343   O     0.50000   0.25000   0.25000   0.00000  Uiso   1.00
O344   O     0.50000   0.25000   0.75000   0.00000  Uiso   1.00
O345   O     0.75000   0.46964   0.33755   0.00000  Uiso   1.00
O346   O     0.75000   0.03037   0.66245   0.00000  Uiso   1.00
O347   O     0.53037   0.25000   0.33755   0.00000  Uiso   1.00
O348   O     0.96964   0.25000   0.66245   0.00000  Uiso   1.00
O349   O     0.75000   0.03037   0.33755   0.00000  Uiso   1.00
O350   O     0.75000   0.46964   0.66245   0.00000  Uiso   1.00
O351   O     0.96964   0.25000   0.33755   0.00000  Uiso   1.00
O352   O     0.53037   0.25000   0.66245   0.00000  Uiso   1.00
O353   O     0.50000   0.21964   0.83755   0.00000  Uiso   1.00
O354   O     0.50000   0.28037   0.16245   0.00000  Uiso   1.00
O355   O     0.78037   0.00000   0.83755   0.00000  Uiso   1.00
O356   O     0.71964   0.00000   0.16245   0.00000  Uiso   1.00
O357   O     0.50000   0.28037   0.83755   0.00000  Uiso   1.00
O358   O     0.50000   0.21964   0.16245   0.00000  Uiso   1.00
O359   O     0.71964   0.00000   0.83755   0.00000  Uiso   1.00
O360   O     0.78037   0.00000   0.16245   0.00000  Uiso   1.00
H361   H     0.56092   0.18039   0.46529   0.00000  Uiso   1.00
H362   H     0.93908   0.31961   0.53471   0.00000  Uiso   1.00
H363   H     0.81962   0.06091   0.46529   0.00000  Uiso   1.00
H364   H     0.68039   0.43909   0.53471   0.00000  Uiso   1.00
H365   H     0.93908   0.31961   0.46529   0.00000  Uiso   1.00
H366   H     0.56092   0.18039   0.53471   0.00000  Uiso   1.00
H367   H     0.68039   0.43909   0.46529   0.00000  Uiso   1.00
H368   H     0.81962   0.06091   0.53471   0.00000  Uiso   1.00
H369   H     0.81092   0.43039   0.96529   0.00000  Uiso   1.00
H370   H     0.68908   0.06961   0.03471   0.00000  Uiso   1.00
H371   H     0.56961   0.31092   0.96529   0.00000  Uiso   1.00
H372   H     0.93039   0.18908   0.03471   0.00000  Uiso   1.00
H373   H     0.68908   0.06961   0.96529   0.00000  Uiso   1.00
H374   H     0.81092   0.43039   0.03471   0.00000  Uiso   1.00
H375   H     0.93039   0.18908   0.96529   0.00000  Uiso   1.00
H376   H     0.56961   0.31092   0.03471   0.00000  Uiso   1.00
O377   O     0.70725   0.07308   0.27302   0.00000  Uiso   1.00
O378   O     0.79276   0.42693   0.72698   0.00000  Uiso   1.00
O379   O     0.92693   0.20725   0.27302   0.00000  Uiso   1.00
O380   O     0.57308   0.29276   0.72698   0.00000  Uiso   1.00
O381   O     0.79276   0.42693   0.27302   0.00000  Uiso   1.00
O382   O     0.70725   0.07308   0.72698   0.00000  Uiso   1.00
O383   O     0.57308   0.29276   0.27302   0.00000  Uiso   1.00
O384   O     0.92693   0.20725   0.72698   0.00000  Uiso   1.00
O385   O     0.70725   0.42693   0.72698   0.00000  Uiso   1.00
O386   O     0.79276   0.07308   0.27302   0.00000  Uiso   1.00
O387   O     0.92693   0.29276   0.72698   0.00000  Uiso   1.00
O388   O     0.57308   0.20725   0.27302   0.00000  Uiso   1.00
O389   O     0.79276   0.07308   0.72698   0.00000  Uiso   1.00
O390   O     0.70725   0.42693   0.27302   0.00000  Uiso   1.00
O391   O     0.57308   0.20725   0.72698   0.00000  Uiso   1.00
O392   O     0.92693   0.29276   0.27302   0.00000  Uiso   1.00
O393   O     0.95725   0.32308   0.77302   0.00000  Uiso   1.00
O394   O     0.54276   0.17693   0.22698   0.00000  Uiso   1.00
O395   O     0.67693   0.45725   0.77302   0.00000  Uiso   1.00
O396   O     0.82308   0.04276   0.22698   0.00000  Uiso   1.00
O397   O     0.54276   0.17693   0.77302   0.00000  Uiso   1.00
O398   O     0.95725   0.32308   0.22698   0.00000  Uiso   1.00
O399   O     0.82308   0.04276   0.77302   0.00000  Uiso   1.00
O400   O     0.67693   0.45725   0.22698   0.00000  Uiso   1.00
O401   O     0.95725   0.17693   0.22698   0.00000  Uiso   1.00
O402   O     0.54276   0.32308   0.77302   0.00000  Uiso   1.00
O403   O     0.67693   0.04276   0.22698   0.00000  Uiso   1.00
O404   O     0.82308   0.45725   0.77302   0.00000  Uiso   1.00
O405   O     0.54276   0.32308   0.22698   0.00000  Uiso   1.00
O406   O     0.95725   0.17693   0.77302   0.00000  Uiso   1.00
O407   O     0.82308   0.45725   0.22698   0.00000  Uiso   1.00
O408   O     0.67693   0.04276   0.77302   0.00000  Uiso   1.00
C409   C     0.54411   0.20040   0.47987   0.00000  Uiso   1.00
C410   C     0.95589   0.29960   0.52013   0.00000  Uiso   1.00
C411   C     0.79961   0.04411   0.47987   0.00000  Uiso   1.00
C412   C     0.70039   0.45589   0.52013   0.00000  Uiso   1.00
C413   C     0.95589   0.29960   0.47987   0.00000  Uiso   1.00
C414   C     0.54411   0.20040   0.52013   0.00000  Uiso   1.00
C415   C     0.70039   0.45589   0.47987   0.00000  Uiso   1.00
C416   C     0.79961   0.04411   0.52013   0.00000  Uiso   1.00
C417   C     0.79411   0.45040   0.97987   0.00000  Uiso   1.00
C418   C     0.70589   0.04960   0.02013   0.00000  Uiso   1.00
C419   C     0.54960   0.29411   0.97987   0.00000  Uiso   1.00
C420   C     0.95040   0.20589   0.02013   0.00000  Uiso   1.00
C421   C     0.70589   0.04960   0.97987   0.00000  Uiso   1.00
C422   C     0.79411   0.45040   0.02013   0.00000  Uiso   1.00
C423   C     0.95040   0.20589   0.97987   0.00000  Uiso   1.00
C424   C     0.54960   0.29411   0.02013   0.00000  Uiso   1.00
C425   C     0.75000   0.00000   0.35581   0.00000  Uiso   1.00
C426   C     0.75000   0.00000   0.64419   0.00000  Uiso   1.00
C427   C     0.50000   0.25000   0.35581   0.00000  Uiso   1.00
C428   C     0.50000   0.25000   0.64419   0.00000  Uiso   1.00
C429   C     0.50000   0.25000   0.85581   0.00000  Uiso   1.00
C430   C     0.50000   0.25000   0.14419   0.00000  Uiso   1.00
C431   C     0.75000   0.00000   0.85581   0.00000  Uiso   1.00
C432   C     0.75000   0.00000   0.14419   0.00000  Uiso   1.00
C433   C     0.67995   0.07007   0.24999   0.00000  Uiso   1.00
C434   C     0.82005   0.42993   0.75001   0.00000  Uiso   1.00
C435   C     0.92993   0.17995   0.24999   0.00000  Uiso   1.00
C436   C     0.57007   0.32005   0.75001   0.00000  Uiso   1.00
C437   C     0.82005   0.42993   0.24999   0.00000  Uiso   1.00
C438   C     0.67995   0.07007   0.75001   0.00000  Uiso   1.00
C439   C     0.57007   0.32005   0.24999   0.00000  Uiso   1.00
C440   C     0.92993   0.17995   0.75001   0.00000  Uiso   1.00
C441   C     0.67993   0.42995   0.74999   0.00000  Uiso   1.00
C442   C     0.82007   0.07005   0.25001   0.00000  Uiso   1.00
C443   C     0.92995   0.32007   0.74999   0.00000  Uiso   1.00
C444   C     0.57005   0.17993   0.25001   0.00000  Uiso   1.00
C445   C     0.82007   0.07005   0.74999   0.00000  Uiso   1.00
C446   C     0.67993   0.42995   0.25001   0.00000  Uiso   1.00
C447   C     0.57005   0.17993   0.74999   0.00000  Uiso   1.00
C448   C     0.92995   0.32007   0.25001   0.00000  Uiso   1.00
C449   C     0.62233   0.40440   0.22432   0.00000  Uiso   1.00
C450   C     0.87767   0.09560   0.77568   0.00000  Uiso   1.00
C451   C     0.59560   0.12233   0.22432   0.00000  Uiso   1.00
C452   C     0.90440   0.37767   0.77568   0.00000  Uiso   1.00
C453   C     0.87767   0.09560   0.22432   0.00000  Uiso   1.00
C454   C     0.62233   0.40440   0.77568   0.00000  Uiso   1.00
C455   C     0.90440   0.37767   0.22432   0.00000  Uiso   1.00
C456   C     0.59560   0.12233   0.77568   0.00000  Uiso   1.00
C457   C     0.62234   0.09561   0.77570   0.00000  Uiso   1.00
C458   C     0.87766   0.40439   0.22430   0.00000  Uiso   1.00
C459   C     0.59561   0.37766   0.77570   0.00000  Uiso   1.00
C460   C     0.90439   0.12234   0.22430   0.00000  Uiso   1.00
C461   C     0.87766   0.40439   0.77570   0.00000  Uiso   1.00
C462   C     0.62234   0.09561   0.22430   0.00000  Uiso   1.00
C463   C     0.90439   0.12234   0.77570   0.00000  Uiso   1.00
C464   C     0.59561   0.37766   0.22430   0.00000  Uiso   1.00
C465   C     0.87233   0.15440   0.72432   0.00000  Uiso   1.00
C466   C     0.62767   0.34560   0.27568   0.00000  Uiso   1.00
C467   C     0.84560   0.37233   0.72432   0.00000  Uiso   1.00
C468   C     0.65440   0.12767   0.27568   0.00000  Uiso   1.00
C469   C     0.62767   0.34560   0.72432   0.00000  Uiso   1.00
C470   C     0.87233   0.15440   0.27568   0.00000  Uiso   1.00
C471   C     0.65440   0.12767   0.72432   0.00000  Uiso   1.00
C472   C     0.84560   0.37233   0.27568   0.00000  Uiso   1.00
C473   C     0.87234   0.34561   0.27570   0.00000  Uiso   1.00
C474   C     0.62766   0.15439   0.72430   0.00000  Uiso   1.00
C475   C     0.84561   0.12766   0.27570   0.00000  Uiso   1.00
C476   C     0.65439   0.37234   0.72430   0.00000  Uiso   1.00
C477   C     0.62766   0.15439   0.27570   0.00000  Uiso   1.00
C478   C     0.87234   0.34561   0.72430   0.00000  Uiso   1.00
C479   C     0.65439   0.37234   0.27570   0.00000  Uiso   1.00
C480   C     0.84561   0.12766   0.72430   0.00000  Uiso   1.00
H481   H     0.61985   0.42697   0.20421   0.00000  Uiso   1.00
H482   H     0.88015   0.07303   0.79579   0.00000  Uiso   1.00
H483   H     0.57303   0.11985   0.20421   0.00000  Uiso   1.00
H484   H     0.92697   0.38015   0.79579   0.00000  Uiso   1.00
H485   H     0.88015   0.07303   0.20421   0.00000  Uiso   1.00
H486   H     0.61985   0.42697   0.79579   0.00000  Uiso   1.00
H487   H     0.92697   0.38015   0.20421   0.00000  Uiso   1.00
H488   H     0.57303   0.11985   0.79579   0.00000  Uiso   1.00
H489   H     0.61988   0.07305   0.79583   0.00000  Uiso   1.00
H490   H     0.88013   0.42695   0.20417   0.00000  Uiso   1.00
H491   H     0.57305   0.38013   0.79583   0.00000  Uiso   1.00
H492   H     0.92695   0.11988   0.20417   0.00000  Uiso   1.00
H493   H     0.88013   0.42695   0.79583   0.00000  Uiso   1.00
H494   H     0.61988   0.07305   0.20417   0.00000  Uiso   1.00
H495   H     0.92695   0.11988   0.79583   0.00000  Uiso   1.00
H496   H     0.57305   0.38013   0.20417   0.00000  Uiso   1.00
H497   H     0.86985   0.17697   0.70421   0.00000  Uiso   1.00
H498   H     0.63015   0.32303   0.29579   0.00000  Uiso   1.00
H499   H     0.82303   0.36985   0.70421   0.00000  Uiso   1.00
H500   H     0.67697   0.13015   0.29579   0.00000  Uiso   1.00
H501   H     0.63015   0.32303   0.70421   0.00000  Uiso   1.00
H502   H     0.86985   0.17697   0.29579   0.00000  Uiso   1.00
H503   H     0.67697   0.13015   0.70421   0.00000  Uiso   1.00
H504   H     0.82303   0.36985   0.29579   0.00000  Uiso   1.00
H505   H     0.86988   0.32305   0.29583   0.00000  Uiso   1.00
H506   H     0.63013   0.17695   0.70417   0.00000  Uiso   1.00
H507   H     0.82305   0.13013   0.29583   0.00000  Uiso   1.00
H508   H     0.67695   0.36988   0.70417   0.00000  Uiso   1.00
H509   H     0.63013   0.17695   0.29583   0.00000  Uiso   1.00
H510   H     0.86988   0.32305   0.70417   0.00000  Uiso   1.00
H511   H     0.67695   0.36988   0.29583   0.00000  Uiso   1.00
H512   H     0.82305   0.13013   0.70417   0.00000  Uiso   1.00
C513   C     0.52267   0.22537   0.45906   0.00000  Uiso   1.00
C514   C     0.97733   0.27463   0.54094   0.00000  Uiso   1.00
C515   C     0.77464   0.02267   0.45906   0.00000  Uiso   1.00
C516   C     0.72536   0.47733   0.54094   0.00000  Uiso   1.00
C517   C     0.97733   0.27463   0.45906   0.00000  Uiso   1.00
C518   C     0.52267   0.22537   0.54094   0.00000  Uiso   1.00
C519   C     0.72536   0.47733   0.45906   0.00000  Uiso   1.00
C520   C     0.77464   0.02267   0.54094   0.00000  Uiso   1.00
C521   C     0.77267   0.47537   0.95906   0.00000  Uiso   1.00
C522   C     0.72733   0.02463   0.04094   0.00000  Uiso   1.00
C523   C     0.52463   0.27267   0.95906   0.00000  Uiso   1.00
C524   C     0.97537   0.22733   0.04094   0.00000  Uiso   1.00
C525   C     0.72733   0.02463   0.95906   0.00000  Uiso   1.00
C526   C     0.77267   0.47537   0.04094   0.00000  Uiso   1.00
C527   C     0.97537   0.22733   0.95906   0.00000  Uiso   1.00
C528   C     0.52463   0.27267   0.04094   0.00000  Uiso   1.00
C529   C     0.59814   0.34812   0.24999   0.00000  Uiso   1.00
C530   C     0.90186   0.15188   0.75001   0.00000  Uiso   1.00
C531   C     0.65188   0.09814   0.24999   0.00000  Uiso   1.00
C532   C     0.84812   0.40186   0.75001   0.00000  Uiso   1.00
C533   C     0.90186   0.15188   0.24999   0.00000  Uiso   1.00
C534   C     0.59814   0.34812   0.75001   0.00000  Uiso   1.00
C535   C     0.84812   0.40186   0.24999   0.00000  Uiso   1.00
C536   C     0.65188   0.09814   0.75001   0.00000  Uiso   1.00
C537   C     0.59812   0.15186   0.74999   0.00000  Uiso   1.00
C538   C     0.90188   0.34814   0.25001   0.00000  Uiso   1.00
C539   C     0.65186   0.40188   0.74999   0.00000  Uiso   1.00
C540   C     0.84814   0.09812   0.25001   0.00000  Uiso   1.00
C541   C     0.90188   0.34814   0.74999   0.00000  Uiso   1.00
C542   C     0.59812   0.15186   0.25001   0.00000  Uiso   1.00
C543   C     0.84814   0.09812   0.74999   0.00000  Uiso   1.00
C544   C     0.65186   0.40188   0.25001   0.00000  Uiso   1.00
C545   C     0.50000   0.25000   0.47949   0.00000  Uiso   1.00
C546   C     0.50000   0.25000   0.52051   0.00000  Uiso   1.00
C547   C     0.75000   0.00000   0.47949   0.00000  Uiso   1.00
C548   C     0.75000   0.00000   0.52051   0.00000  Uiso   1.00
C549   C     0.75000  -0.00000   0.97949   0.00000  Uiso   1.00
C550   C     0.75000  -0.00000   0.02051   0.00000  Uiso   1.00
C551   C     0.50000   0.25000   0.97949   0.00000  Uiso   1.00
C552   C     0.50000   0.25000   0.02051   0.00000  Uiso   1.00
N553   N     0.95450   0.29950   0.39718   0.00000  Uiso   1.00
O554   O     0.91917   0.29656   0.39869   0.00000  Uiso   1.00
O555   O     0.96919   0.32373   0.37444   0.00000  Uiso   1.00
N556   N     0.54550   0.20050   0.60282   0.00000  Uiso   1.00
O557   O     0.53081   0.17627   0.62556   0.00000  Uiso   1.00
O558   O     0.58083   0.20344   0.60131   0.00000  Uiso   1.00
N559   N     0.70050   0.45451   0.39718   0.00000  Uiso   1.00
O560   O     0.70344   0.41917   0.39869   0.00000  Uiso   1.00
O561   O     0.67627   0.46920   0.37444   0.00000  Uiso   1.00
N562   N     0.79951   0.04550   0.60282   0.00000  Uiso   1.00
O563   O     0.82373   0.03081   0.62556   0.00000  Uiso   1.00
O564   O     0.79656   0.08083   0.60131   0.00000  Uiso   1.00
N565   N     0.54550   0.20050   0.39718   0.00000  Uiso   1.00
O566   O     0.53081   0.17627   0.37444   0.00000  Uiso   1.00
O567   O     0.58083   0.20344   0.39869   0.00000  Uiso   1.00
N568   N     0.95450   0.29950   0.60282   0.00000  Uiso   1.00
O569   O     0.91917   0.29655   0.60131   0.00000  Uiso   1.00
O570   O     0.96919   0.32373   0.62555   0.00000  Uiso   1.00
N571   N     0.79951   0.04550   0.39718   0.00000  Uiso   1.00
O572   O     0.82373   0.03081   0.37444   0.00000  Uiso   1.00
O573   O     0.79656   0.08083   0.39869   0.00000  Uiso   1.00
N574   N     0.70050   0.45451   0.60282   0.00000  Uiso   1.00
O575   O     0.70344   0.41917   0.60131   0.00000  Uiso   1.00
O576   O     0.67627   0.46920   0.62556   0.00000  Uiso   1.00
N577   N     0.70450   0.04950   0.89718   0.00000  Uiso   1.00
O578   O     0.66917   0.04655   0.89869   0.00000  Uiso   1.00
O579   O     0.71919   0.07373   0.87445   0.00000  Uiso   1.00
N580   N     0.79550   0.45050   0.10282   0.00000  Uiso   1.00
O581   O     0.78081   0.42627   0.12556   0.00000  Uiso   1.00
O582   O     0.83083   0.45345   0.10131   0.00000  Uiso   1.00
N583   N     0.95050   0.20450   0.89718   0.00000  Uiso   1.00
O584   O     0.95344   0.16917   0.89869   0.00000  Uiso   1.00
O585   O     0.92627   0.21919   0.87444   0.00000  Uiso   1.00
N586   N     0.54950   0.29550   0.10282   0.00000  Uiso   1.00
O587   O     0.57373   0.28081   0.12556   0.00000  Uiso   1.00
O588   O     0.54656   0.33083   0.10131   0.00000  Uiso   1.00
N589   N     0.79550   0.45050   0.89718   0.00000  Uiso   1.00
O590   O     0.78081   0.42627   0.87444   0.00000  Uiso   1.00
O591   O     0.83083   0.45345   0.89869   0.00000  Uiso   1.00
N592   N     0.70450   0.04950   0.10282   0.00000  Uiso   1.00
O593   O     0.66917   0.04655   0.10131   0.00000  Uiso   1.00
O594   O     0.71919   0.07373   0.12555   0.00000  Uiso   1.00
N595   N     0.54950   0.29550   0.89718   0.00000  Uiso   1.00
O596   O     0.57373   0.28081   0.87444   0.00000  Uiso   1.00
O597   O     0.54656   0.33083   0.89869   0.00000  Uiso   1.00
N598   N     0.95050   0.20450   0.10282   0.00000  Uiso   1.00
O599   O     0.95344   0.16917   0.10131   0.00000  Uiso   1.00
O600   O     0.92627   0.21919   0.12556   0.00000  Uiso   1.00
Zn601  Zn    0.20660   0.50000   0.21735   0.00000  Uiso   1.00
Zn602  Zn    0.29341   0.50000   0.78265   0.00000  Uiso   1.00
Zn603  Zn    0.00000   0.70660   0.21735   0.00000  Uiso   1.00
Zn604  Zn    0.00000   0.79341   0.78265   0.00000  Uiso   1.00
Zn605  Zn    0.29341   0.50000   0.21735   0.00000  Uiso   1.00
Zn606  Zn    0.20660   0.50000   0.78265   0.00000  Uiso   1.00
Zn607  Zn    0.00000   0.79341   0.21735   0.00000  Uiso   1.00
Zn608  Zn    0.00000   0.70660   0.78265   0.00000  Uiso   1.00
Zn609  Zn    0.45660   0.75000   0.71735   0.00000  Uiso   1.00
Zn610  Zn    0.04341   0.75000   0.28265   0.00000  Uiso   1.00
Zn611  Zn    0.25000   0.95660   0.71735   0.00000  Uiso   1.00
Zn612  Zn    0.25000   0.54341   0.28265   0.00000  Uiso   1.00
Zn613  Zn    0.04341   0.75000   0.71735   0.00000  Uiso   1.00
Zn614  Zn    0.45660   0.75000   0.28265   0.00000  Uiso   1.00
Zn615  Zn    0.25000   0.54341   0.71735   0.00000  Uiso   1.00
Zn616  Zn    0.25000   0.95660   0.28265   0.00000  Uiso   1.00
C617   C     0.47713   0.77438   0.41829   0.00000  Uiso   1.00
C618   C     0.02287   0.72562   0.58171   0.00000  Uiso   1.00
C619   C     0.22562   0.97713   0.41829   0.00000  Uiso   1.00
C620   C     0.27438   0.52287   0.58171   0.00000  Uiso   1.00
C621   C     0.02287   0.72562   0.41829   0.00000  Uiso   1.00
C622   C     0.47713   0.77438   0.58172   0.00000  Uiso   1.00
C623   C     0.27438   0.52287   0.41829   0.00000  Uiso   1.00
C624   C     0.22562   0.97713   0.58172   0.00000  Uiso   1.00
C625   C     0.22713   0.52438   0.91828   0.00000  Uiso   1.00
C626   C     0.27287   0.97562   0.08171   0.00000  Uiso   1.00
C627   C     0.47562   0.72713   0.91829   0.00000  Uiso   1.00
C628   C     0.02438   0.77287   0.08172   0.00000  Uiso   1.00
C629   C     0.27287   0.97562   0.91829   0.00000  Uiso   1.00
C630   C     0.22713   0.52438   0.08171   0.00000  Uiso   1.00
C631   C     0.02438   0.77287   0.91828   0.00000  Uiso   1.00
C632   C     0.47562   0.72713   0.08171   0.00000  Uiso   1.00
C633   C     0.00000   0.75000   0.39815   0.00000  Uiso   1.00
C634   C     0.00000   0.75000   0.60185   0.00000  Uiso   1.00
C635   C     0.25000   0.50000   0.39815   0.00000  Uiso   1.00
C636   C     0.25000   0.50000   0.60185   0.00000  Uiso   1.00
C637   C     0.25000   0.50000   0.89815   0.00000  Uiso   1.00
C638   C     0.25000   0.50000   0.10185   0.00000  Uiso   1.00
C639   C     0.00000   0.75000   0.89815   0.00000  Uiso   1.00
C640   C     0.00000   0.75000   0.10185   0.00000  Uiso   1.00
O641   O     0.25000   0.50000   0.25000   0.00000  Uiso   1.00
O642   O     0.25000   0.50000   0.75000   0.00000  Uiso   1.00
O643   O     0.00000   0.75000   0.25000   0.00000  Uiso   1.00
O644   O     0.00000   0.75000   0.75000   0.00000  Uiso   1.00
O645   O     0.25000   0.96964   0.33755   0.00000  Uiso   1.00
O646   O     0.25000   0.53037   0.66245   0.00000  Uiso   1.00
O647   O     0.03037   0.75000   0.33755   0.00000  Uiso   1.00
O648   O     0.46964   0.75000   0.66245   0.00000  Uiso   1.00
O649   O     0.25000   0.53037   0.33755   0.00000  Uiso   1.00
O650   O     0.25000   0.96964   0.66245   0.00000  Uiso   1.00
O651   O     0.46964   0.75000   0.33755   0.00000  Uiso   1.00
O652   O     0.03037   0.75000   0.66245   0.00000  Uiso   1.00
O653   O     0.00000   0.71964   0.83755   0.00000  Uiso   1.00
O654   O     0.00000   0.78037   0.16245   0.00000  Uiso   1.00
O655   O     0.28037   0.50000   0.83755   0.00000  Uiso   1.00
O656   O     0.21964   0.50000   0.16245   0.00000  Uiso   1.00
O657   O     0.00000   0.78037   0.83755   0.00000  Uiso   1.00
O658   O     0.00000   0.71964   0.16245   0.00000  Uiso   1.00
O659   O     0.21964   0.50000   0.83755   0.00000  Uiso   1.00
O660   O     0.28037   0.50000   0.16245   0.00000  Uiso   1.00
H661   H     0.06092   0.68039   0.46529   0.00000  Uiso   1.00
H662   H     0.43908   0.81961   0.53471   0.00000  Uiso   1.00
H663   H     0.31962   0.56091   0.46529   0.00000  Uiso   1.00
H664   H     0.18039   0.93909   0.53471   0.00000  Uiso   1.00
H665   H     0.43908   0.81961   0.46529   0.00000  Uiso   1.00
H666   H     0.06092   0.68039   0.53471   0.00000  Uiso   1.00
H667   H     0.18039   0.93909   0.46529   0.00000  Uiso   1.00
H668   H     0.31962   0.56091   0.53471   0.00000  Uiso   1.00
H669   H     0.31092   0.93039   0.96529   0.00000  Uiso   1.00
H670   H     0.18908   0.56961   0.03471   0.00000  Uiso   1.00
H671   H     0.06961   0.81092   0.96529   0.00000  Uiso   1.00
H672   H     0.43039   0.68908   0.03471   0.00000  Uiso   1.00
H673   H     0.18908   0.56961   0.96529   0.00000  Uiso   1.00
H674   H     0.31092   0.93039   0.03471   0.00000  Uiso   1.00
H675   H     0.43039   0.68908   0.96529   0.00000  Uiso   1.00
H676   H     0.06961   0.81092   0.03471   0.00000  Uiso   1.00
O677   O     0.20725   0.57308   0.27302   0.00000  Uiso   1.00
O678   O     0.29276   0.92693   0.72698   0.00000  Uiso   1.00
O679   O     0.42693   0.70725   0.27302   0.00000  Uiso   1.00
O680   O     0.07308   0.79276   0.72698   0.00000  Uiso   1.00
O681   O     0.29276   0.92693   0.27302   0.00000  Uiso   1.00
O682   O     0.20725   0.57308   0.72698   0.00000  Uiso   1.00
O683   O     0.07308   0.79276   0.27302   0.00000  Uiso   1.00
O684   O     0.42693   0.70725   0.72698   0.00000  Uiso   1.00
O685   O     0.20725   0.92693   0.72698   0.00000  Uiso   1.00
O686   O     0.29276   0.57308   0.27302   0.00000  Uiso   1.00
O687   O     0.42693   0.79276   0.72698   0.00000  Uiso   1.00
O688   O     0.07308   0.70725   0.27302   0.00000  Uiso   1.00
O689   O     0.29276   0.57308   0.72698   0.00000  Uiso   1.00
O690   O     0.20725   0.92693   0.27302   0.00000  Uiso   1.00
O691   O     0.07308   0.70725   0.72698   0.00000  Uiso   1.00
O692   O     0.42693   0.79276   0.27302   0.00000  Uiso   1.00
O693   O     0.45725   0.82308   0.77302   0.00000  Uiso   1.00
O694   O     0.04276   0.67693   0.22698   0.00000  Uiso   1.00
O695   O     0.17693   0.95725   0.77302   0.00000  Uiso   1.00
O696   O     0.32308   0.54276   0.22698   0.00000  Uiso   1.00
O697   O     0.04276   0.67693   0.77302   0.00000  Uiso   1.00
O698   O     0.45725   0.82308   0.22698   0.00000  Uiso   1.00
O699   O     0.32308   0.54276   0.77302   0.00000  Uiso   1.00
O700   O     0.17693   0.95725   0.22698   0.00000  Uiso   1.00
O701   O     0.45725   0.67693   0.22698   0.00000  Uiso   1.00
O702   O     0.04276   0.82308   0.77302   0.00000  Uiso   1.00
O703   O     0.17693   0.54276   0.22698   0.00000  Uiso   1.00
O704   O     0.32308   0.95725   0.77302   0.00000  Uiso   1.00
O705   O     0.04276   0.82308   0.22698   0.00000  Uiso   1.00
O706   O     0.45725   0.67693   0.77302   0.00000  Uiso   1.00
O707   O     0.32308   0.95725   0.22698   0.00000  Uiso   1.00
O708   O     0.17693   0.54276   0.77302   0.00000  Uiso   1.00
C709   C     0.04411   0.70040   0.47987   0.00000  Uiso   1.00
C710   C     0.45589   0.79960   0.52013   0.00000  Uiso   1.00
C711   C     0.29961   0.54411   0.47987   0.00000  Uiso   1.00
C712   C     0.20039   0.95589   0.52013   0.00000  Uiso   1.00
C713   C     0.45589   0.79960   0.47987   0.00000  Uiso   1.00
C714   C     0.04411   0.70040   0.52013   0.00000  Uiso   1.00
C715   C     0.20039   0.95589   0.47987   0.00000  Uiso   1.00
C716   C     0.29961   0.54411   0.52013   0.00000  Uiso   1.00
C717   C     0.29411   0.95040   0.97987   0.00000  Uiso   1.00
C718   C     0.20589   0.54960   0.02013   0.00000  Uiso   1.00
C719   C     0.04960   0.79411   0.97987   0.00000  Uiso   1.00
C720   C     0.45040   0.70589   0.02013   0.00000  Uiso   1.00
C721   C     0.20589   0.54960   0.97987   0.00000  Uiso   1.00
C722   C     0.29411   0.95040   0.02013   0.00000  Uiso   1.00
C723   C     0.45040   0.70589   0.97987   0.00000  Uiso   1.00
C724   C     0.04960   0.79411   0.02013   0.00000  Uiso   1.00
C725   C     0.25000   0.50000   0.35581   0.00000  Uiso   1.00
C726   C     0.25000   0.50000   0.64419   0.00000  Uiso   1.00
C727   C     0.00000   0.75000   0.35581   0.00000  Uiso   1.00
C728   C     0.00000   0.75000   0.64419   0.00000  Uiso   1.00
C729   C     0.00000   0.75000   0.85581   0.00000  Uiso   1.00
C730   C     0.00000   0.75000   0.14419   0.00000  Uiso   1.00
C731   C     0.25000   0.50000   0.85581   0.00000  Uiso   1.00
C732   C     0.25000   0.50000   0.14419   0.00000  Uiso   1.00
C733   C     0.17995   0.57007   0.24999   0.00000  Uiso   1.00
C734   C     0.32005   0.92993   0.75001   0.00000  Uiso   1.00
C735   C     0.42993   0.67995   0.24999   0.00000  Uiso   1.00
C736   C     0.07007   0.82005   0.75001   0.00000  Uiso   1.00
C737   C     0.32005   0.92993   0.24999   0.00000  Uiso   1.00
C738   C     0.17995   0.57007   0.75001   0.00000  Uiso   1.00
C739   C     0.07007   0.82005   0.24999   0.00000  Uiso   1.00
C740   C     0.42993   0.67995   0.75001   0.00000  Uiso   1.00
C741   C     0.17993   0.92995   0.74999   0.00000  Uiso   1.00
C742   C     0.32007   0.57005   0.25001   0.00000  Uiso   1.00
C743   C     0.42995   0.82007   0.74999   0.00000  Uiso   1.00
C744   C     0.07005   0.67993   0.25001   0.00000  Uiso   1.00
C745   C     0.32007   0.57005   0.74999   0.00000  Uiso   1.00
C746   C     0.17993   0.92995   0.25001   0.00000  Uiso   1.00
C747   C     0.07005   0.67993   0.74999   0.00000  Uiso   1.00
C748   C     0.42995   0.82007   0.25001   0.00000  Uiso   1.00
C749   C     0.12233   0.90440   0.22432   0.00000  Uiso   1.00
C750   C     0.37767   0.59560   0.77568   0.00000  Uiso   1.00
C751   C     0.09560   0.62233   0.22432   0.00000  Uiso   1.00
C752   C     0.40440   0.87767   0.77568   0.00000  Uiso   1.00
C753   C     0.37767   0.59560   0.22432   0.00000  Uiso   1.00
C754   C     0.12233   0.90440   0.77568   0.00000  Uiso   1.00
C755   C     0.40440   0.87767   0.22432   0.00000  Uiso   1.00
C756   C     0.09560   0.62233   0.77568   0.00000  Uiso   1.00
C757   C     0.12234   0.59561   0.77570   0.00000  Uiso   1.00
C758   C     0.37766   0.90439   0.22430   0.00000  Uiso   1.00
C759   C     0.09561   0.87766   0.77570   0.00000  Uiso   1.00
C760   C     0.40439   0.62234   0.22430   0.00000  Uiso   1.00
C761   C     0.37766   0.90439   0.77570   0.00000  Uiso   1.00
C762   C     0.12234   0.59561   0.22430   0.00000  Uiso   1.00
C763   C     0.40439   0.62234   0.77570   0.00000  Uiso   1.00
C764   C     0.09561   0.87766   0.22430   0.00000  Uiso   1.00
C765   C     0.37233   0.65440   0.72432   0.00000  Uiso   1.00
C766   C     0.12767   0.84560   0.27568   0.00000  Uiso   1.00
C767   C     0.34560   0.87233   0.72432   0.00000  Uiso   1.00
C768   C     0.15440   0.62767   0.27568   0.00000  Uiso   1.00
C769   C     0.12767   0.84560   0.72432   0.00000  Uiso   1.00
C770   C     0.37233   0.65440   0.27568   0.00000  Uiso   1.00
C771   C     0.15440   0.62767   0.72432   0.00000  Uiso   1.00
C772   C     0.34560   0.87233   0.27568   0.00000  Uiso   1.00
C773   C     0.37234   0.84561   0.27570   0.00000  Uiso   1.00
C774   C     0.12766   0.65439   0.72430   0.00000  Uiso   1.00
C775   C     0.34561   0.62766   0.27570   0.00000  Uiso   1.00
C776   C     0.15439   0.87234   0.72430   0.00000  Uiso   1.00
C777   C     0.12766   0.65439   0.27570   0.00000  Uiso   1.00
C778   C     0.37234   0.84561   0.72430   0.00000  Uiso   1.00
C779   C     0.15439   0.87234   0.27570   0.00000  Uiso   1.00
C780   C     0.34561   0.62766   0.72430   0.00000  Uiso   1.00
H781   H     0.11985   0.92697   0.20421   0.00000  Uiso   1.00
H782   H     0.38015   0.57303   0.79579   0.00000  Uiso   1.00
H783   H     0.07303   0.61985   0.20421   0.00000  Uiso   1.00
H784   H     0.42697   0.88015   0.79579   0.00000  Uiso   1.00
H785   H     0.38015   0.57303   0.20421   0.00000  Uiso   1.00
H786   H     0.11985   0.92697   0.79579   0.00000  Uiso   1.00
H787   H     0.42697   0.88015   0.20421   0.00000  Uiso   1.00
H788   H     0.07303   0.61985   0.79579   0.00000  Uiso   1.00
H789   H     0.11988   0.57305   0.79583   0.00000  Uiso   1.00
H790   H     0.38013   0.92695   0.20417   0.00000  Uiso   1.00
H791   H     0.07305   0.88013   0.79583   0.00000  Uiso   1.00
H792   H     0.42695   0.61988   0.20417   0.00000  Uiso   1.00
H793   H     0.38013   0.92695   0.79583   0.00000  Uiso   1.00
H794   H     0.11988   0.57305   0.20417   0.00000  Uiso   1.00
H795   H     0.42695   0.61988   0.79583   0.00000  Uiso   1.00
H796   H     0.07305   0.88013   0.20417   0.00000  Uiso   1.00
H797   H     0.36985   0.67697   0.70421   0.00000  Uiso   1.00
H798   H     0.13015   0.82303   0.29579   0.00000  Uiso   1.00
H799   H     0.32303   0.86985   0.70421   0.00000  Uiso   1.00
H800   H     0.17697   0.63015   0.29579   0.00000  Uiso   1.00
H801   H     0.13015   0.82303   0.70421   0.00000  Uiso   1.00
H802   H     0.36985   0.67697   0.29579   0.00000  Uiso   1.00
H803   H     0.17697   0.63015   0.70421   0.00000  Uiso   1.00
H804   H     0.32303   0.86985   0.29579   0.00000  Uiso   1.00
H805   H     0.36988   0.82305   0.29583   0.00000  Uiso   1.00
H806   H     0.13013   0.67695   0.70417   0.00000  Uiso   1.00
H807   H     0.32305   0.63013   0.29583   0.00000  Uiso   1.00
H808   H     0.17695   0.86988   0.70417   0.00000  Uiso   1.00
H809   H     0.13013   0.67695   0.29583   0.00000  Uiso   1.00
H810   H     0.36988   0.82305   0.70417   0.00000  Uiso   1.00
H811   H     0.17695   0.86988   0.29583   0.00000  Uiso   1.00
H812   H     0.32305   0.63013   0.70417   0.00000  Uiso   1.00
C813   C     0.02267   0.72537   0.45906   0.00000  Uiso   1.00
C814   C     0.47733   0.77463   0.54094   0.00000  Uiso   1.00
C815   C     0.27464   0.52267   0.45906   0.00000  Uiso   1.00
C816   C     0.22536   0.97733   0.54094   0.00000  Uiso   1.00
C817   C     0.47733   0.77463   0.45906   0.00000  Uiso   1.00
C818   C     0.02267   0.72537   0.54094   0.00000  Uiso   1.00
C819   C     0.22536   0.97733   0.45906   0.00000  Uiso   1.00
C820   C     0.27464   0.52267   0.54094   0.00000  Uiso   1.00
C821   C     0.27267   0.97537   0.95906   0.00000  Uiso   1.00
C822   C     0.22733   0.52463   0.04094   0.00000  Uiso   1.00
C823   C     0.02463   0.77267   0.95906   0.00000  Uiso   1.00
C824   C     0.47537   0.72733   0.04094   0.00000  Uiso   1.00
C825   C     0.22733   0.52463   0.95906   0.00000  Uiso   1.00
C826   C     0.27267   0.97537   0.04094   0.00000  Uiso   1.00
C827   C     0.47537   0.72733   0.95906   0.00000  Uiso   1.00
C828   C     0.02463   0.77267   0.04094   0.00000  Uiso   1.00
C829   C     0.09814   0.84812   0.24999   0.00000  Uiso   1.00
C830   C     0.40186   0.65188   0.75001   0.00000  Uiso   1.00
C831   C     0.15188   0.59814   0.24999   0.00000  Uiso   1.00
C832   C     0.34812   0.90186   0.75001   0.00000  Uiso   1.00
C833   C     0.40186   0.65188   0.24999   0.00000  Uiso   1.00
C834   C     0.09814   0.84812   0.75001   0.00000  Uiso   1.00
C835   C     0.34812   0.90186   0.24999   0.00000  Uiso   1.00
C836   C     0.15188   0.59814   0.75001   0.00000  Uiso   1.00
C837   C     0.09812   0.65186   0.74999   0.00000  Uiso   1.00
C838   C     0.40188   0.84814   0.25001   0.00000  Uiso   1.00
C839   C     0.15186   0.90188   0.74999   0.00000  Uiso   1.00
C840   C     0.34814   0.59812   0.25001   0.00000  Uiso   1.00
C841   C     0.40188   0.84814   0.74999   0.00000  Uiso   1.00
C842   C     0.09812   0.65186   0.25001   0.00000  Uiso   1.00
C843   C     0.34814   0.59812   0.74999   0.00000  Uiso   1.00
C844   C     0.15186   0.90188   0.25001   0.00000  Uiso   1.00
C845   C     0.00000   0.75000   0.47949   0.00000  Uiso   1.00
C846   C     0.00000   0.75000   0.52051   0.00000  Uiso   1.00
C847   C     0.25000   0.50000   0.47949   0.00000  Uiso   1.00
C848   C     0.25000   0.50000   0.52051   0.00000  Uiso   1.00
C849   C     0.25000   0.50000   0.97949   0.00000  Uiso   1.00
C850   C     0.25000   0.50000   0.02051   0.00000  Uiso   1.00
C851   C     0.00000   0.75000   0.97949   0.00000  Uiso   1.00
C852   C     0.00000   0.75000   0.02051   0.00000  Uiso   1.00
N853   N     0.45450   0.79950   0.39718   0.00000  Uiso   1.00
O854   O     0.41917   0.79656   0.39869   0.00000  Uiso   1.00
O855   O     0.46919   0.82373   0.37444   0.00000  Uiso   1.00
N856   N     0.04550   0.70050   0.60282   0.00000  Uiso   1.00
O857   O     0.03081   0.67627   0.62556   0.00000  Uiso   1.00
O858   O     0.08083   0.70344   0.60131   0.00000  Uiso   1.00
N859   N     0.20050   0.95451   0.39718   0.00000  Uiso   1.00
O860   O     0.20344   0.91917   0.39869   0.00000  Uiso   1.00
O861   O     0.17627   0.96920   0.37444   0.00000  Uiso   1.00
N862   N     0.29951   0.54550   0.60282   0.00000  Uiso   1.00
O863   O     0.32373   0.53081   0.62556   0.00000  Uiso   1.00
O864   O     0.29656   0.58083   0.60131   0.00000  Uiso   1.00
N865   N     0.04550   0.70050   0.39718   0.00000  Uiso   1.00
O866   O     0.03081   0.67627   0.37444   0.00000  Uiso   1.00
O867   O     0.08083   0.70344   0.39869   0.00000  Uiso   1.00
N868   N     0.45450   0.79950   0.60282   0.00000  Uiso   1.00
O869   O     0.41917   0.79655   0.60131   0.00000  Uiso   1.00
O870   O     0.46919   0.82373   0.62555   0.00000  Uiso   1.00
N871   N     0.29951   0.54550   0.39718   0.00000  Uiso   1.00
O872   O     0.32373   0.53081   0.37444   0.00000  Uiso   1.00
O873   O     0.29656   0.58083   0.39869   0.00000  Uiso   1.00
N874   N     0.20050   0.95451   0.60282   0.00000  Uiso   1.00
O875   O     0.20344   0.91917   0.60131   0.00000  Uiso   1.00
O876   O     0.17627   0.96920   0.62556   0.00000  Uiso   1.00
N877   N     0.20450   0.54950   0.89718   0.00000  Uiso   1.00
O878   O     0.16917   0.54655   0.89869   0.00000  Uiso   1.00
O879   O     0.21919   0.57373   0.87445   0.00000  Uiso   1.00
N880   N     0.29550   0.95050   0.10282   0.00000  Uiso   1.00
O881   O     0.28081   0.92627   0.12556   0.00000  Uiso   1.00
O882   O     0.33083   0.95345   0.10131   0.00000  Uiso   1.00
N883   N     0.45050   0.70450   0.89718   0.00000  Uiso   1.00
O884   O     0.45344   0.66917   0.89869   0.00000  Uiso   1.00
O885   O     0.42627   0.71919   0.87444   0.00000  Uiso   1.00
N886   N     0.04950   0.79550   0.10282   0.00000  Uiso   1.00
O887   O     0.07373   0.78081   0.12556   0.00000  Uiso   1.00
O888   O     0.04656   0.83083   0.10131   0.00000  Uiso   1.00
N889   N     0.29550   0.95050   0.89718   0.00000  Uiso   1.00
O890   O     0.28081   0.92627   0.87444   0.00000  Uiso   1.00
O891   O     0.33083   0.95345   0.89869   0.00000  Uiso   1.00
N892   N     0.20450   0.54950   0.10282   0.00000  Uiso   1.00
O893   O     0.16917   0.54655   0.10131   0.00000  Uiso   1.00
O894   O     0.21919   0.57373   0.12555   0.00000  Uiso   1.00
N895   N     0.04950   0.79550   0.89718   0.00000  Uiso   1.00
O896   O     0.07373   0.78081   0.87444   0.00000  Uiso   1.00
O897   O     0.04656   0.83083   0.89869   0.00000  Uiso   1.00
N898   N     0.45050   0.70450   0.10282   0.00000  Uiso   1.00
O899   O     0.45344   0.66917   0.10131   0.00000  Uiso   1.00
O900   O     0.42627   0.71919   0.12556   0.00000  Uiso   1.00
Zn901  Zn    0.70660   0.50000   0.21735   0.00000  Uiso   1.00
Zn902  Zn    0.79341   0.50000   0.78265   0.00000  Uiso   1.00
Zn903  Zn    0.50000   0.70660   0.21735   0.00000  Uiso   1.00
Zn904  Zn    0.50000   0.79341   0.78265   0.00000  Uiso   1.00
Zn905  Zn    0.79341   0.50000   0.21735   0.00000  Uiso   1.00
Zn906  Zn    0.70660   0.50000   0.78265   0.00000  Uiso   1.00
Zn907  Zn    0.50000   0.79341   0.21735   0.00000  Uiso   1.00
Zn908  Zn    0.50000   0.70660   0.78265   0.00000  Uiso   1.00
Zn909  Zn    0.95660   0.75000   0.71735   0.00000  Uiso   1.00
Zn910  Zn    0.54341   0.75000   0.28265   0.00000  Uiso   1.00
Zn911  Zn    0.75000   0.95660   0.71735   0.00000  Uiso   1.00
Zn912  Zn    0.75000   0.54341   0.28265   0.00000  Uiso   1.00
Zn913  Zn    0.54341   0.75000   0.71735   0.00000  Uiso   1.00
Zn914  Zn    0.95660   0.75000   0.28265   0.00000  Uiso   1.00
Zn915  Zn    0.75000   0.54341   0.71735   0.00000  Uiso   1.00
Zn916  Zn    0.75000   0.95660   0.28265   0.00000  Uiso   1.00
C917   C     0.97713   0.77438   0.41829   0.00000  Uiso   1.00
C918   C     0.52287   0.72562   0.58171   0.00000  Uiso   1.00
C919   C     0.72562   0.97713   0.41829   0.00000  Uiso   1.00
C920   C     0.77438   0.52287   0.58171   0.00000  Uiso   1.00
C921   C     0.52287   0.72562   0.41829   0.00000  Uiso   1.00
C922   C     0.97713   0.77438   0.58172   0.00000  Uiso   1.00
C923   C     0.77438   0.52287   0.41829   0.00000  Uiso   1.00
C924   C     0.72562   0.97713   0.58172   0.00000  Uiso   1.00
C925   C     0.72713   0.52438   0.91828   0.00000  Uiso   1.00
C926   C     0.77287   0.97562   0.08171   0.00000  Uiso   1.00
C927   C     0.97562   0.72713   0.91829   0.00000  Uiso   1.00
C928   C     0.52438   0.77287   0.08172   0.00000  Uiso   1.00
C929   C     0.77287   0.97562   0.91829   0.00000  Uiso   1.00
C930   C     0.72713   0.52438   0.08171   0.00000  Uiso   1.00
C931   C     0.52438   0.77287   0.91828   0.00000  Uiso   1.00
C932   C     0.97562   0.72713   0.08171   0.00000  Uiso   1.00
C933   C     0.50000   0.75000   0.39815   0.00000  Uiso   1.00
C934   C     0.50000   0.75000   0.60185   0.00000  Uiso   1.00
C935   C     0.75000   0.50000   0.39815   0.00000  Uiso   1.00
C936   C     0.75000   0.50000   0.60185   0.00000  Uiso   1.00
C937   C     0.75000   0.50000   0.89815   0.00000  Uiso   1.00
C938   C     0.75000   0.50000   0.10185   0.00000  Uiso   1.00
C939   C     0.50000   0.75000   0.89815   0.00000  Uiso   1.00
C940   C     0.50000   0.75000   0.10185   0.00000  Uiso   1.00
O941   O     0.75000   0.50000   0.25000   0.00000  Uiso   1.00
O942   O     0.75000   0.50000   0.75000   0.00000  Uiso   1.00
O943   O     0.50000   0.75000   0.25000   0.00000  Uiso   1.00
O944   O     0.50000   0.75000   0.75000   0.00000  Uiso   1.00
O945   O     0.75000   0.96964   0.33755   0.00000  Uiso   1.00
O946   O     0.75000   0.53037   0.66245   0.00000  Uiso   1.00
O947   O     0.53037   0.75000   0.33755   0.00000  Uiso   1.00
O948   O     0.96964   0.75000   0.66245   0.00000  Uiso   1.00
O949   O     0.75000   0.53037   0.33755   0.00000  Uiso   1.00
O950   O     0.75000   0.96964   0.66245   0.00000  Uiso   1.00
O951   O     0.96964   0.75000   0.33755   0.00000  Uiso   1.00
O952   O     0.53037   0.75000   0.66245   0.00000  Uiso   1.00
O953   O     0.50000   0.71964   0.83755   0.00000  Uiso   1.00
O954   O     0.50000   0.78037   0.16245   0.00000  Uiso   1.00
O955   O     0.78037   0.50000   0.83755   0.00000  Uiso   1.00
O956   O     0.71964   0.50000   0.16245   0.00000  Uiso   1.00
O957   O     0.50000   0.78037   0.83755   0.00000  Uiso   1.00
O958   O     0.50000   0.71964   0.16245   0.00000  Uiso   1.00
O959   O     0.71964   0.50000   0.83755   0.00000  Uiso   1.00
O960   O     0.78037   0.50000   0.16245   0.00000  Uiso   1.00
H961   H     0.56092   0.68039   0.46529   0.00000  Uiso   1.00
H962   H     0.93908   0.81961   0.53471   0.00000  Uiso   1.00
H963   H     0.81962   0.56091   0.46529   0.00000  Uiso   1.00
H964   H     0.68039   0.93909   0.53471   0.00000  Uiso   1.00
H965   H     0.93908   0.81961   0.46529   0.00000  Uiso   1.00
H966   H     0.56092   0.68039   0.53471   0.00000  Uiso   1.00
H967   H     0.68039   0.93909   0.46529   0.00000  Uiso   1.00
H968   H     0.81962   0.56091   0.53471   0.00000  Uiso   1.00
H969   H     0.81092   0.93039   0.96529   0.00000  Uiso   1.00
H970   H     0.68908   0.56961   0.03471   0.00000  Uiso   1.00
H971   H     0.56961   0.81092   0.96529   0.00000  Uiso   1.00
H972   H     0.93039   0.68908   0.03471   0.00000  Uiso   1.00
H973   H     0.68908   0.56961   0.96529   0.00000  Uiso   1.00
H974   H     0.81092   0.93039   0.03471   0.00000  Uiso   1.00
H975   H     0.93039   0.68908   0.96529   0.00000  Uiso   1.00
H976   H     0.56961   0.81092   0.03471   0.00000  Uiso   1.00
O977   O     0.70725   0.57308   0.27302   0.00000  Uiso   1.00
O978   O     0.79276   0.92693   0.72698   0.00000  Uiso   1.00
O979   O     0.92693   0.70725   0.27302   0.00000  Uiso   1.00
O980   O     0.57308   0.79276   0.72698   0.00000  Uiso   1.00
O981   O     0.79276   0.92693   0.27302   0.00000  Uiso   1.00
O982   O     0.70725   0.57308   0.72698   0.00000  Uiso   1.00
O983   O     0.57308   0.79276   0.27302   0.00000  Uiso   1.00
O984   O     0.92693   0.70725   0.72698   0.00000  Uiso   1.00
O985   O     0.70725   0.92693   0.72698   0.00000  Uiso   1.00
O986   O     0.79276   0.57308   0.27302   0.00000  Uiso   1.00
O987   O     0.92693   0.79276   0.72698   0.00000  Uiso   1.00
O988   O     0.57308   0.70725   0.27302   0.00000  Uiso   1.00
O989   O     0.79276   0.57308   0.72698   0.00000  Uiso   1.00
O990   O     0.70725   0.92693   0.27302   0.00000  Uiso   1.00
O991   O     0.57308   0.70725   0.72698   0.00000  Uiso   1.00
O992   O     0.92693   0.79276   0.27302   0.00000  Uiso   1.00
O993   O     0.95725   0.82308   0.77302   0.00000  Uiso   1.00
O994   O     0.54276   0.67693   0.22698   0.00000  Uiso   1.00
O995   O     0.67693   0.95725   0.77302   0.00000  Uiso   1.00
O996   O     0.82308   0.54276   0.22698   0.00000  Uiso   1.00
O997   O     0.54276   0.67693   0.77302   0.00000  Uiso   1.00
O998   O     0.95725   0.82308   0.22698   0.00000  Uiso   1.00
O999   O     0.82308   0.54276   0.77302   0.00000  Uiso   1.00
O1000  O     0.67693   0.95725   0.22698   0.00000  Uiso   1.00
O1001  O     0.95725   0.67693   0.22698   0.00000  Uiso   1.00
O1002  O     0.54276   0.82308   0.77302   0.00000  Uiso   1.00
O1003  O     0.67693   0.54276   0.22698   0.00000  Uiso   1.00
O1004  O     0.82308   0.95725   0.77302   0.00000  Uiso   1.00
O1005  O     0.54276   0.82308   0.22698   0.00000  Uiso   1.00
O1006  O     0.95725   0.67693   0.77302   0.00000  Uiso   1.00
O1007  O     0.82308   0.95725   0.22698   0.00000  Uiso   1.00
O1008  O     0.67693   0.54276   0.77302   0.00000  Uiso   1.00
C1009  C     0.54411   0.70040   0.47987   0.00000  Uiso   1.00
C1010  C     0.95589   0.79960   0.52013   0.00000  Uiso   1.00
C1011  C     0.79961   0.54411   0.47987   0.00000  Uiso   1.00
C1012  C     0.70039   0.95589   0.52013   0.00000  Uiso   1.00
C1013  C     0.95589   0.79960   0.47987   0.00000  Uiso   1.00
C1014  C     0.54411   0.70040   0.52013   0.00000  Uiso   1.00
C1015  C     0.70039   0.95589   0.47987   0.00000  Uiso   1.00
C1016  C     0.79961   0.54411   0.52013   0.00000  Uiso   1.00
C1017  C     0.79411   0.95040   0.97987   0.00000  Uiso   1.00
C1018  C     0.70589   0.54960   0.02013   0.00000  Uiso   1.00
C1019  C     0.54960   0.79411   0.97987   0.00000  Uiso   1.00
C1020  C     0.95040   0.70589   0.02013   0.00000  Uiso   1.00
C1021  C     0.70589   0.54960   0.97987   0.00000  Uiso   1.00
C1022  C     0.79411   0.95040   0.02013   0.00000  Uiso   1.00
C1023  C     0.95040   0.70589   0.97987   0.00000  Uiso   1.00
C1024  C     0.54960   0.79411   0.02013   0.00000  Uiso   1.00
C1025  C     0.75000   0.50000   0.35581   0.00000  Uiso   1.00
C1026  C     0.75000   0.50000   0.64419   0.00000  Uiso   1.00
C1027  C     0.50000   0.75000   0.35581   0.00000  Uiso   1.00
C1028  C     0.50000   0.75000   0.64419   0.00000  Uiso   1.00
C1029  C     0.50000   0.75000   0.85581   0.00000  Uiso   1.00
C1030  C     0.50000   0.75000   0.14419   0.00000  Uiso   1.00
C1031  C     0.75000   0.50000   0.85581   0.00000  Uiso   1.00
C1032  C     0.75000   0.50000   0.14419   0.00000  Uiso   1.00
C1033  C     0.67995   0.57007   0.24999   0.00000  Uiso   1.00
C1034  C     0.82005   0.92993   0.75001   0.00000  Uiso   1.00
C1035  C     0.92993   0.67995   0.24999   0.00000  Uiso   1.00
C1036  C     0.57007   0.82005   0.75001   0.00000  Uiso   1.00
C1037  C     0.82005   0.92993   0.24999   0.00000  Uiso   1.00
C1038  C     0.67995   0.57007   0.75001   0.00000  Uiso   1.00
C1039  C     0.57007   0.82005   0.24999   0.00000  Uiso   1.00
C1040  C     0.92993   0.67995   0.75001   0.00000  Uiso   1.00
C1041  C     0.67993   0.92995   0.74999   0.00000  Uiso   1.00
C1042  C     0.82007   0.57005   0.25001   0.00000  Uiso   1.00
C1043  C     0.92995   0.82007   0.74999   0.00000  Uiso   1.00
C1044  C     0.57005   0.67993   0.25001   0.00000  Uiso   1.00
C1045  C     0.82007   0.57005   0.74999   0.00000  Uiso   1.00
C1046  C     0.67993   0.92995   0.25001   0.00000  Uiso   1.00
C1047  C     0.57005   0.67993   0.74999   0.00000  Uiso   1.00
C1048  C     0.92995   0.82007   0.25001   0.00000  Uiso   1.00
C1049  C     0.62233   0.90440   0.22432   0.00000  Uiso   1.00
C1050  C     0.87767   0.59560   0.77568   0.00000  Uiso   1.00
C1051  C     0.59560   0.62233   0.22432   0.00000  Uiso   1.00
C1052  C     0.90440   0.87767   0.77568   0.00000  Uiso   1.00
C1053  C     0.87767   0.59560   0.22432   0.00000  Uiso   1.00
C1054  C     0.62233   0.90440   0.77568   0.00000  Uiso   1.00
C1055  C     0.90440   0.87767   0.22432   0.00000  Uiso   1.00
C1056  C     0.59560   0.62233   0.77568   0.00000  Uiso   1.00
C1057  C     0.62234   0.59561   0.77570   0.00000  Uiso   1.00
C1058  C     0.87766   0.90439   0.22430   0.00000  Uiso   1.00
C1059  C     0.59561   0.87766   0.77570   0.00000  Uiso   1.00
C1060  C     0.90439   0.62234   0.22430   0.00000  Uiso   1.00
C1061  C     0.87766   0.90439   0.77570   0.00000  Uiso   1.00
C1062  C     0.62234   0.59561   0.22430   0.00000  Uiso   1.00
C1063  C     0.90439   0.62234   0.77570   0.00000  Uiso   1.00
C1064  C     0.59561   0.87766   0.22430   0.00000  Uiso   1.00
C1065  C     0.87233   0.65440   0.72432   0.00000  Uiso   1.00
C1066  C     0.62767   0.84560   0.27568   0.00000  Uiso   1.00
C1067  C     0.84560   0.87233   0.72432   0.00000  Uiso   1.00
C1068  C     0.65440   0.62767   0.27568   0.00000  Uiso   1.00
C1069  C     0.62767   0.84560   0.72432   0.00000  Uiso   1.00
C1070  C     0.87233   0.65440   0.27568   0.00000  Uiso   1.00
C1071  C     0.65440   0.62767   0.72432   0.00000  Uiso   1.00
C1072  C     0.84560   0.87233   0.27568   0.00000  Uiso   1.00
C1073  C     0.87234   0.84561   0.27570   0.00000  Uiso   1.00
C1074  C     0.62766   0.65439   0.72430   0.00000  Uiso   1.00
C1075  C     0.84561   0.62766   0.27570   0.00000  Uiso   1.00
C1076  C     0.65439   0.87234   0.72430   0.00000  Uiso   1.00
C1077  C     0.62766   0.65439   0.27570   0.00000  Uiso   1.00
C1078  C     0.87234   0.84561   0.72430   0.00000  Uiso   1.00
C1079  C     0.65439   0.87234   0.27570   0.00000  Uiso   1.00
C1080  C     0.84561   0.62766   0.72430   0.00000  Uiso   1.00
H1081  H     0.61985   0.92697   0.20421   0.00000  Uiso   1.00
H1082  H     0.88015   0.57303   0.79579   0.00000  Uiso   1.00
H1083  H     0.57303   0.61985   0.20421   0.00000  Uiso   1.00
H1084  H     0.92697   0.88015   0.79579   0.00000  Uiso   1.00
H1085  H     0.88015   0.57303   0.20421   0.00000  Uiso   1.00
H1086  H     0.61985   0.92697   0.79579   0.00000  Uiso   1.00
H1087  H     0.92697   0.88015   0.20421   0.00000  Uiso   1.00
H1088  H     0.57303   0.61985   0.79579   0.00000  Uiso   1.00
H1089  H     0.61988   0.57305   0.79583   0.00000  Uiso   1.00
H1090  H     0.88013   0.92695   0.20417   0.00000  Uiso   1.00
H1091  H     0.57305   0.88013   0.79583   0.00000  Uiso   1.00
H1092  H     0.92695   0.61988   0.20417   0.00000  Uiso   1.00
H1093  H     0.88013   0.92695   0.79583   0.00000  Uiso   1.00
H1094  H     0.61988   0.57305   0.20417   0.00000  Uiso   1.00
H1095  H     0.92695   0.61988   0.79583   0.00000  Uiso   1.00
H1096  H     0.57305   0.88013   0.20417   0.00000  Uiso   1.00
H1097  H     0.86985   0.67697   0.70421   0.00000  Uiso   1.00
H1098  H     0.63015   0.82303   0.29579   0.00000  Uiso   1.00
H1099  H     0.82303   0.86985   0.70421   0.00000  Uiso   1.00
H1100  H     0.67697   0.63015   0.29579   0.00000  Uiso   1.00
H1101  H     0.63015   0.82303   0.70421   0.00000  Uiso   1.00
H1102  H     0.86985   0.67697   0.29579   0.00000  Uiso   1.00
H1103  H     0.67697   0.63015   0.70421   0.00000  Uiso   1.00
H1104  H     0.82303   0.86985   0.29579   0.00000  Uiso   1.00
H1105  H     0.86988   0.82305   0.29583   0.00000  Uiso   1.00
H1106  H     0.63013   0.67695   0.70417   0.00000  Uiso   1.00
H1107  H     0.82305   0.63013   0.29583   0.00000  Uiso   1.00
H1108  H     0.67695   0.86988   0.70417   0.00000  Uiso   1.00
H1109  H     0.63013   0.67695   0.29583   0.00000  Uiso   1.00
H1110  H     0.86988   0.82305   0.70417   0.00000  Uiso   1.00
H1111  H     0.67695   0.86988   0.29583   0.00000  Uiso   1.00
H1112  H     0.82305   0.63013   0.70417   0.00000  Uiso   1.00
C1113  C     0.52267   0.72537   0.45906   0.00000  Uiso   1.00
C1114  C     0.97733   0.77463   0.54094   0.00000  Uiso   1.00
C1115  C     0.77464   0.52267   0.45906   0.00000  Uiso   1.00
C1116  C     0.72536   0.97733   0.54094   0.00000  Uiso   1.00
C1117  C     0.97733   0.77463   0.45906   0.00000  Uiso   1.00
C1118  C     0.52267   0.72537   0.54094   0.00000  Uiso   1.00
C1119  C     0.72536   0.97733   0.45906   0.00000  Uiso   1.00
C1120  C     0.77464   0.52267   0.54094   0.00000  Uiso   1.00
C1121  C     0.77267   0.97537   0.95906   0.00000  Uiso   1.00
C1122  C     0.72733   0.52463   0.04094   0.00000  Uiso   1.00
C1123  C     0.52463   0.77267   0.95906   0.00000  Uiso   1.00
C1124  C     0.97537   0.72733   0.04094   0.00000  Uiso   1.00
C1125  C     0.72733   0.52463   0.95906   0.00000  Uiso   1.00
C1126  C     0.77267   0.97537   0.04094   0.00000  Uiso   1.00
C1127  C     0.97537   0.72733   0.95906   0.00000  Uiso   1.00
C1128  C     0.52463   0.77267   0.04094   0.00000  Uiso   1.00
C1129  C     0.59814   0.84812   0.24999   0.00000  Uiso   1.00
C1130  C     0.90186   0.65188   0.75001   0.00000  Uiso   1.00
C1131  C     0.65188   0.59814   0.24999   0.00000  Uiso   1.00
C1132  C     0.84812   0.90186   0.75001   0.00000  Uiso   1.00
C1133  C     0.90186   0.65188   0.24999   0.00000  Uiso   1.00
C1134  C     0.59814   0.84812   0.75001   0.00000  Uiso   1.00
C1135  C     0.84812   0.90186   0.24999   0.00000  Uiso   1.00
C1136  C     0.65188   0.59814   0.75001   0.00000  Uiso   1.00
C1137  C     0.59812   0.65186   0.74999   0.00000  Uiso   1.00
C1138  C     0.90188   0.84814   0.25001   0.00000  Uiso   1.00
C1139  C     0.65186   0.90188   0.74999   0.00000  Uiso   1.00
C1140  C     0.84814   0.59812   0.25001   0.00000  Uiso   1.00
C1141  C     0.90188   0.84814   0.74999   0.00000  Uiso   1.00
C1142  C     0.59812   0.65186   0.25001   0.00000  Uiso   1.00
C1143  C     0.84814   0.59812   0.74999   0.00000  Uiso   1.00
C1144  C     0.65186   0.90188   0.25001   0.00000  Uiso   1.00
C1145  C     0.50000   0.75000   0.47949   0.00000  Uiso   1.00
C1146  C     0.50000   0.75000   0.52051   0.00000  Uiso   1.00
C1147  C     0.75000   0.50000   0.47949   0.00000  Uiso   1.00
C1148  C     0.75000   0.50000   0.52051   0.00000  Uiso   1.00
C1149  C     0.75000   0.50000   0.97949   0.00000  Uiso   1.00
C1150  C     0.75000   0.50000   0.02051   0.00000  Uiso   1.00
C1151  C     0.50000   0.75000   0.97949   0.00000  Uiso   1.00
C1152  C     0.50000   0.75000   0.02051   0.00000  Uiso   1.00
N1153  N     0.95450   0.79950   0.39718   0.00000  Uiso   1.00
O1154  O     0.91917   0.79656   0.39869   0.00000  Uiso   1.00
O1155  O     0.96919   0.82373   0.37444   0.00000  Uiso   1.00
N1156  N     0.54550   0.70050   0.60282   0.00000  Uiso   1.00
O1157  O     0.53081   0.67627   0.62556   0.00000  Uiso   1.00
O1158  O     0.58083   0.70344   0.60131   0.00000  Uiso   1.00
N1159  N     0.70050   0.95451   0.39718   0.00000  Uiso   1.00
O1160  O     0.70344   0.91917   0.39869   0.00000  Uiso   1.00
O1161  O     0.67627   0.96920   0.37444   0.00000  Uiso   1.00
N1162  N     0.79951   0.54550   0.60282   0.00000  Uiso   1.00
O1163  O     0.82373   0.53081   0.62556   0.00000  Uiso   1.00
O1164  O     0.79656   0.58083   0.60131   0.00000  Uiso   1.00
N1165  N     0.54550   0.70050   0.39718   0.00000  Uiso   1.00
O1166  O     0.53081   0.67627   0.37444   0.00000  Uiso   1.00
O1167  O     0.58083   0.70344   0.39869   0.00000  Uiso   1.00
N1168  N     0.95450   0.79950   0.60282   0.00000  Uiso   1.00
O1169  O     0.91917   0.79655   0.60131   0.00000  Uiso   1.00
O1170  O     0.96919   0.82373   0.62555   0.00000  Uiso   1.00
N1171  N     0.79951   0.54550   0.39718   0.00000  Uiso   1.00
O1172  O     0.82373   0.53081   0.37444   0.00000  Uiso   1.00
O1173  O     0.79656   0.58083   0.39869   0.00000  Uiso   1.00
N1174  N     0.70050   0.95451   0.60282   0.00000  Uiso   1.00
O1175  O     0.70344   0.91917   0.60131   0.00000  Uiso   1.00
O1176  O     0.67627   0.96920   0.62556   0.00000  Uiso   1.00
N1177  N     0.70450   0.54950   0.89718   0.00000  Uiso   1.00
O1178  O     0.66917   0.54655   0.89869   0.00000  Uiso   1.00
O1179  O     0.71919   0.57373   0.87445   0.00000  Uiso   1.00
N1180  N     0.79550   0.95050   0.10282   0.00000  Uiso   1.00
O1181  O     0.78081   0.92627   0.12556   0.00000  Uiso   1.00
O1182  O     0.83083   0.95345   0.10131   0.00000  Uiso   1.00
N1183  N     0.95050   0.70450   0.89718   0.00000  Uiso   1.00
O1184  O     0.95344   0.66917   0.89869   0.00000  Uiso   1.00
O1185  O     0.92627   0.71919   0.87444   0.00000  Uiso   1.00
N1186  N     0.54950   0.79550   0.10282   0.00000  Uiso   1.00
O1187  O     0.57373   0.78081   0.12556   0.00000  Uiso   1.00
O1188  O     0.54656   0.83083   0.10131   0.00000  Uiso   1.00
N1189  N     0.79550   0.95050   0.89718   0.00000  Uiso   1.00
O1190  O     0.78081   0.92627   0.87444   0.00000  Uiso   1.00
O1191  O     0.83083   0.95345   0.89869   0.00000  Uiso   1.00
N1192  N     0.70450   0.54950   0.10282   0.00000  Uiso   1.00
O1193  O     0.66917   0.54655   0.10131   0.00000  Uiso   1.00
O1194  O     0.71919   0.57373   0.12555   0.00000  Uiso   1.00
N1195  N     0.54950   0.79550   0.89718   0.00000  Uiso   1.00
O1196  O     0.57373   0.78081   0.87444   0.00000  Uiso   1.00
O1197  O     0.54656   0.83083   0.89869   0.00000  Uiso   1.00
N1198  N     0.95050   0.70450   0.10282   0.00000  Uiso   1.00
O1199  O     0.95344   0.66917   0.10131   0.00000  Uiso   1.00
O1200  O     0.92627   0.71919   0.12556   0.00000  Uiso   1.00
loop_
_geom_bond_atom_site_label_1
_geom_bond_atom_site_label_2
_geom_bond_distance
_geom_bond_site_symmetry_2
_ccdc_geom_bond_type
Zn1    O56     1.951   .     S
Zn1    O41     1.949   .     S
Zn1    O103    1.937   .     S
Zn1    O700    1.937   1_545 S
Zn2    O55     1.951   .     S
Zn2    O42     1.949   .     S
Zn2    O99     1.937   .     S
Zn2    O704    1.937   1_545 S
Zn3    O43     1.949   .     S
Zn3    O94     1.937   .     S
Zn3    O58     1.951   .     S
Zn3    O401    1.937   1_455 S
Zn4    O102    1.937   .     S
Zn4    O44     1.949   .     S
Zn4    O57     1.951   .     S
Zn4    O393    1.937   1_455 S
Zn5    O60     1.951   .     S
Zn5    O96     1.937   .     S
Zn5    O41     1.949   .     S
Zn5    O707    1.937   1_545 S
Zn6    O42     1.949   .     S
Zn6    O59     1.951   .     S
Zn6    O108    1.937   .     S
Zn6    O695    1.937   1_545 S
Zn7    O105    1.937   .     S
Zn7    O54     1.951   .     S
Zn7    O43     1.949   .     S
Zn7    O398    1.937   1_455 S
Zn8    O406    1.937   1_455 S
Zn8    O44     1.949   .     S
Zn8    O53     1.951   .     S
Zn8    O97     1.937   .     S
Zn9    O48     1.951   .     S
Zn9    O87     1.937   .     S
Zn9    O84     1.937   .     S
Zn9    O344    1.949   .     S
Zn10   O47     1.951   .     S
Zn10   O83     1.937   .     S
Zn10   O88     1.937   .     S
Zn10   O43     1.949   .     S
Zn11   O85     1.937   .     S
Zn11   O50     1.951   .     S
Zn11   O78     1.937   .     S
Zn11   O642    1.949   .     S
Zn12   O49     1.951   .     S
Zn12   O86     1.937   .     S
Zn12   O77     1.937   .     S
Zn12   O41     1.949   .     S
Zn13   O91     1.937   .     S
Zn13   O44     1.949   .     S
Zn13   O80     1.937   .     S
Zn13   O52     1.951   .     S
Zn14   O79     1.937   .     S
Zn14   O51     1.951   .     S
Zn14   O92     1.937   .     S
Zn14   O343    1.949   .     S
Zn15   O42     1.949   .     S
Zn15   O82     1.937   .     S
Zn15   O89     1.937   .     S
Zn15   O46     1.951   .     S
Zn16   O45     1.951   .     S
Zn16   O81     1.937   .     S
Zn16   O90     1.937   .     S
Zn16   O641    1.949   .     S
C17    C333    1.409   .     A
C17    N253    1.437   .     S
C17    C217    1.405   .     A
C18    N256    1.437   .     S
C18    C218    1.405   .     A
C18    C34     1.408   .     S
C19    N259    1.437   .     S
C19    C635    1.408   .     A
C19    C219    1.405   .     A
C20    N262    1.437   .     S
C20    C220    1.405   .     A
C20    C36     1.408   .     S
C21    C213    1.405   .     A
C21    N265    1.437   .     S
C21    C33     1.408   .     S
C22    C334    1.408   .     A
C22    C214    1.405   .     A
C22    N268    1.437   .     S
C23    C215    1.405   .     A
C23    N271    1.437   .     S
C23    C35     1.408   .     S
C24    N274    1.437   .     S
C24    C636    1.408   .     A
C24    C216    1.405   .     A
C25    C225    1.405   .     A
C25    N277    1.437   .     S
C25    C37     1.408   .     S
C26    N280    1.437   .     S
C26    C638    1.408   .     A
C26    C226    1.405   .     A
C27    C227    1.405   .     A
C27    N283    1.437   .     S
C27    C339    1.408   .     S
C28    C40     1.408   .     A
C28    C228    1.405   .     A
C28    N286    1.437   .     S
C29    C221    1.405   .     A
C29    N289    1.437   .     S
C29    C637    1.408   .     A
C30    C222    1.405   .     A
C30    N292    1.437   .     S
C30    C38     1.409   .     S
C31    N295    1.437   .     S
C31    C223    1.405   .     A
C31    C39     1.408   .     A
C32    C224    1.405   .     A
C32    N298    1.437   .     S
C32    C340    1.409   .     S
C33    C127    1.459   .     S
C33    C317    1.409   1_455 A
C34    C322    1.408   1_455 A
C34    C128    1.459   .     S
C35    C619    1.408   1_545 A
C35    C125    1.459   .     S
C36    C126    1.459   .     S
C36    C624    1.408   1_545 A
C37    C131    1.459   .     S
C37    C629    1.408   1_545 A
C38    C626    1.408   1_545 A
C38    C132    1.459   .     S
C39    C327    1.408   1_455 S
C39    C129    1.459   .     S
C40    C332    1.409   1_455 S
C40    C130    1.459   .     S
O41    Zn616   1.949   1_545 S
O42    Zn611   1.949   1_545 S
O43    Zn314   1.949   1_455 S
O44    Zn309   1.949   1_455 S
O45    C725    1.279   .     S
O46    C126    1.279   .     S
O47    C127    1.279   .     S
O48    C428    1.279   .     A
O49    C125    1.279   .     A
O50    C726    1.279   .     A
O51    C427    1.279   .     A
O52    C128    1.279   .     S
O53    C129    1.279   .     S
O54    C130    1.279   .     S
O55    C131    1.279   .     S
O56    C132    1.279   .     S
O57    C129    1.279   .     A
O58    C130    1.279   .     A
O59    C131    1.279   .     S
O60    C132    1.279   .     S
H61    C109    1.082   .     S
H62    C110    1.082   .     S
H63    C111    1.082   .     S
H64    C112    1.082   .     S
H65    C113    1.082   .     S
H66    C114    1.082   .     S
H67    C115    1.082   .     S
H68    C116    1.082   .     S
H69    C117    1.082   .     S
H70    C118    1.082   .     S
H71    C119    1.082   .     S
H72    C120    1.082   .     S
H73    C121    1.082   .     S
H74    C122    1.082   .     S
H75    C123    1.082   .     S
H76    C124    1.082   .     S
O77    C133    1.282   .     A
O78    C134    1.282   .     A
O79    C135    1.282   .     A
O80    C136    1.282   .     A
O81    C137    1.282   .     A
O82    C138    1.282   .     A
O83    C139    1.282   .     A
O84    C140    1.282   .     A
O85    C141    1.282   .     A
O86    C142    1.282   .     A
O87    C143    1.282   .     A
O88    C144    1.282   .     A
O89    C145    1.282   .     A
O90    C146    1.282   .     A
O91    C147    1.282   .     A
O92    C148    1.282   .     A
O93    C143    1.282   .     A
O93    Zn304   1.937   .     S
O94    C144    1.282   .     A
O95    C141    1.282   .     A
O95    Zn606   1.937   .     S
O96    C142    1.282   .     A
O97    C147    1.282   .     A
O98    C148    1.282   .     A
O98    Zn307   1.937   .     S
O99    C145    1.282   .     A
O100   C146    1.282   .     A
O100   Zn601   1.937   .     S
O101   C135    1.282   .     A
O101   Zn303   1.937   .     S
O102   C136    1.282   .     A
O103   C133    1.282   .     A
O104   C134    1.282   .     A
O104   Zn602   1.937   .     S
O105   C139    1.282   .     A
O106   C140    1.282   .     A
O106   Zn308   1.937   .     S
O107   C137    1.282   .     A
O107   Zn605   1.937   .     S
O108   C138    1.282   .     A
C109   C114    1.387   .     A
C109   C213    1.404   .     A
C110   C214    1.404   .     A
C110   C113    1.387   .     A
C111   C215    1.404   .     A
C111   C116    1.387   .     A
C112   C216    1.404   .     A
C112   C115    1.387   .     A
C113   C217    1.404   .     A
C114   C218    1.404   .     A
C115   C219    1.404   .     A
C116   C220    1.404   .     A
C117   C221    1.404   .     A
C117   C122    1.387   1_556 S
C118   C222    1.404   .     A
C118   C121    1.387   1_554 S
C119   C223    1.404   .     A
C119   C124    1.387   1_556 S
C120   C224    1.404   .     A
C120   C123    1.387   1_554 S
C121   C225    1.404   .     A
C121   C118    1.387   1_556 S
C122   C226    1.404   .     A
C122   C117    1.387   1_554 S
C123   C227    1.404   .     A
C123   C120    1.387   1_556 S
C124   C228    1.404   .     A
C124   C119    1.387   1_554 S
C125   O645    1.279   1_545 S
C126   O650    1.279   1_545 A
C127   O351    1.279   1_455 A
C128   O348    1.279   1_455 A
C133   C231    1.456   .     S
C134   C232    1.456   .     S
C135   C233    1.456   .     S
C136   C234    1.456   .     S
C137   C235    1.456   .     S
C138   C236    1.456   .     S
C139   C229    1.456   .     S
C140   C230    1.456   .     S
C141   C239    1.456   .     S
C142   C240    1.456   .     S
C143   C241    1.456   .     S
C144   C242    1.456   .     S
C145   C243    1.456   .     S
C146   C244    1.456   .     S
C147   C237    1.456   .     S
C148   C238    1.456   .     S
C149   C164    1.386   .     A
C149   H181    1.083   .     S
C149   C244    1.402   .     A
C150   C163    1.386   .     A
C150   C243    1.402   .     A
C150   H182    1.083   .     S
C151   H183    1.083   .     S
C151   C162    1.386   .     A
C151   C242    1.402   .     A
C152   C161    1.386   .     A
C152   C241    1.402   .     A
C152   H184    1.083   .     S
C153   C160    1.386   .     A
C153   C240    1.402   .     A
C153   H185    1.083   .     S
C154   H186    1.083   .     S
C154   C159    1.386   .     A
C154   C239    1.402   .     A
C155   C158    1.386   .     A
C155   H187    1.083   .     S
C155   C238    1.402   .     A
C156   C237    1.402   .     A
C156   H188    1.083   .     S
C156   C157    1.386   .     A
C157   C236    1.402   .     A
C157   H189    1.083   .     S
C158   H190    1.083   .     S
C158   C235    1.402   .     A
C159   C234    1.402   .     A
C159   H191    1.083   .     S
C160   H192    1.083   .     S
C160   C233    1.402   .     A
C161   H193    1.083   .     S
C161   C232    1.402   .     A
C162   C231    1.402   .     A
C162   H194    1.083   .     S
C163   C230    1.402   .     A
C163   H195    1.083   .     S
C164   H196    1.083   .     S
C164   C229    1.402   .     A
C165   H197    1.083   .     S
C165   C230    1.402   .     A
C165   C180    1.386   .     A
C166   H198    1.083   .     S
C166   C229    1.402   .     A
C166   C179    1.386   .     A
C167   C178    1.386   .     A
C167   H199    1.083   .     S
C167   C232    1.402   .     A
C168   H200    1.083   .     S
C168   C177    1.386   .     A
C168   C231    1.402   .     A
C169   C176    1.386   .     A
C169   H201    1.083   .     S
C169   C234    1.402   .     A
C170   H202    1.083   .     S
C170   C233    1.402   .     A
C170   C175    1.386   .     A
C171   C174    1.386   .     A
C171   H203    1.083   .     S
C171   C236    1.402   .     A
C172   H204    1.083   .     S
C172   C235    1.402   .     A
C172   C173    1.386   .     A
C173   H205    1.083   .     S
C173   C238    1.402   .     A
C174   H206    1.083   .     S
C174   C237    1.402   .     A
C175   H207    1.083   .     S
C175   C240    1.402   .     A
C176   H208    1.083   .     S
C176   C239    1.402   .     A
C177   H209    1.083   .     S
C177   C242    1.402   .     A
C178   H210    1.083   .     S
C178   C241    1.402   .     A
C179   H211    1.083   .     S
C179   C244    1.402   .     A
C180   C243    1.402   .     A
C180   H212    1.083   .     S
C213   C245    1.415   .     S
C214   C546    1.415   .     A
C215   C247    1.415   .     S
C216   C848    1.415   .     A
C217   C545    1.415   .     A
C218   C246    1.415   .     S
C219   C847    1.415   .     A
C220   C248    1.415   .     S
C221   C849    1.415   .     A
C222   C250    1.415   .     S
C223   C251    1.415   .     A
C224   C552    1.415   .     S
C225   C249    1.415   .     S
C226   C850    1.415   .     A
C227   C551    1.415   .     S
C228   C252    1.415   .     A
C245   C517    1.415   1_455 A
C245   C246    1.414   .     A
C246   C514    1.415   1_455 A
C247   C819    1.415   1_545 A
C247   C248    1.414   .     A
C248   C816    1.415   1_545 A
C249   C821    1.415   1_545 A
C249   C250    1.414   1_556 S
C250   C826    1.415   1_545 A
C250   C249    1.414   1_554 S
C251   C527    1.415   1_455 S
C251   C252    1.414   1_556 S
C252   C524    1.415   1_455 S
C252   C251    1.414   1_554 S
N253   O254    1.301   .     A
N253   O255    1.301   .     A
N256   O258    1.301   .     A
N256   O257    1.301   .     A
N259   O261    1.301   .     A
N259   O260    1.301   .     A
N262   O263    1.301   .     A
N262   O264    1.301   .     A
N265   O267    1.301   .     A
N265   O266    1.301   .     A
N268   O270    1.301   .     A
N268   O269    1.301   .     A
N271   O272    1.301   .     A
N271   O273    1.301   .     A
N274   O275    1.301   .     A
N274   O276    1.301   .     A
N277   O278    1.301   .     A
N277   O279    1.301   .     A
N280   O281    1.301   .     A
N280   O282    1.301   .     A
N283   O284    1.301   .     A
N283   O285    1.301   .     A
N286   O288    1.301   .     A
N286   O287    1.301   .     A
N289   O290    1.301   .     A
N289   O291    1.301   .     A
N292   O294    1.301   .     A
N292   O293    1.301   .     A
N295   O297    1.301   .     A
N295   O296    1.301   .     A
N298   O299    1.301   .     A
N298   O300    1.301   .     A
Zn301  O356    1.951   .     S
Zn301  O341    1.949   .     S
Zn301  O403    1.937   .     S
Zn301  O1000   1.937   1_545 S
Zn302  O355    1.951   .     S
Zn302  O342    1.949   .     S
Zn302  O399    1.937   .     S
Zn302  O1004   1.937   1_545 S
Zn303  O343    1.949   .     S
Zn303  O394    1.937   .     S
Zn303  O358    1.951   .     S
Zn304  O402    1.937   .     S
Zn304  O344    1.949   .     S
Zn304  O357    1.951   .     S
Zn305  O360    1.951   .     S
Zn305  O396    1.937   .     S
Zn305  O341    1.949   .     S
Zn305  O1007   1.937   1_545 S
Zn306  O342    1.949   .     S
Zn306  O359    1.951   .     S
Zn306  O408    1.937   .     S
Zn306  O995    1.937   1_545 S
Zn307  O405    1.937   .     S
Zn307  O354    1.951   .     S
Zn307  O343    1.949   .     S
Zn308  O344    1.949   .     S
Zn308  O353    1.951   .     S
Zn308  O397    1.937   .     S
Zn309  O348    1.951   .     S
Zn309  O387    1.937   .     S
Zn309  O384    1.937   .     S
Zn309  O44     1.949   1_655 S
Zn310  O347    1.951   .     S
Zn310  O383    1.937   .     S
Zn310  O388    1.937   .     S
Zn310  O343    1.949   .     S
Zn311  O385    1.937   .     S
Zn311  O350    1.951   .     S
Zn311  O378    1.937   .     S
Zn311  O942    1.949   .     S
Zn312  O349    1.951   .     S
Zn312  O386    1.937   .     S
Zn312  O377    1.937   .     S
Zn312  O341    1.949   .     S
Zn313  O391    1.937   .     S
Zn313  O344    1.949   .     S
Zn313  O380    1.937   .     S
Zn313  O352    1.951   .     S
Zn314  O379    1.937   .     S
Zn314  O351    1.951   .     S
Zn314  O392    1.937   .     S
Zn314  O43     1.949   1_655 S
Zn315  O342    1.949   .     S
Zn315  O382    1.937   .     S
Zn315  O389    1.937   .     S
Zn315  O346    1.951   .     S
Zn316  O345    1.951   .     S
Zn316  O381    1.937   .     S
Zn316  O390    1.937   .     S
Zn316  O941    1.949   .     S
C317   C33     1.409   1_655 A
C317   N553    1.437   .     S
C317   C517    1.405   .     A
C318   N556    1.437   .     S
C318   C518    1.405   .     A
C318   C334    1.408   .     S
C319   N559    1.437   .     S
C319   C935    1.408   .     A
C319   C519    1.405   .     A
C320   N562    1.437   .     S
C320   C520    1.405   .     A
C320   C336    1.408   .     S
C321   C513    1.405   .     A
C321   N565    1.437   .     S
C321   C333    1.408   .     S
C322   C34     1.408   1_655 A
C322   C514    1.405   .     A
C322   N568    1.437   .     S
C323   C515    1.405   .     A
C323   N571    1.437   .     S
C323   C335    1.408   .     S
C324   N574    1.437   .     S
C324   C936    1.408   .     A
C324   C516    1.405   .     A
C325   C525    1.405   .     A
C325   N577    1.437   .     S
C325   C337    1.408   .     S
C326   N580    1.437   .     S
C326   C938    1.408   .     A
C326   C526    1.405   .     A
C327   C527    1.405   .     A
C327   N583    1.437   .     S
C327   C39     1.408   1_655 S
C328   C340    1.408   .     A
C328   C528    1.405   .     A
C328   N586    1.437   .     S
C329   C521    1.405   .     A
C329   N589    1.437   .     S
C329   C937    1.408   .     A
C330   C522    1.405   .     A
C330   N592    1.437   .     S
C330   C338    1.409   .     S
C331   N595    1.437   .     S
C331   C523    1.405   .     A
C331   C339    1.408   .     A
C332   C524    1.405   .     A
C332   N598    1.437   .     S
C332   C40     1.409   1_655 S
C333   C427    1.459   .     S
C334   C428    1.459   .     S
C335   C919    1.408   1_545 A
C335   C425    1.459   .     S
C336   C426    1.459   .     S
C336   C924    1.408   1_545 A
C337   C431    1.459   .     S
C337   C929    1.408   1_545 A
C338   C926    1.408   1_545 A
C338   C432    1.459   .     S
C339   C429    1.459   .     S
C340   C430    1.459   .     S
O341   Zn916   1.949   1_545 S
O342   Zn911   1.949   1_545 S
O345   C1025   1.279   .     S
O346   C426    1.279   .     S
O347   C427    1.279   .     S
O348   C128    1.279   1_655 A
O349   C425    1.279   .     A
O350   C1026   1.279   .     A
O351   C127    1.279   1_655 A
O352   C428    1.279   .     S
O353   C429    1.279   .     S
O354   C430    1.279   .     S
O355   C431    1.279   .     S
O356   C432    1.279   .     S
O357   C429    1.279   .     A
O358   C430    1.279   .     A
O359   C431    1.279   .     S
O360   C432    1.279   .     S
H361   C409    1.082   .     S
H362   C410    1.082   .     S
H363   C411    1.082   .     S
H364   C412    1.082   .     S
H365   C413    1.082   .     S
H366   C414    1.082   .     S
H367   C415    1.082   .     S
H368   C416    1.082   .     S
H369   C417    1.082   .     S
H370   C418    1.082   .     S
H371   C419    1.082   .     S
H372   C420    1.082   .     S
H373   C421    1.082   .     S
H374   C422    1.082   .     S
H375   C423    1.082   .     S
H376   C424    1.082   .     S
O377   C433    1.282   .     A
O378   C434    1.282   .     A
O379   C435    1.282   .     A
O380   C436    1.282   .     A
O381   C437    1.282   .     A
O382   C438    1.282   .     A
O383   C439    1.282   .     A
O384   C440    1.282   .     A
O385   C441    1.282   .     A
O386   C442    1.282   .     A
O387   C443    1.282   .     A
O388   C444    1.282   .     A
O389   C445    1.282   .     A
O390   C446    1.282   .     A
O391   C447    1.282   .     A
O392   C448    1.282   .     A
O393   C443    1.282   .     A
O393   Zn4     1.937   1_655 S
O394   C444    1.282   .     A
O395   C441    1.282   .     A
O395   Zn906   1.937   .     S
O396   C442    1.282   .     A
O397   C447    1.282   .     A
O398   C448    1.282   .     A
O398   Zn7     1.937   1_655 S
O399   C445    1.282   .     A
O400   C446    1.282   .     A
O400   Zn901   1.937   .     S
O401   C435    1.282   .     A
O401   Zn3     1.937   1_655 S
O402   C436    1.282   .     A
O403   C433    1.282   .     A
O404   C434    1.282   .     A
O404   Zn902   1.937   .     S
O405   C439    1.282   .     A
O406   C440    1.282   .     A
O406   Zn8     1.937   1_655 S
O407   C437    1.282   .     A
O407   Zn905   1.937   .     S
O408   C438    1.282   .     A
C409   C414    1.387   .     A
C409   C513    1.404   .     A
C410   C514    1.404   .     A
C410   C413    1.387   .     A
C411   C515    1.404   .     A
C411   C416    1.387   .     A
C412   C516    1.404   .     A
C412   C415    1.387   .     A
C413   C517    1.404   .     A
C414   C518    1.404   .     A
C415   C519    1.404   .     A
C416   C520    1.404   .     A
C417   C521    1.404   .     A
C417   C422    1.387   1_556 S
C418   C522    1.404   .     A
C418   C421    1.387   1_554 S
C419   C523    1.404   .     A
C419   C424    1.387   1_556 S
C420   C524    1.404   .     A
C420   C423    1.387   1_554 S
C421   C525    1.404   .     A
C421   C418    1.387   1_556 S
C422   C526    1.404   .     A
C422   C417    1.387   1_554 S
C423   C527    1.404   .     A
C423   C420    1.387   1_556 S
C424   C528    1.404   .     A
C424   C419    1.387   1_554 S
C425   O945    1.279   1_545 S
C426   O950    1.279   1_545 A
C433   C531    1.456   .     S
C434   C532    1.456   .     S
C435   C533    1.456   .     S
C436   C534    1.456   .     S
C437   C535    1.456   .     S
C438   C536    1.456   .     S
C439   C529    1.456   .     S
C440   C530    1.456   .     S
C441   C539    1.456   .     S
C442   C540    1.456   .     S
C443   C541    1.456   .     S
C444   C542    1.456   .     S
C445   C543    1.456   .     S
C446   C544    1.456   .     S
C447   C537    1.456   .     S
C448   C538    1.456   .     S
C449   C464    1.386   .     A
C449   H481    1.083   .     S
C449   C544    1.402   .     A
C450   C463    1.386   .     A
C450   C543    1.402   .     A
C450   H482    1.083   .     S
C451   H483    1.083   .     S
C451   C462    1.386   .     A
C451   C542    1.402   .     A
C452   C461    1.386   .     A
C452   C541    1.402   .     A
C452   H484    1.083   .     S
C453   C460    1.386   .     A
C453   C540    1.402   .     A
C453   H485    1.083   .     S
C454   H486    1.083   .     S
C454   C459    1.386   .     A
C454   C539    1.402   .     A
C455   C458    1.386   .     A
C455   H487    1.083   .     S
C455   C538    1.402   .     A
C456   C537    1.402   .     A
C456   H488    1.083   .     S
C456   C457    1.386   .     A
C457   C536    1.402   .     A
C457   H489    1.083   .     S
C458   H490    1.083   .     S
C458   C535    1.402   .     A
C459   C534    1.402   .     A
C459   H491    1.083   .     S
C460   H492    1.083   .     S
C460   C533    1.402   .     A
C461   H493    1.083   .     S
C461   C532    1.402   .     A
C462   C531    1.402   .     A
C462   H494    1.083   .     S
C463   C530    1.402   .     A
C463   H495    1.083   .     S
C464   H496    1.083   .     S
C464   C529    1.402   .     A
C465   H497    1.083   .     S
C465   C530    1.402   .     A
C465   C480    1.386   .     A
C466   H498    1.083   .     S
C466   C529    1.402   .     A
C466   C479    1.386   .     A
C467   C478    1.386   .     A
C467   H499    1.083   .     S
C467   C532    1.402   .     A
C468   H500    1.083   .     S
C468   C477    1.386   .     A
C468   C531    1.402   .     A
C469   C476    1.386   .     A
C469   H501    1.083   .     S
C469   C534    1.402   .     A
C470   H502    1.083   .     S
C470   C533    1.402   .     A
C470   C475    1.386   .     A
C471   C474    1.386   .     A
C471   H503    1.083   .     S
C471   C536    1.402   .     A
C472   H504    1.083   .     S
C472   C535    1.402   .     A
C472   C473    1.386   .     A
C473   H505    1.083   .     S
C473   C538    1.402   .     A
C474   H506    1.083   .     S
C474   C537    1.402   .     A
C475   H507    1.083   .     S
C475   C540    1.402   .     A
C476   H508    1.083   .     S
C476   C539    1.402   .     A
C477   H509    1.083   .     S
C477   C542    1.402   .     A
C478   H510    1.083   .     S
C478   C541    1.402   .     A
C479   H511    1.083   .     S
C479   C544    1.402   .     A
C480   C543    1.402   .     A
C480   H512    1.083   .     S
C513   C545    1.415   .     S
C514   C246    1.415   1_655 A
C515   C547    1.415   .     S
C516   C1148   1.415   .     A
C517   C245    1.415   1_655 A
C518   C546    1.415   .     S
C519   C1147   1.415   .     A
C520   C548    1.415   .     S
C521   C1149   1.415   .     A
C522   C550    1.415   .     S
C523   C551    1.415   .     A
C524   C252    1.415   1_655 S
C525   C549    1.415   .     S
C526   C1150   1.415   .     A
C527   C251    1.415   1_655 S
C528   C552    1.415   .     A
C545   C546    1.414   .     A
C547   C1119   1.415   1_545 A
C547   C548    1.414   .     A
C548   C1116   1.415   1_545 A
C549   C1121   1.415   1_545 A
C549   C550    1.414   1_556 S
C550   C1126   1.415   1_545 A
C550   C549    1.414   1_554 S
C551   C552    1.414   1_556 S
C552   C551    1.414   1_554 S
N553   O554    1.301   .     A
N553   O555    1.301   .     A
N556   O558    1.301   .     A
N556   O557    1.301   .     A
N559   O561    1.301   .     A
N559   O560    1.301   .     A
N562   O563    1.301   .     A
N562   O564    1.301   .     A
N565   O567    1.301   .     A
N565   O566    1.301   .     A
N568   O570    1.301   .     A
N568   O569    1.301   .     A
N571   O572    1.301   .     A
N571   O573    1.301   .     A
N574   O575    1.301   .     A
N574   O576    1.301   .     A
N577   O578    1.301   .     A
N577   O579    1.301   .     A
N580   O581    1.301   .     A
N580   O582    1.301   .     A
N583   O584    1.301   .     A
N583   O585    1.301   .     A
N586   O588    1.301   .     A
N586   O587    1.301   .     A
N589   O590    1.301   .     A
N589   O591    1.301   .     A
N592   O594    1.301   .     A
N592   O593    1.301   .     A
N595   O597    1.301   .     A
N595   O596    1.301   .     A
N598   O599    1.301   .     A
N598   O600    1.301   .     A
Zn601  O656    1.951   .     S
Zn601  O641    1.949   .     S
Zn601  O703    1.937   .     S
Zn602  O655    1.951   .     S
Zn602  O642    1.949   .     S
Zn602  O699    1.937   .     S
Zn603  O643    1.949   .     S
Zn603  O694    1.937   .     S
Zn603  O658    1.951   .     S
Zn603  O1001   1.937   1_455 S
Zn604  O702    1.937   .     S
Zn604  O644    1.949   .     S
Zn604  O657    1.951   .     S
Zn604  O993    1.937   1_455 S
Zn605  O660    1.951   .     S
Zn605  O696    1.937   .     S
Zn605  O641    1.949   .     S
Zn606  O642    1.949   .     S
Zn606  O659    1.951   .     S
Zn606  O708    1.937   .     S
Zn607  O705    1.937   .     S
Zn607  O654    1.951   .     S
Zn607  O643    1.949   .     S
Zn607  O998    1.937   1_455 S
Zn608  O1006   1.937   1_455 S
Zn608  O644    1.949   .     S
Zn608  O653    1.951   .     S
Zn608  O697    1.937   .     S
Zn609  O648    1.951   .     S
Zn609  O687    1.937   .     S
Zn609  O684    1.937   .     S
Zn609  O944    1.949   .     S
Zn610  O647    1.951   .     S
Zn610  O683    1.937   .     S
Zn610  O688    1.937   .     S
Zn610  O643    1.949   .     S
Zn611  O685    1.937   .     S
Zn611  O650    1.951   .     S
Zn611  O678    1.937   .     S
Zn611  O42     1.949   1_565 S
Zn612  O649    1.951   .     S
Zn612  O686    1.937   .     S
Zn612  O677    1.937   .     S
Zn612  O641    1.949   .     S
Zn613  O691    1.937   .     S
Zn613  O644    1.949   .     S
Zn613  O680    1.937   .     S
Zn613  O652    1.951   .     S
Zn614  O679    1.937   .     S
Zn614  O651    1.951   .     S
Zn614  O692    1.937   .     S
Zn614  O943    1.949   .     S
Zn615  O642    1.949   .     S
Zn615  O682    1.937   .     S
Zn615  O689    1.937   .     S
Zn615  O646    1.951   .     S
Zn616  O645    1.951   .     S
Zn616  O681    1.937   .     S
Zn616  O690    1.937   .     S
Zn616  O41     1.949   1_565 S
C617   C933    1.409   .     A
C617   N853    1.437   .     S
C617   C817    1.405   .     A
C618   N856    1.437   .     S
C618   C818    1.405   .     A
C618   C634    1.408   .     S
C619   N859    1.437   .     S
C619   C35     1.408   1_565 A
C619   C819    1.405   .     A
C620   N862    1.437   .     S
C620   C820    1.405   .     A
C620   C636    1.408   .     S
C621   C813    1.405   .     A
C621   N865    1.437   .     S
C621   C633    1.408   .     S
C622   C934    1.408   .     A
C622   C814    1.405   .     A
C622   N868    1.437   .     S
C623   C815    1.405   .     A
C623   N871    1.437   .     S
C623   C635    1.408   .     S
C624   N874    1.437   .     S
C624   C36     1.408   1_565 A
C624   C816    1.405   .     A
C625   C825    1.405   .     A
C625   N877    1.437   .     S
C625   C637    1.408   .     S
C626   N880    1.437   .     S
C626   C38     1.408   1_565 A
C626   C826    1.405   .     A
C627   C827    1.405   .     A
C627   N883    1.437   .     S
C627   C939    1.408   .     S
C628   C640    1.408   .     A
C628   C828    1.405   .     A
C628   N886    1.437   .     S
C629   C821    1.405   .     A
C629   N889    1.437   .     S
C629   C37     1.408   1_565 A
C630   C822    1.405   .     A
C630   N892    1.437   .     S
C630   C638    1.409   .     S
C631   N895    1.437   .     S
C631   C823    1.405   .     A
C631   C639    1.408   .     A
C632   C824    1.405   .     A
C632   N898    1.437   .     S
C632   C940    1.409   .     S
C633   C727    1.459   .     S
C633   C917    1.409   1_455 A
C634   C922    1.408   1_455 A
C634   C728    1.459   .     S
C635   C725    1.459   .     S
C636   C726    1.459   .     S
C637   C731    1.459   .     S
C638   C732    1.459   .     S
C639   C927    1.408   1_455 S
C639   C729    1.459   .     S
C640   C932    1.409   1_455 S
C640   C730    1.459   .     S
O643   Zn914   1.949   1_455 S
O644   Zn909   1.949   1_455 S
O645   C125    1.279   1_565 S
O646   C726    1.279   .     S
O647   C727    1.279   .     S
O648   C1028   1.279   .     A
O649   C725    1.279   .     A
O650   C126    1.279   1_565 A
O651   C1027   1.279   .     A
O652   C728    1.279   .     S
O653   C729    1.279   .     S
O654   C730    1.279   .     S
O655   C731    1.279   .     S
O656   C732    1.279   .     S
O657   C729    1.279   .     A
O658   C730    1.279   .     A
O659   C731    1.279   .     S
O660   C732    1.279   .     S
H661   C709    1.082   .     S
H662   C710    1.082   .     S
H663   C711    1.082   .     S
H664   C712    1.082   .     S
H665   C713    1.082   .     S
H666   C714    1.082   .     S
H667   C715    1.082   .     S
H668   C716    1.082   .     S
H669   C717    1.082   .     S
H670   C718    1.082   .     S
H671   C719    1.082   .     S
H672   C720    1.082   .     S
H673   C721    1.082   .     S
H674   C722    1.082   .     S
H675   C723    1.082   .     S
H676   C724    1.082   .     S
O677   C733    1.282   .     A
O678   C734    1.282   .     A
O679   C735    1.282   .     A
O680   C736    1.282   .     A
O681   C737    1.282   .     A
O682   C738    1.282   .     A
O683   C739    1.282   .     A
O684   C740    1.282   .     A
O685   C741    1.282   .     A
O686   C742    1.282   .     A
O687   C743    1.282   .     A
O688   C744    1.282   .     A
O689   C745    1.282   .     A
O690   C746    1.282   .     A
O691   C747    1.282   .     A
O692   C748    1.282   .     A
O693   C743    1.282   .     A
O693   Zn904   1.937   .     S
O694   C744    1.282   .     A
O695   C741    1.282   .     A
O695   Zn6     1.937   1_565 S
O696   C742    1.282   .     A
O697   C747    1.282   .     A
O698   C748    1.282   .     A
O698   Zn907   1.937   .     S
O699   C745    1.282   .     A
O700   C746    1.282   .     A
O700   Zn1     1.937   1_565 S
O701   C735    1.282   .     A
O701   Zn903   1.937   .     S
O702   C736    1.282   .     A
O703   C733    1.282   .     A
O704   C734    1.282   .     A
O704   Zn2     1.937   1_565 S
O705   C739    1.282   .     A
O706   C740    1.282   .     A
O706   Zn908   1.937   .     S
O707   C737    1.282   .     A
O707   Zn5     1.937   1_565 S
O708   C738    1.282   .     A
C709   C714    1.387   .     A
C709   C813    1.404   .     A
C710   C814    1.404   .     A
C710   C713    1.387   .     A
C711   C815    1.404   .     A
C711   C716    1.387   .     A
C712   C816    1.404   .     A
C712   C715    1.387   .     A
C713   C817    1.404   .     A
C714   C818    1.404   .     A
C715   C819    1.404   .     A
C716   C820    1.404   .     A
C717   C821    1.404   .     A
C717   C722    1.387   1_556 S
C718   C822    1.404   .     A
C718   C721    1.387   1_554 S
C719   C823    1.404   .     A
C719   C724    1.387   1_556 S
C720   C824    1.404   .     A
C720   C723    1.387   1_554 S
C721   C825    1.404   .     A
C721   C718    1.387   1_556 S
C722   C826    1.404   .     A
C722   C717    1.387   1_554 S
C723   C827    1.404   .     A
C723   C720    1.387   1_556 S
C724   C828    1.404   .     A
C724   C719    1.387   1_554 S
C727   O951    1.279   1_455 A
C728   O948    1.279   1_455 A
C733   C831    1.456   .     S
C734   C832    1.456   .     S
C735   C833    1.456   .     S
C736   C834    1.456   .     S
C737   C835    1.456   .     S
C738   C836    1.456   .     S
C739   C829    1.456   .     S
C740   C830    1.456   .     S
C741   C839    1.456   .     S
C742   C840    1.456   .     S
C743   C841    1.456   .     S
C744   C842    1.456   .     S
C745   C843    1.456   .     S
C746   C844    1.456   .     S
C747   C837    1.456   .     S
C748   C838    1.456   .     S
C749   C764    1.386   .     A
C749   H781    1.083   .     S
C749   C844    1.402   .     A
C750   C763    1.386   .     A
C750   C843    1.402   .     A
C750   H782    1.083   .     S
C751   H783    1.083   .     S
C751   C762    1.386   .     A
C751   C842    1.402   .     A
C752   C761    1.386   .     A
C752   C841    1.402   .     A
C752   H784    1.083   .     S
C753   C760    1.386   .     A
C753   C840    1.402   .     A
C753   H785    1.083   .     S
C754   H786    1.083   .     S
C754   C759    1.386   .     A
C754   C839    1.402   .     A
C755   C758    1.386   .     A
C755   H787    1.083   .     S
C755   C838    1.402   .     A
C756   C837    1.402   .     A
C756   H788    1.083   .     S
C756   C757    1.386   .     A
C757   C836    1.402   .     A
C757   H789    1.083   .     S
C758   H790    1.083   .     S
C758   C835    1.402   .     A
C759   C834    1.402   .     A
C759   H791    1.083   .     S
C760   H792    1.083   .     S
C760   C833    1.402   .     A
C761   H793    1.083   .     S
C761   C832    1.402   .     A
C762   C831    1.402   .     A
C762   H794    1.083   .     S
C763   C830    1.402   .     A
C763   H795    1.083   .     S
C764   H796    1.083   .     S
C764   C829    1.402   .     A
C765   H797    1.083   .     S
C765   C830    1.402   .     A
C765   C780    1.386   .     A
C766   H798    1.083   .     S
C766   C829    1.402   .     A
C766   C779    1.386   .     A
C767   C778    1.386   .     A
C767   H799    1.083   .     S
C767   C832    1.402   .     A
C768   H800    1.083   .     S
C768   C777    1.386   .     A
C768   C831    1.402   .     A
C769   C776    1.386   .     A
C769   H801    1.083   .     S
C769   C834    1.402   .     A
C770   H802    1.083   .     S
C770   C833    1.402   .     A
C770   C775    1.386   .     A
C771   C774    1.386   .     A
C771   H803    1.083   .     S
C771   C836    1.402   .     A
C772   H804    1.083   .     S
C772   C835    1.402   .     A
C772   C773    1.386   .     A
C773   H805    1.083   .     S
C773   C838    1.402   .     A
C774   H806    1.083   .     S
C774   C837    1.402   .     A
C775   H807    1.083   .     S
C775   C840    1.402   .     A
C776   H808    1.083   .     S
C776   C839    1.402   .     A
C777   H809    1.083   .     S
C777   C842    1.402   .     A
C778   H810    1.083   .     S
C778   C841    1.402   .     A
C779   H811    1.083   .     S
C779   C844    1.402   .     A
C780   C843    1.402   .     A
C780   H812    1.083   .     S
C813   C845    1.415   .     S
C814   C1146   1.415   .     A
C815   C847    1.415   .     S
C816   C248    1.415   1_565 A
C817   C1145   1.415   .     A
C818   C846    1.415   .     S
C819   C247    1.415   1_565 A
C820   C848    1.415   .     S
C821   C249    1.415   1_565 A
C822   C850    1.415   .     S
C823   C851    1.415   .     A
C824   C1152   1.415   .     S
C825   C849    1.415   .     S
C826   C250    1.415   1_565 A
C827   C1151   1.415   .     S
C828   C852    1.415   .     A
C845   C1117   1.415   1_455 A
C845   C846    1.414   .     A
C846   C1114   1.415   1_455 A
C847   C848    1.414   .     A
C849   C850    1.414   1_556 S
C850   C849    1.414   1_554 S
C851   C1127   1.415   1_455 S
C851   C852    1.414   1_556 S
C852   C1124   1.415   1_455 S
C852   C851    1.414   1_554 S
N853   O854    1.301   .     A
N853   O855    1.301   .     A
N856   O858    1.301   .     A
N856   O857    1.301   .     A
N859   O861    1.301   .     A
N859   O860    1.301   .     A
N862   O863    1.301   .     A
N862   O864    1.301   .     A
N865   O867    1.301   .     A
N865   O866    1.301   .     A
N868   O870    1.301   .     A
N868   O869    1.301   .     A
N871   O872    1.301   .     A
N871   O873    1.301   .     A
N874   O875    1.301   .     A
N874   O876    1.301   .     A
N877   O878    1.301   .     A
N877   O879    1.301   .     A
N880   O881    1.301   .     A
N880   O882    1.301   .     A
N883   O884    1.301   .     A
N883   O885    1.301   .     A
N886   O888    1.301   .     A
N886   O887    1.301   .     A
N889   O890    1.301   .     A
N889   O891    1.301   .     A
N892   O894    1.301   .     A
N892   O893    1.301   .     A
N895   O897    1.301   .     A
N895   O896    1.301   .     A
N898   O899    1.301   .     A
N898   O900    1.301   .     A
Zn901  O956    1.951   .     S
Zn901  O941    1.949   .     S
Zn901  O1003   1.937   .     S
Zn902  O955    1.951   .     S
Zn902  O942    1.949   .     S
Zn902  O999    1.937   .     S
Zn903  O943    1.949   .     S
Zn903  O994    1.937   .     S
Zn903  O958    1.951   .     S
Zn904  O1002   1.937   .     S
Zn904  O944    1.949   .     S
Zn904  O957    1.951   .     S
Zn905  O960    1.951   .     S
Zn905  O996    1.937   .     S
Zn905  O941    1.949   .     S
Zn906  O942    1.949   .     S
Zn906  O959    1.951   .     S
Zn906  O1008   1.937   .     S
Zn907  O1005   1.937   .     S
Zn907  O954    1.951   .     S
Zn907  O943    1.949   .     S
Zn908  O944    1.949   .     S
Zn908  O953    1.951   .     S
Zn908  O997    1.937   .     S
Zn909  O948    1.951   .     S
Zn909  O987    1.937   .     S
Zn909  O984    1.937   .     S
Zn909  O644    1.949   1_655 S
Zn910  O947    1.951   .     S
Zn910  O983    1.937   .     S
Zn910  O988    1.937   .     S
Zn910  O943    1.949   .     S
Zn911  O985    1.937   .     S
Zn911  O950    1.951   .     S
Zn911  O978    1.937   .     S
Zn911  O342    1.949   1_565 S
Zn912  O949    1.951   .     S
Zn912  O986    1.937   .     S
Zn912  O977    1.937   .     S
Zn912  O941    1.949   .     S
Zn913  O991    1.937   .     S
Zn913  O944    1.949   .     S
Zn913  O980    1.937   .     S
Zn913  O952    1.951   .     S
Zn914  O979    1.937   .     S
Zn914  O951    1.951   .     S
Zn914  O992    1.937   .     S
Zn914  O643    1.949   1_655 S
Zn915  O942    1.949   .     S
Zn915  O982    1.937   .     S
Zn915  O989    1.937   .     S
Zn915  O946    1.951   .     S
Zn916  O945    1.951   .     S
Zn916  O981    1.937   .     S
Zn916  O990    1.937   .     S
Zn916  O341    1.949   1_565 S
C917   C633    1.409   1_655 A
C917   N1153   1.437   .     S
C917   C1117   1.405   .     A
C918   N1156   1.437   .     S
C918   C1118   1.405   .     A
C918   C934    1.408   .     S
C919   N1159   1.437   .     S
C919   C335    1.408   1_565 A
C919   C1119   1.405   .     A
C920   N1162   1.437   .     S
C920   C1120   1.405   .     A
C920   C936    1.408   .     S
C921   C1113   1.405   .     A
C921   N1165   1.437   .     S
C921   C933    1.408   .     S
C922   C634    1.408   1_655 A
C922   C1114   1.405   .     A
C922   N1168   1.437   .     S
C923   C1115   1.405   .     A
C923   N1171   1.437   .     S
C923   C935    1.408   .     S
C924   N1174   1.437   .     S
C924   C336    1.408   1_565 A
C924   C1116   1.405   .     A
C925   C1125   1.405   .     A
C925   N1177   1.437   .     S
C925   C937    1.408   .     S
C926   N1180   1.437   .     S
C926   C338    1.408   1_565 A
C926   C1126   1.405   .     A
C927   C1127   1.405   .     A
C927   N1183   1.437   .     S
C927   C639    1.408   1_655 S
C928   C940    1.408   .     A
C928   C1128   1.405   .     A
C928   N1186   1.437   .     S
C929   C1121   1.405   .     A
C929   N1189   1.437   .     S
C929   C337    1.408   1_565 A
C930   C1122   1.405   .     A
C930   N1192   1.437   .     S
C930   C938    1.409   .     S
C931   N1195   1.437   .     S
C931   C1123   1.405   .     A
C931   C939    1.408   .     A
C932   C1124   1.405   .     A
C932   N1198   1.437   .     S
C932   C640    1.409   1_655 S
C933   C1027   1.459   .     S
C934   C1028   1.459   .     S
C935   C1025   1.459   .     S
C936   C1026   1.459   .     S
C937   C1031   1.459   .     S
C938   C1032   1.459   .     S
C939   C1029   1.459   .     S
C940   C1030   1.459   .     S
O945   C425    1.279   1_565 S
O946   C1026   1.279   .     S
O947   C1027   1.279   .     S
O948   C728    1.279   1_655 A
O949   C1025   1.279   .     A
O950   C426    1.279   1_565 A
O951   C727    1.279   1_655 A
O952   C1028   1.279   .     S
O953   C1029   1.279   .     S
O954   C1030   1.279   .     S
O955   C1031   1.279   .     S
O956   C1032   1.279   .     S
O957   C1029   1.279   .     A
O958   C1030   1.279   .     A
O959   C1031   1.279   .     S
O960   C1032   1.279   .     S
H961   C1009   1.082   .     S
H962   C1010   1.082   .     S
H963   C1011   1.082   .     S
H964   C1012   1.082   .     S
H965   C1013   1.082   .     S
H966   C1014   1.082   .     S
H967   C1015   1.082   .     S
H968   C1016   1.082   .     S
H969   C1017   1.082   .     S
H970   C1018   1.082   .     S
H971   C1019   1.082   .     S
H972   C1020   1.082   .     S
H973   C1021   1.082   .     S
H974   C1022   1.082   .     S
H975   C1023   1.082   .     S
H976   C1024   1.082   .     S
O977   C1033   1.282   .     A
O978   C1034   1.282   .     A
O979   C1035   1.282   .     A
O980   C1036   1.282   .     A
O981   C1037   1.282   .     A
O982   C1038   1.282   .     A
O983   C1039   1.282   .     A
O984   C1040   1.282   .     A
O985   C1041   1.282   .     A
O986   C1042   1.282   .     A
O987   C1043   1.282   .     A
O988   C1044   1.282   .     A
O989   C1045   1.282   .     A
O990   C1046   1.282   .     A
O991   C1047   1.282   .     A
O992   C1048   1.282   .     A
O993   C1043   1.282   .     A
O993   Zn604   1.937   1_655 S
O994   C1044   1.282   .     A
O995   C1041   1.282   .     A
O995   Zn306   1.937   1_565 S
O996   C1042   1.282   .     A
O997   C1047   1.282   .     A
O998   C1048   1.282   .     A
O998   Zn607   1.937   1_655 S
O999   C1045   1.282   .     A
O1000  C1046   1.282   .     A
O1000  Zn301   1.937   1_565 S
O1001  C1035   1.282   .     A
O1001  Zn603   1.937   1_655 S
O1002  C1036   1.282   .     A
O1003  C1033   1.282   .     A
O1004  C1034   1.282   .     A
O1004  Zn302   1.937   1_565 S
O1005  C1039   1.282   .     A
O1006  C1040   1.282   .     A
O1006  Zn608   1.937   1_655 S
O1007  C1037   1.282   .     A
O1007  Zn305   1.937   1_565 S
O1008  C1038   1.282   .     A
C1009  C1014   1.387   .     A
C1009  C1113   1.404   .     A
C1010  C1114   1.404   .     A
C1010  C1013   1.387   .     A
C1011  C1115   1.404   .     A
C1011  C1016   1.387   .     A
C1012  C1116   1.404   .     A
C1012  C1015   1.387   .     A
C1013  C1117   1.404   .     A
C1014  C1118   1.404   .     A
C1015  C1119   1.404   .     A
C1016  C1120   1.404   .     A
C1017  C1121   1.404   .     A
C1017  C1022   1.387   1_556 S
C1018  C1122   1.404   .     A
C1018  C1021   1.387   1_554 S
C1019  C1123   1.404   .     A
C1019  C1024   1.387   1_556 S
C1020  C1124   1.404   .     A
C1020  C1023   1.387   1_554 S
C1021  C1125   1.404   .     A
C1021  C1018   1.387   1_556 S
C1022  C1126   1.404   .     A
C1022  C1017   1.387   1_554 S
C1023  C1127   1.404   .     A
C1023  C1020   1.387   1_556 S
C1024  C1128   1.404   .     A
C1024  C1019   1.387   1_554 S
C1033  C1131   1.456   .     S
C1034  C1132   1.456   .     S
C1035  C1133   1.456   .     S
C1036  C1134   1.456   .     S
C1037  C1135   1.456   .     S
C1038  C1136   1.456   .     S
C1039  C1129   1.456   .     S
C1040  C1130   1.456   .     S
C1041  C1139   1.456   .     S
C1042  C1140   1.456   .     S
C1043  C1141   1.456   .     S
C1044  C1142   1.456   .     S
C1045  C1143   1.456   .     S
C1046  C1144   1.456   .     S
C1047  C1137   1.456   .     S
C1048  C1138   1.456   .     S
C1049  C1064   1.386   .     A
C1049  H1081   1.083   .     S
C1049  C1144   1.402   .     A
C1050  C1063   1.386   .     A
C1050  C1143   1.402   .     A
C1050  H1082   1.083   .     S
C1051  H1083   1.083   .     S
C1051  C1062   1.386   .     A
C1051  C1142   1.402   .     A
C1052  C1061   1.386   .     A
C1052  C1141   1.402   .     A
C1052  H1084   1.083   .     S
C1053  C1060   1.386   .     A
C1053  C1140   1.402   .     A
C1053  H1085   1.083   .     S
C1054  H1086   1.083   .     S
C1054  C1059   1.386   .     A
C1054  C1139   1.402   .     A
C1055  C1058   1.386   .     A
C1055  H1087   1.083   .     S
C1055  C1138   1.402   .     A
C1056  C1137   1.402   .     A
C1056  H1088   1.083   .     S
C1056  C1057   1.386   .     A
C1057  C1136   1.402   .     A
C1057  H1089   1.083   .     S
C1058  H1090   1.083   .     S
C1058  C1135   1.402   .     A
C1059  C1134   1.402   .     A
C1059  H1091   1.083   .     S
C1060  H1092   1.083   .     S
C1060  C1133   1.402   .     A
C1061  H1093   1.083   .     S
C1061  C1132   1.402   .     A
C1062  C1131   1.402   .     A
C1062  H1094   1.083   .     S
C1063  C1130   1.402   .     A
C1063  H1095   1.083   .     S
C1064  H1096   1.083   .     S
C1064  C1129   1.402   .     A
C1065  H1097   1.083   .     S
C1065  C1130   1.402   .     A
C1065  C1080   1.386   .     A
C1066  H1098   1.083   .     S
C1066  C1129   1.402   .     A
C1066  C1079   1.386   .     A
C1067  C1078   1.386   .     A
C1067  H1099   1.083   .     S
C1067  C1132   1.402   .     A
C1068  H1100   1.083   .     S
C1068  C1077   1.386   .     A
C1068  C1131   1.402   .     A
C1069  C1076   1.386   .     A
C1069  H1101   1.083   .     S
C1069  C1134   1.402   .     A
C1070  H1102   1.083   .     S
C1070  C1133   1.402   .     A
C1070  C1075   1.386   .     A
C1071  C1074   1.386   .     A
C1071  H1103   1.083   .     S
C1071  C1136   1.402   .     A
C1072  H1104   1.083   .     S
C1072  C1135   1.402   .     A
C1072  C1073   1.386   .     A
C1073  H1105   1.083   .     S
C1073  C1138   1.402   .     A
C1074  H1106   1.083   .     S
C1074  C1137   1.402   .     A
C1075  H1107   1.083   .     S
C1075  C1140   1.402   .     A
C1076  H1108   1.083   .     S
C1076  C1139   1.402   .     A
C1077  H1109   1.083   .     S
C1077  C1142   1.402   .     A
C1078  H1110   1.083   .     S
C1078  C1141   1.402   .     A
C1079  H1111   1.083   .     S
C1079  C1144   1.402   .     A
C1080  C1143   1.402   .     A
C1080  H1112   1.083   .     S
C1113  C1145   1.415   .     S
C1114  C846    1.415   1_655 A
C1115  C1147   1.415   .     S
C1116  C548    1.415   1_565 A
C1117  C845    1.415   1_655 A
C1118  C1146   1.415   .     S
C1119  C547    1.415   1_565 A
C1120  C1148   1.415   .     S
C1121  C549    1.415   1_565 A
C1122  C1150   1.415   .     S
C1123  C1151   1.415   .     A
C1124  C852    1.415   1_655 S
C1125  C1149   1.415   .     S
C1126  C550    1.415   1_565 A
C1127  C851    1.415   1_655 S
C1128  C1152   1.415   .     A
C1145  C1146   1.414   .     A
C1147  C1148   1.414   .     A
C1149  C1150   1.414   1_556 S
C1150  C1149   1.414   1_554 S
C1151  C1152   1.414   1_556 S
C1152  C1151   1.414   1_554 S
N1153  O1154   1.301   .     A
N1153  O1155   1.301   .     A
N1156  O1158   1.301   .     A
N1156  O1157   1.301   .     A
N1159  O1161   1.301   .     A
N1159  O1160   1.301   .     A
N1162  O1163   1.301   .     A
N1162  O1164   1.301   .     A
N1165  O1167   1.301   .     A
N1165  O1166   1.301   .     A
N1168  O1170   1.301   .     A
N1168  O1169   1.301   .     A
N1171  O1172   1.301   .     A
N1171  O1173   1.301   .     A
N1174  O1175   1.301   .     A
N1174  O1176   1.301   .     A
N1177  O1178   1.301   .     A
N1177  O1179   1.301   .     A
N1180  O1181   1.301   .     A
N1180  O1182   1.301   .     A
N1183  O1184   1.301   .     A
N1183  O1185   1.301   .     A
N1186  O1188   1.301   .     A
N1186  O1187   1.301   .     A
N1189  O1190   1.301   .     A
N1189  O1191   1.301   .     A
N1192  O1194   1.301   .     A
N1192  O1193   1.301   .     A
N1195  O1197   1.301   .     A
N1195  O1196   1.301   .     A
N1198  O1199   1.301   .     A
N1198  O1200   1.301   .     A
