data_str_m1_o1_o5_pcu_sym.4
_audit_creation_date              2020-01-03
_audit_creation_method            'Materials Studio'
_symmetry_space_group_name_H-M    'P1'
_symmetry_Int_Tables_number       1
_symmetry_cell_setting            triclinic
loop_
_symmetry_equiv_pos_as_xyz
  x,y,z
_cell_length_a                    36.6262
_cell_length_b                    36.6339
_cell_length_c                    22.4369
_cell_angle_alpha                 90.0001
_cell_angle_beta                  89.7777
_cell_angle_gamma                 90.0000
loop_
_atom_site_label
_atom_site_type_symbol
_atom_site_fract_x
_atom_site_fract_y
_atom_site_fract_z
_atom_site_U_iso_or_equiv
_atom_site_adp_type
_atom_site_occupancy
C1     C     0.00006   0.25004   0.02666   0.00000  Uiso   1.00
C2     C     0.00001   0.25000   0.58990   0.00000  Uiso   1.00
C3     C     0.37726   0.32204   0.34637   0.00000  Uiso   1.00
C4     C     0.17696   0.38014   0.65181   0.00000  Uiso   1.00
C5     C     0.30616   0.13818   0.31121   0.00000  Uiso   1.00
C6     C     0.38587   0.32924   0.64526   0.00000  Uiso   1.00
C7     C     0.12863   0.18539   0.33390   0.00000  Uiso   1.00
C8     C     0.32304   0.38014   0.34819   0.00000  Uiso   1.00
C9     C     0.19384   0.13818   0.68879   0.00000  Uiso   1.00
C10    C     0.11412   0.32924   0.35474   0.00000  Uiso   1.00
C11    C     0.37136   0.18539   0.66611   0.00000  Uiso   1.00
C12    C     0.18675   0.13083   0.33080   0.00000  Uiso   1.00
C13    C     0.24995   0.49998   0.41010   0.00000  Uiso   1.00
C14    C     0.32794   0.38324   0.64707   0.00000  Uiso   1.00
C15    C     0.36204   0.19490   0.30805   0.00000  Uiso   1.00
C16    C     0.12273   0.32204   0.65363   0.00000  Uiso   1.00
C17    C     0.25005   0.49998   0.58990   0.00000  Uiso   1.00
C18    C     0.24999  -0.00000   0.91010   0.00000  Uiso   1.00
C19    C     0.25001  -0.00000   0.08990   0.00000  Uiso   1.00
C20    C     0.49995   0.25002   0.91010   0.00000  Uiso   1.00
C21    C     0.00005   0.25002   0.08990   0.00000  Uiso   1.00
C22    C     0.06993   0.17997   0.24968   0.00000  Uiso   1.00
C23    C     0.43017   0.32015   0.75062   0.00000  Uiso   1.00
C24    C     0.18017   0.42985   0.25062   0.00000  Uiso   1.00
C25    C     0.49994   0.25004   0.97334   0.00000  Uiso   1.00
C26    C     0.31993   0.07003   0.74968   0.00000  Uiso   1.00
C27    C     0.42983   0.31976   0.25071   0.00000  Uiso   1.00
C28    C     0.06973   0.17980   0.75031   0.00000  Uiso   1.00
C29    C     0.31973   0.07020   0.25031   0.00000  Uiso   1.00
C30    C     0.17983   0.43024   0.75071   0.00000  Uiso   1.00
C31    C     0.07017   0.31976   0.74929   0.00000  Uiso   1.00
C32    C     0.43027   0.17980   0.24969   0.00000  Uiso   1.00
C33    C     0.18027   0.07020   0.74969   0.00000  Uiso   1.00
C34    C     0.32017   0.43024   0.24929   0.00000  Uiso   1.00
C35    C     0.43007   0.17997   0.75033   0.00000  Uiso   1.00
C36    C     0.25000   0.49999   0.02666   0.00000  Uiso   1.00
C37    C     0.06983   0.32015   0.24938   0.00000  Uiso   1.00
C38    C     0.31983   0.42985   0.74938   0.00000  Uiso   1.00
C39    C     0.18007   0.07003   0.25033   0.00000  Uiso   1.00
C40    C     0.10314   0.37007   0.19866   0.00000  Uiso   1.00
C41    C     0.40450   0.12247   0.79069   0.00000  Uiso   1.00
C42    C     0.37324   0.39995   0.20176   0.00000  Uiso   1.00
C43    C     0.11855   0.09114   0.77892   0.00000  Uiso   1.00
C44    C     0.40898   0.11797   0.22173   0.00000  Uiso   1.00
C45    C     0.09939   0.37295   0.79754   0.00000  Uiso   1.00
C46    C     0.12256   0.09514   0.20997   0.00000  Uiso   1.00
C47    C     0.25000   0.49999   0.97334   0.00000  Uiso   1.00
C48    C     0.36997   0.39749   0.80092   0.00000  Uiso   1.00
C49    C     0.09102   0.11797   0.77827   0.00000  Uiso   1.00
C50    C     0.40061   0.37295   0.20246   0.00000  Uiso   1.00
C51    C     0.37744   0.09514   0.79003   0.00000  Uiso   1.00
C52    C     0.13003   0.39749   0.19908   0.00000  Uiso   1.00
C53    C     0.39686   0.37007   0.80134   0.00000  Uiso   1.00
C54    C     0.09550   0.12247   0.20931   0.00000  Uiso   1.00
C55    C     0.12676   0.39995   0.79824   0.00000  Uiso   1.00
C56    C     0.38145   0.09114   0.22108   0.00000  Uiso   1.00
C57    C     0.34550   0.12753   0.70931   0.00000  Uiso   1.00
C58    C     0.25006   0.49996   0.52666   0.00000  Uiso   1.00
C59    C     0.14686   0.37993   0.30134   0.00000  Uiso   1.00
C60    C     0.13145   0.15887   0.72108   0.00000  Uiso   1.00
C61    C     0.37676   0.35005   0.29824   0.00000  Uiso   1.00
C62    C     0.15061   0.37705   0.70246   0.00000  Uiso   1.00
C63    C     0.34102   0.13203   0.27827   0.00000  Uiso   1.00
C64    C     0.38003   0.35251   0.69908   0.00000  Uiso   1.00
C65    C     0.12744   0.15486   0.29003   0.00000  Uiso   1.00
C66    C     0.34939   0.37705   0.29754   0.00000  Uiso   1.00
C67    C     0.15898   0.13203   0.72173   0.00000  Uiso   1.00
C68    C     0.11997   0.35251   0.30092   0.00000  Uiso   1.00
C69    C     0.24994   0.49996   0.47334   0.00000  Uiso   1.00
C70    C     0.37256   0.15486   0.70997   0.00000  Uiso   1.00
C71    C     0.15450   0.12753   0.29069   0.00000  Uiso   1.00
C72    C     0.35314   0.37993   0.69866   0.00000  Uiso   1.00
C73    C     0.36855   0.15887   0.27892   0.00000  Uiso   1.00
C74    C     0.12324   0.35005   0.70176   0.00000  Uiso   1.00
C75    C     0.15158   0.40228   0.25059   0.00000  Uiso   1.00
C76    C     0.34832   0.09782   0.74914   0.00000  Uiso   1.00
C77    C     0.40221   0.34833   0.25084   0.00000  Uiso   1.00
C78    C     0.09771   0.15157   0.74926   0.00000  Uiso   1.00
C79    C     0.34771   0.09843   0.24926   0.00000  Uiso   1.00
C80    C     0.00000   0.25001   0.52666   0.00000  Uiso   1.00
C81    C     0.15221   0.40167   0.75084   0.00000  Uiso   1.00
C82    C     0.09832   0.15218   0.24914   0.00000  Uiso   1.00
C83    C     0.40158   0.34772   0.75059   0.00000  Uiso   1.00
C84    C     0.15229   0.09843   0.75075   0.00000  Uiso   1.00
C85    C     0.34779   0.40167   0.24916   0.00000  Uiso   1.00
C86    C     0.40167   0.15218   0.75086   0.00000  Uiso   1.00
C87    C     0.09842   0.34772   0.24941   0.00000  Uiso   1.00
C88    C     0.34842   0.40228   0.74941   0.00000  Uiso   1.00
C89    C     0.15167   0.09782   0.25086   0.00000  Uiso   1.00
C90    C     0.09779   0.34833   0.74916   0.00000  Uiso   1.00
C91    C    -0.00000   0.25001   0.47334   0.00000  Uiso   1.00
C92    C     0.40229   0.15157   0.25074   0.00000  Uiso   1.00
C93    C     0.07794   0.36676   0.14707   0.00000  Uiso   1.00
C94    C     0.43675   0.11917   0.83080   0.00000  Uiso   1.00
C95    C     0.37273   0.42796   0.15363   0.00000  Uiso   1.00
C96    C     0.11204   0.05510   0.80805   0.00000  Uiso   1.00
C97    C     0.44384   0.11182   0.18879   0.00000  Uiso   1.00
C98    C     0.07304   0.36986   0.84819   0.00000  Uiso   1.00
C99    C     0.12137   0.06461   0.16611   0.00000  Uiso   1.00
C100   C     0.36412   0.42076   0.85474   0.00000  Uiso   1.00
C101   C     0.05616   0.11182   0.81121   0.00000  Uiso   1.00
C102   C     0.49999   0.25000   0.41010   0.00000  Uiso   1.00
C103   C     0.42696   0.36986   0.15181   0.00000  Uiso   1.00
C104   C     0.37863   0.06461   0.83390   0.00000  Uiso   1.00
C105   C     0.13587   0.42075   0.14526   0.00000  Uiso   1.00
C106   C     0.42206   0.36676   0.85293   0.00000  Uiso   1.00
C107   C     0.06325   0.11917   0.16920   0.00000  Uiso   1.00
C108   C     0.12726   0.42796   0.84637   0.00000  Uiso   1.00
C109   C     0.38796   0.05510   0.19195   0.00000  Uiso   1.00
C110   C     0.31325   0.13083   0.66920   0.00000  Uiso   1.00
C111   C     0.17206   0.38324   0.35293   0.00000  Uiso   1.00
C112   C     0.13796   0.19490   0.69195   0.00000  Uiso   1.00
H113   H     0.05809   0.33541   0.08077   0.00000  Uiso   1.00
H114   H     0.43467   0.36870   0.06272   0.00000  Uiso   1.00
H115   H     0.38458   0.04918   0.91962   0.00000  Uiso   1.00
H116   H     0.14127   0.42329   0.05580   0.00000  Uiso   1.00
H117   H     0.44191   0.33541   0.91923   0.00000  Uiso   1.00
H118   H     0.02926   0.14356   0.11087   0.00000  Uiso   1.00
H119   H     0.15597   0.45380   0.91031   0.00000  Uiso   1.00
H120   H     0.36923   0.01594   0.13672   0.00000  Uiso   1.00
H121   H     0.27926   0.10644   0.61087   0.00000  Uiso   1.00
H122   H     0.19191   0.41459   0.41923   0.00000  Uiso   1.00
H123   H     0.11923   0.23406   0.63672   0.00000  Uiso   1.00
H124   H     0.47074   0.14356   0.88913   0.00000  Uiso   1.00
H125   H     0.40597   0.29620   0.41031   0.00000  Uiso   1.00
H126   H     0.18467   0.38130   0.56272   0.00000  Uiso   1.00
H127   H     0.28166   0.15303   0.38816   0.00000  Uiso   1.00
H128   H     0.39127   0.32671   0.55580   0.00000  Uiso   1.00
H129   H     0.13458   0.20082   0.41963   0.00000  Uiso   1.00
H130   H     0.31533   0.38130   0.43728   0.00000  Uiso   1.00
H131   H     0.21834   0.15303   0.61184   0.00000  Uiso   1.00
H132   H     0.10873   0.32671   0.44420   0.00000  Uiso   1.00
H133   H     0.36542   0.20082   0.58038   0.00000  Uiso   1.00
H134   H     0.22074   0.10644   0.38913   0.00000  Uiso   1.00
H135   H     0.34403   0.45380   0.08969   0.00000  Uiso   1.00
H136   H     0.30809   0.41459   0.58077   0.00000  Uiso   1.00
H137   H     0.38077   0.23406   0.36328   0.00000  Uiso   1.00
H138   H     0.09403   0.29620   0.58969   0.00000  Uiso   1.00
H139   H     0.13077   0.01594   0.86328   0.00000  Uiso   1.00
H140   H     0.46834   0.09697   0.11184   0.00000  Uiso   1.00
H141   H     0.06533   0.36870   0.93728   0.00000  Uiso   1.00
H142   H     0.11542   0.04918   0.08038   0.00000  Uiso   1.00
H143   H     0.35873   0.42329   0.94420   0.00000  Uiso   1.00
H144   H     0.03166   0.09697   0.88816   0.00000  Uiso   1.00
O145   O     0.00000   0.25000   0.25000   0.00000  Uiso   1.00
O146   O     0.00000   0.28035   0.61781   0.00000  Uiso   1.00
O147   O     0.13427   0.17791   0.39428   0.00000  Uiso   1.00
O148   O     0.29038   0.38371   0.33858   0.00000  Uiso   1.00
O149   O     0.33574   0.37895   0.40687   0.00000  Uiso   1.00
O150   O     0.22311   0.13345   0.71362   0.00000  Uiso   1.00
O151   O     0.19301   0.14966   0.62938   0.00000  Uiso   1.00
O152   O     0.11057   0.29621   0.34960   0.00000  Uiso   1.00
O153   O     0.11275   0.34527   0.41129   0.00000  Uiso   1.00
O154   O     0.37526   0.21692   0.68277   0.00000  Uiso   1.00
O155   O     0.36573   0.17791   0.60572   0.00000  Uiso   1.00
O156   O     0.20307   0.15986   0.33451   0.00000  Uiso   1.00
O157   O     0.21964   0.00000   0.38219   0.00000  Uiso   1.00
O158   O     0.19845   0.10079   0.36410   0.00000  Uiso   1.00
O159   O     0.30910   0.35718   0.63253   0.00000  Uiso   1.00
O160   O     0.32623   0.41579   0.61474   0.00000  Uiso   1.00
O161   O     0.33384   0.21172   0.29836   0.00000  Uiso   1.00
O162   O     0.38828   0.20954   0.34633   0.00000  Uiso   1.00
O163   O     0.15041   0.30468   0.64220   0.00000  Uiso   1.00
O164   O     0.09084   0.31580   0.62118   0.00000  Uiso   1.00
O165   O     0.28035   0.00000   0.61781   0.00000  Uiso   1.00
O166   O     0.25000   0.03036   0.88219   0.00000  Uiso   1.00
O167   O     0.25000   0.46965   0.11781   0.00000  Uiso   1.00
O168   O     0.03035   0.25000   0.88219   0.00000  Uiso   1.00
O169   O     0.46964   0.25000   0.11781   0.00000  Uiso   1.00
O170   O     0.25000   0.46965   0.88219   0.00000  Uiso   1.00
O171   O     0.25000   0.03036   0.11781   0.00000  Uiso   1.00
O172   O     0.46964   0.25000   0.88219   0.00000  Uiso   1.00
O173   O     0.00000   0.25000   0.75000   0.00000  Uiso   1.00
O174   O     0.03035   0.25000   0.11781   0.00000  Uiso   1.00
O175   O     0.04267   0.17692   0.28474   0.00000  Uiso   1.00
O176   O     0.45732   0.32308   0.71526   0.00000  Uiso   1.00
O177   O     0.17692   0.45733   0.28474   0.00000  Uiso   1.00
O178   O     0.32307   0.04268   0.71526   0.00000  Uiso   1.00
O179   O     0.45732   0.32308   0.28474   0.00000  Uiso   1.00
O180   O     0.04267   0.17692   0.71526   0.00000  Uiso   1.00
O181   O     0.32307   0.04268   0.28474   0.00000  Uiso   1.00
O182   O     0.17692   0.45733   0.71526   0.00000  Uiso   1.00
O183   O     0.04267   0.32307   0.71526   0.00000  Uiso   1.00
O184   O     0.25000   0.00000   0.25000   0.00000  Uiso   1.00
O185   O     0.45732   0.17693   0.28474   0.00000  Uiso   1.00
O186   O     0.17692   0.04268   0.71526   0.00000  Uiso   1.00
O187   O     0.32307   0.45733   0.28474   0.00000  Uiso   1.00
O188   O     0.45732   0.17693   0.71526   0.00000  Uiso   1.00
O189   O     0.04267   0.32307   0.28474   0.00000  Uiso   1.00
O190   O     0.32307   0.45733   0.71526   0.00000  Uiso   1.00
O191   O     0.17692   0.04268   0.28474   0.00000  Uiso   1.00
O192   O     0.29267   0.42693   0.78474   0.00000  Uiso   1.00
O193   O     0.20732   0.07308   0.21526   0.00000  Uiso   1.00
O194   O     0.42692   0.20733   0.78474   0.00000  Uiso   1.00
O195   O     0.25000   0.00000   0.75000   0.00000  Uiso   1.00
O196   O     0.07307   0.29267   0.21526   0.00000  Uiso   1.00
O197   O     0.20732   0.07308   0.78474   0.00000  Uiso   1.00
O198   O     0.29267   0.42693   0.21526   0.00000  Uiso   1.00
O199   O     0.07307   0.29267   0.78474   0.00000  Uiso   1.00
O200   O     0.42692   0.20733   0.21526   0.00000  Uiso   1.00
O201   O     0.29267   0.07308   0.21526   0.00000  Uiso   1.00
O202   O     0.20732   0.42693   0.78474   0.00000  Uiso   1.00
O203   O     0.42692   0.29268   0.21526   0.00000  Uiso   1.00
O204   O     0.07307   0.20732   0.78474   0.00000  Uiso   1.00
O205   O     0.20732   0.42693   0.21526   0.00000  Uiso   1.00
O206   O     0.00000   0.28035   0.38219   0.00000  Uiso   1.00
O207   O     0.29267   0.07308   0.78474   0.00000  Uiso   1.00
O208   O     0.07307   0.20732   0.21526   0.00000  Uiso   1.00
O209   O     0.42692   0.29268   0.78474   0.00000  Uiso   1.00
O210   O     0.05910   0.39282   0.13253   0.00000  Uiso   1.00
O211   O     0.07623   0.33421   0.11474   0.00000  Uiso   1.00
O212   O     0.45307   0.09014   0.83451   0.00000  Uiso   1.00
O213   O     0.44845   0.14921   0.86410   0.00000  Uiso   1.00
O214   O     0.40041   0.44532   0.14220   0.00000  Uiso   1.00
O215   O     0.34084   0.43420   0.12118   0.00000  Uiso   1.00
O216   O     0.08384   0.03828   0.79836   0.00000  Uiso   1.00
O217   O    -0.00000   0.21965   0.61781   0.00000  Uiso   1.00
O218   O     0.13828   0.04046   0.84633   0.00000  Uiso   1.00
O219   O     0.47311   0.11655   0.21362   0.00000  Uiso   1.00
O220   O     0.44301   0.10034   0.12938   0.00000  Uiso   1.00
O221   O     0.04038   0.36629   0.83858   0.00000  Uiso   1.00
O222   O     0.08574   0.37105   0.90687   0.00000  Uiso   1.00
O223   O     0.12526   0.03308   0.18277   0.00000  Uiso   1.00
O224   O     0.11573   0.07209   0.10572   0.00000  Uiso   1.00
O225   O     0.36057   0.45379   0.84960   0.00000  Uiso   1.00
O226   O     0.36275   0.40473   0.91129   0.00000  Uiso   1.00
O227   O     0.02689   0.11655   0.78638   0.00000  Uiso   1.00
O228   O     0.28035   0.00000   0.38219   0.00000  Uiso   1.00
O229   O     0.05699   0.10034   0.87063   0.00000  Uiso   1.00
O230   O     0.45962   0.36629   0.16142   0.00000  Uiso   1.00
O231   O     0.41426   0.37105   0.09314   0.00000  Uiso   1.00
O232   O     0.37474   0.03308   0.81723   0.00000  Uiso   1.00
O233   O     0.38427   0.07209   0.89428   0.00000  Uiso   1.00
O234   O     0.13943   0.45379   0.15040   0.00000  Uiso   1.00
O235   O     0.13725   0.40473   0.08871   0.00000  Uiso   1.00
O236   O     0.44090   0.39282   0.86747   0.00000  Uiso   1.00
O237   O     0.42377   0.33421   0.88527   0.00000  Uiso   1.00
O238   O     0.04693   0.09014   0.16549   0.00000  Uiso   1.00
O239   O     0.21964   0.00000   0.61781   0.00000  Uiso   1.00
O240   O     0.05155   0.14921   0.13590   0.00000  Uiso   1.00
O241   O     0.09959   0.44532   0.85780   0.00000  Uiso   1.00
O242   O     0.15916   0.43420   0.87882   0.00000  Uiso   1.00
O243   O     0.41616   0.03828   0.20164   0.00000  Uiso   1.00
O244   O     0.36172   0.04046   0.15367   0.00000  Uiso   1.00
O245   O     0.29693   0.15986   0.66549   0.00000  Uiso   1.00
O246   O     0.30155   0.10079   0.63590   0.00000  Uiso   1.00
O247   O     0.19090   0.35718   0.36747   0.00000  Uiso   1.00
O248   O     0.17377   0.41579   0.38527   0.00000  Uiso   1.00
O249   O     0.16616   0.21172   0.70164   0.00000  Uiso   1.00
O250   O     0.00000   0.21964   0.38219   0.00000  Uiso   1.00
O251   O     0.11172   0.20954   0.65367   0.00000  Uiso   1.00
O252   O     0.34959   0.30468   0.35780   0.00000  Uiso   1.00
O253   O     0.40916   0.31580   0.37882   0.00000  Uiso   1.00
O254   O     0.20962   0.38371   0.66142   0.00000  Uiso   1.00
O255   O     0.16426   0.37895   0.59314   0.00000  Uiso   1.00
O256   O     0.27689   0.13345   0.28638   0.00000  Uiso   1.00
O257   O     0.30699   0.14966   0.37063   0.00000  Uiso   1.00
O258   O     0.38943   0.29621   0.65040   0.00000  Uiso   1.00
O259   O     0.38725   0.34527   0.58871   0.00000  Uiso   1.00
O260   O     0.12474   0.21692   0.31723   0.00000  Uiso   1.00
Zn261  Zn    0.04333   0.25000   0.20067   0.00000  Uiso   1.00
Zn262  Zn    0.20667   0.00000   0.29933   0.00000  Uiso   1.00
Zn263  Zn    0.00000   0.20667   0.70067   0.00000  Uiso   1.00
Zn264  Zn    0.00000   0.29333   0.29933   0.00000  Uiso   1.00
Zn265  Zn    0.20667   0.00000   0.70067   0.00000  Uiso   1.00
Zn266  Zn    0.29333   0.00000   0.29933   0.00000  Uiso   1.00
Zn267  Zn   -0.00000   0.29333   0.70067   0.00000  Uiso   1.00
Zn268  Zn    0.00000   0.20667   0.29933   0.00000  Uiso   1.00
Zn269  Zn    0.45667   0.25000   0.79933   0.00000  Uiso   1.00
Zn270  Zn    0.25000   0.45667   0.20067   0.00000  Uiso   1.00
Zn271  Zn    0.25000   0.04333   0.79933   0.00000  Uiso   1.00
Zn272  Zn    0.45667   0.25000   0.20067   0.00000  Uiso   1.00
Zn273  Zn    0.04333   0.25000   0.79933   0.00000  Uiso   1.00
Zn274  Zn    0.25000   0.04333   0.20067   0.00000  Uiso   1.00
Zn275  Zn    0.25000   0.45667   0.79933   0.00000  Uiso   1.00
Zn276  Zn    0.29333   0.00000   0.70067   0.00000  Uiso   1.00
C277   C     0.50006   0.25004   0.02666   0.00000  Uiso   1.00
C278   C     0.50001   0.25000   0.58990   0.00000  Uiso   1.00
C279   C     0.87726   0.32204   0.34637   0.00000  Uiso   1.00
C280   C     0.67696   0.38014   0.65181   0.00000  Uiso   1.00
C281   C     0.80616   0.13818   0.31121   0.00000  Uiso   1.00
C282   C     0.88587   0.32924   0.64526   0.00000  Uiso   1.00
C283   C     0.62863   0.18539   0.33390   0.00000  Uiso   1.00
C284   C     0.82304   0.38014   0.34819   0.00000  Uiso   1.00
C285   C     0.69384   0.13818   0.68879   0.00000  Uiso   1.00
C286   C     0.61412   0.32924   0.35474   0.00000  Uiso   1.00
C287   C     0.87136   0.18539   0.66611   0.00000  Uiso   1.00
C288   C     0.68675   0.13083   0.33080   0.00000  Uiso   1.00
C289   C     0.74995   0.49998   0.41010   0.00000  Uiso   1.00
C290   C     0.82794   0.38324   0.64707   0.00000  Uiso   1.00
C291   C     0.86204   0.19490   0.30805   0.00000  Uiso   1.00
C292   C     0.62273   0.32204   0.65363   0.00000  Uiso   1.00
C293   C     0.75005   0.49998   0.58990   0.00000  Uiso   1.00
C294   C     0.74999  -0.00000   0.91010   0.00000  Uiso   1.00
C295   C     0.75001  -0.00000   0.08990   0.00000  Uiso   1.00
C296   C     0.99995   0.25002   0.91010   0.00000  Uiso   1.00
C297   C     0.50005   0.25002   0.08990   0.00000  Uiso   1.00
C298   C     0.56993   0.17997   0.24968   0.00000  Uiso   1.00
C299   C     0.93017   0.32015   0.75062   0.00000  Uiso   1.00
C300   C     0.68017   0.42985   0.25062   0.00000  Uiso   1.00
C301   C     0.99994   0.25004   0.97334   0.00000  Uiso   1.00
C302   C     0.81993   0.07003   0.74968   0.00000  Uiso   1.00
C303   C     0.92983   0.31976   0.25071   0.00000  Uiso   1.00
C304   C     0.56973   0.17980   0.75031   0.00000  Uiso   1.00
C305   C     0.81973   0.07020   0.25031   0.00000  Uiso   1.00
C306   C     0.67983   0.43024   0.75071   0.00000  Uiso   1.00
C307   C     0.57017   0.31976   0.74929   0.00000  Uiso   1.00
C308   C     0.93027   0.17980   0.24969   0.00000  Uiso   1.00
C309   C     0.68027   0.07020   0.74969   0.00000  Uiso   1.00
C310   C     0.82017   0.43024   0.24929   0.00000  Uiso   1.00
C311   C     0.93007   0.17997   0.75033   0.00000  Uiso   1.00
C312   C     0.75000   0.49999   0.02666   0.00000  Uiso   1.00
C313   C     0.56983   0.32015   0.24938   0.00000  Uiso   1.00
C314   C     0.81983   0.42985   0.74938   0.00000  Uiso   1.00
C315   C     0.68007   0.07003   0.25033   0.00000  Uiso   1.00
C316   C     0.60314   0.37007   0.19866   0.00000  Uiso   1.00
C317   C     0.90450   0.12247   0.79069   0.00000  Uiso   1.00
C318   C     0.87324   0.39995   0.20176   0.00000  Uiso   1.00
C319   C     0.61855   0.09114   0.77892   0.00000  Uiso   1.00
C320   C     0.90898   0.11797   0.22173   0.00000  Uiso   1.00
C321   C     0.59939   0.37295   0.79754   0.00000  Uiso   1.00
C322   C     0.62256   0.09514   0.20997   0.00000  Uiso   1.00
C323   C     0.75000   0.49999   0.97334   0.00000  Uiso   1.00
C324   C     0.86997   0.39749   0.80092   0.00000  Uiso   1.00
C325   C     0.59102   0.11797   0.77827   0.00000  Uiso   1.00
C326   C     0.90061   0.37295   0.20246   0.00000  Uiso   1.00
C327   C     0.87744   0.09514   0.79003   0.00000  Uiso   1.00
C328   C     0.63003   0.39749   0.19908   0.00000  Uiso   1.00
C329   C     0.89686   0.37007   0.80134   0.00000  Uiso   1.00
C330   C     0.59550   0.12247   0.20931   0.00000  Uiso   1.00
C331   C     0.62676   0.39995   0.79824   0.00000  Uiso   1.00
C332   C     0.88145   0.09114   0.22108   0.00000  Uiso   1.00
C333   C     0.84550   0.12753   0.70931   0.00000  Uiso   1.00
C334   C     0.75006   0.49996   0.52666   0.00000  Uiso   1.00
C335   C     0.64686   0.37993   0.30134   0.00000  Uiso   1.00
C336   C     0.63145   0.15887   0.72108   0.00000  Uiso   1.00
C337   C     0.87676   0.35005   0.29824   0.00000  Uiso   1.00
C338   C     0.65061   0.37705   0.70246   0.00000  Uiso   1.00
C339   C     0.84102   0.13203   0.27827   0.00000  Uiso   1.00
C340   C     0.88003   0.35251   0.69908   0.00000  Uiso   1.00
C341   C     0.62744   0.15486   0.29003   0.00000  Uiso   1.00
C342   C     0.84939   0.37705   0.29754   0.00000  Uiso   1.00
C343   C     0.65898   0.13203   0.72173   0.00000  Uiso   1.00
C344   C     0.61997   0.35251   0.30092   0.00000  Uiso   1.00
C345   C     0.74994   0.49996   0.47334   0.00000  Uiso   1.00
C346   C     0.87256   0.15486   0.70997   0.00000  Uiso   1.00
C347   C     0.65450   0.12753   0.29069   0.00000  Uiso   1.00
C348   C     0.85314   0.37993   0.69866   0.00000  Uiso   1.00
C349   C     0.86855   0.15887   0.27892   0.00000  Uiso   1.00
C350   C     0.62324   0.35005   0.70176   0.00000  Uiso   1.00
C351   C     0.65158   0.40228   0.25059   0.00000  Uiso   1.00
C352   C     0.84832   0.09782   0.74914   0.00000  Uiso   1.00
C353   C     0.90221   0.34833   0.25084   0.00000  Uiso   1.00
C354   C     0.59771   0.15157   0.74926   0.00000  Uiso   1.00
C355   C     0.84771   0.09843   0.24926   0.00000  Uiso   1.00
C356   C     0.50000   0.25001   0.52666   0.00000  Uiso   1.00
C357   C     0.65221   0.40167   0.75084   0.00000  Uiso   1.00
C358   C     0.59832   0.15218   0.24914   0.00000  Uiso   1.00
C359   C     0.90158   0.34772   0.75059   0.00000  Uiso   1.00
C360   C     0.65229   0.09843   0.75075   0.00000  Uiso   1.00
C361   C     0.84779   0.40167   0.24916   0.00000  Uiso   1.00
C362   C     0.90167   0.15218   0.75086   0.00000  Uiso   1.00
C363   C     0.59842   0.34772   0.24941   0.00000  Uiso   1.00
C364   C     0.84842   0.40228   0.74941   0.00000  Uiso   1.00
C365   C     0.65167   0.09782   0.25086   0.00000  Uiso   1.00
C366   C     0.59779   0.34833   0.74916   0.00000  Uiso   1.00
C367   C     0.50000   0.25001   0.47334   0.00000  Uiso   1.00
C368   C     0.90229   0.15157   0.25074   0.00000  Uiso   1.00
C369   C     0.57794   0.36676   0.14707   0.00000  Uiso   1.00
C370   C     0.93675   0.11917   0.83080   0.00000  Uiso   1.00
C371   C     0.87273   0.42796   0.15363   0.00000  Uiso   1.00
C372   C     0.61204   0.05510   0.80805   0.00000  Uiso   1.00
C373   C     0.94384   0.11182   0.18879   0.00000  Uiso   1.00
C374   C     0.57304   0.36986   0.84819   0.00000  Uiso   1.00
C375   C     0.62137   0.06461   0.16611   0.00000  Uiso   1.00
C376   C     0.86412   0.42076   0.85474   0.00000  Uiso   1.00
C377   C     0.55616   0.11182   0.81121   0.00000  Uiso   1.00
C378   C     0.99999   0.25000   0.41010   0.00000  Uiso   1.00
C379   C     0.92696   0.36986   0.15181   0.00000  Uiso   1.00
C380   C     0.87863   0.06461   0.83390   0.00000  Uiso   1.00
C381   C     0.63587   0.42075   0.14526   0.00000  Uiso   1.00
C382   C     0.92206   0.36676   0.85293   0.00000  Uiso   1.00
C383   C     0.56325   0.11917   0.16920   0.00000  Uiso   1.00
C384   C     0.62726   0.42796   0.84637   0.00000  Uiso   1.00
C385   C     0.88796   0.05510   0.19195   0.00000  Uiso   1.00
C386   C     0.81325   0.13083   0.66920   0.00000  Uiso   1.00
C387   C     0.67206   0.38324   0.35293   0.00000  Uiso   1.00
C388   C     0.63796   0.19490   0.69195   0.00000  Uiso   1.00
H389   H     0.55809   0.33541   0.08077   0.00000  Uiso   1.00
H390   H     0.93467   0.36870   0.06272   0.00000  Uiso   1.00
H391   H     0.88458   0.04918   0.91962   0.00000  Uiso   1.00
H392   H     0.64127   0.42329   0.05580   0.00000  Uiso   1.00
H393   H     0.94191   0.33541   0.91923   0.00000  Uiso   1.00
H394   H     0.52926   0.14356   0.11087   0.00000  Uiso   1.00
H395   H     0.65597   0.45380   0.91031   0.00000  Uiso   1.00
H396   H     0.86923   0.01594   0.13672   0.00000  Uiso   1.00
H397   H     0.77926   0.10644   0.61087   0.00000  Uiso   1.00
H398   H     0.69191   0.41459   0.41923   0.00000  Uiso   1.00
H399   H     0.61923   0.23406   0.63672   0.00000  Uiso   1.00
H400   H     0.97074   0.14356   0.88913   0.00000  Uiso   1.00
H401   H     0.90597   0.29620   0.41031   0.00000  Uiso   1.00
H402   H     0.68467   0.38130   0.56272   0.00000  Uiso   1.00
H403   H     0.78166   0.15303   0.38816   0.00000  Uiso   1.00
H404   H     0.89127   0.32671   0.55580   0.00000  Uiso   1.00
H405   H     0.63458   0.20082   0.41963   0.00000  Uiso   1.00
H406   H     0.81533   0.38130   0.43728   0.00000  Uiso   1.00
H407   H     0.71834   0.15303   0.61184   0.00000  Uiso   1.00
H408   H     0.60873   0.32671   0.44420   0.00000  Uiso   1.00
H409   H     0.86542   0.20082   0.58038   0.00000  Uiso   1.00
H410   H     0.72074   0.10644   0.38913   0.00000  Uiso   1.00
H411   H     0.84403   0.45380   0.08969   0.00000  Uiso   1.00
H412   H     0.80809   0.41459   0.58077   0.00000  Uiso   1.00
H413   H     0.88077   0.23406   0.36328   0.00000  Uiso   1.00
H414   H     0.59403   0.29620   0.58969   0.00000  Uiso   1.00
H415   H     0.63077   0.01594   0.86328   0.00000  Uiso   1.00
H416   H     0.96834   0.09697   0.11184   0.00000  Uiso   1.00
H417   H     0.56533   0.36870   0.93728   0.00000  Uiso   1.00
H418   H     0.61542   0.04918   0.08038   0.00000  Uiso   1.00
H419   H     0.85873   0.42329   0.94420   0.00000  Uiso   1.00
H420   H     0.53166   0.09697   0.88816   0.00000  Uiso   1.00
O421   O     0.50000   0.25000   0.25000   0.00000  Uiso   1.00
O422   O     0.50000   0.28035   0.61781   0.00000  Uiso   1.00
O423   O     0.63427   0.17791   0.39428   0.00000  Uiso   1.00
O424   O     0.79038   0.38371   0.33858   0.00000  Uiso   1.00
O425   O     0.83574   0.37895   0.40687   0.00000  Uiso   1.00
O426   O     0.72311   0.13345   0.71362   0.00000  Uiso   1.00
O427   O     0.69301   0.14966   0.62938   0.00000  Uiso   1.00
O428   O     0.61057   0.29621   0.34960   0.00000  Uiso   1.00
O429   O     0.61275   0.34527   0.41129   0.00000  Uiso   1.00
O430   O     0.87526   0.21692   0.68277   0.00000  Uiso   1.00
O431   O     0.86573   0.17791   0.60572   0.00000  Uiso   1.00
O432   O     0.70307   0.15986   0.33451   0.00000  Uiso   1.00
O433   O     0.71964   0.00000   0.38219   0.00000  Uiso   1.00
O434   O     0.69845   0.10079   0.36410   0.00000  Uiso   1.00
O435   O     0.80910   0.35718   0.63253   0.00000  Uiso   1.00
O436   O     0.82623   0.41579   0.61474   0.00000  Uiso   1.00
O437   O     0.83384   0.21172   0.29836   0.00000  Uiso   1.00
O438   O     0.88828   0.20954   0.34633   0.00000  Uiso   1.00
O439   O     0.65041   0.30468   0.64220   0.00000  Uiso   1.00
O440   O     0.59084   0.31580   0.62118   0.00000  Uiso   1.00
O441   O     0.78035   0.00000   0.61781   0.00000  Uiso   1.00
O442   O     0.75000   0.03036   0.88219   0.00000  Uiso   1.00
O443   O     0.75000   0.46965   0.11781   0.00000  Uiso   1.00
O444   O     0.53035   0.25000   0.88219   0.00000  Uiso   1.00
O445   O     0.96964   0.25000   0.11781   0.00000  Uiso   1.00
O446   O     0.75000   0.46965   0.88219   0.00000  Uiso   1.00
O447   O     0.75000   0.03036   0.11781   0.00000  Uiso   1.00
O448   O     0.96964   0.25000   0.88219   0.00000  Uiso   1.00
O449   O     0.50000   0.25000   0.75000   0.00000  Uiso   1.00
O450   O     0.53035   0.25000   0.11781   0.00000  Uiso   1.00
O451   O     0.54267   0.17692   0.28474   0.00000  Uiso   1.00
O452   O     0.95732   0.32308   0.71526   0.00000  Uiso   1.00
O453   O     0.67692   0.45733   0.28474   0.00000  Uiso   1.00
O454   O     0.82307   0.04268   0.71526   0.00000  Uiso   1.00
O455   O     0.95732   0.32308   0.28474   0.00000  Uiso   1.00
O456   O     0.54267   0.17692   0.71526   0.00000  Uiso   1.00
O457   O     0.82307   0.04268   0.28474   0.00000  Uiso   1.00
O458   O     0.67692   0.45733   0.71526   0.00000  Uiso   1.00
O459   O     0.54267   0.32307   0.71526   0.00000  Uiso   1.00
O460   O     0.75000   0.00000   0.25000   0.00000  Uiso   1.00
O461   O     0.95732   0.17693   0.28474   0.00000  Uiso   1.00
O462   O     0.67692   0.04268   0.71526   0.00000  Uiso   1.00
O463   O     0.82307   0.45733   0.28474   0.00000  Uiso   1.00
O464   O     0.95732   0.17693   0.71526   0.00000  Uiso   1.00
O465   O     0.54267   0.32307   0.28474   0.00000  Uiso   1.00
O466   O     0.82307   0.45733   0.71526   0.00000  Uiso   1.00
O467   O     0.67692   0.04268   0.28474   0.00000  Uiso   1.00
O468   O     0.79267   0.42693   0.78474   0.00000  Uiso   1.00
O469   O     0.70732   0.07308   0.21526   0.00000  Uiso   1.00
O470   O     0.92692   0.20733   0.78474   0.00000  Uiso   1.00
O471   O     0.75000   0.00000   0.75000   0.00000  Uiso   1.00
O472   O     0.57307   0.29267   0.21526   0.00000  Uiso   1.00
O473   O     0.70732   0.07308   0.78474   0.00000  Uiso   1.00
O474   O     0.79267   0.42693   0.21526   0.00000  Uiso   1.00
O475   O     0.57307   0.29267   0.78474   0.00000  Uiso   1.00
O476   O     0.92692   0.20733   0.21526   0.00000  Uiso   1.00
O477   O     0.79267   0.07308   0.21526   0.00000  Uiso   1.00
O478   O     0.70732   0.42693   0.78474   0.00000  Uiso   1.00
O479   O     0.92692   0.29268   0.21526   0.00000  Uiso   1.00
O480   O     0.57307   0.20732   0.78474   0.00000  Uiso   1.00
O481   O     0.70732   0.42693   0.21526   0.00000  Uiso   1.00
O482   O     0.50000   0.28035   0.38219   0.00000  Uiso   1.00
O483   O     0.79267   0.07308   0.78474   0.00000  Uiso   1.00
O484   O     0.57307   0.20732   0.21526   0.00000  Uiso   1.00
O485   O     0.92692   0.29268   0.78474   0.00000  Uiso   1.00
O486   O     0.55910   0.39282   0.13253   0.00000  Uiso   1.00
O487   O     0.57623   0.33421   0.11474   0.00000  Uiso   1.00
O488   O     0.95307   0.09014   0.83451   0.00000  Uiso   1.00
O489   O     0.94845   0.14921   0.86410   0.00000  Uiso   1.00
O490   O     0.90041   0.44532   0.14220   0.00000  Uiso   1.00
O491   O     0.84084   0.43420   0.12118   0.00000  Uiso   1.00
O492   O     0.58384   0.03828   0.79836   0.00000  Uiso   1.00
O493   O     0.50000   0.21965   0.61781   0.00000  Uiso   1.00
O494   O     0.63828   0.04046   0.84633   0.00000  Uiso   1.00
O495   O     0.97311   0.11655   0.21362   0.00000  Uiso   1.00
O496   O     0.94301   0.10034   0.12938   0.00000  Uiso   1.00
O497   O     0.54038   0.36629   0.83858   0.00000  Uiso   1.00
O498   O     0.58574   0.37105   0.90687   0.00000  Uiso   1.00
O499   O     0.62526   0.03308   0.18277   0.00000  Uiso   1.00
O500   O     0.61573   0.07209   0.10572   0.00000  Uiso   1.00
O501   O     0.86057   0.45379   0.84960   0.00000  Uiso   1.00
O502   O     0.86275   0.40473   0.91129   0.00000  Uiso   1.00
O503   O     0.52689   0.11655   0.78638   0.00000  Uiso   1.00
O504   O     0.78035   0.00000   0.38219   0.00000  Uiso   1.00
O505   O     0.55699   0.10034   0.87063   0.00000  Uiso   1.00
O506   O     0.95962   0.36629   0.16142   0.00000  Uiso   1.00
O507   O     0.91426   0.37105   0.09314   0.00000  Uiso   1.00
O508   O     0.87474   0.03308   0.81723   0.00000  Uiso   1.00
O509   O     0.88427   0.07209   0.89428   0.00000  Uiso   1.00
O510   O     0.63943   0.45379   0.15040   0.00000  Uiso   1.00
O511   O     0.63725   0.40473   0.08871   0.00000  Uiso   1.00
O512   O     0.94090   0.39282   0.86747   0.00000  Uiso   1.00
O513   O     0.92377   0.33421   0.88527   0.00000  Uiso   1.00
O514   O     0.54693   0.09014   0.16549   0.00000  Uiso   1.00
O515   O     0.71964   0.00000   0.61781   0.00000  Uiso   1.00
O516   O     0.55155   0.14921   0.13590   0.00000  Uiso   1.00
O517   O     0.59959   0.44532   0.85780   0.00000  Uiso   1.00
O518   O     0.65916   0.43420   0.87882   0.00000  Uiso   1.00
O519   O     0.91616   0.03828   0.20164   0.00000  Uiso   1.00
O520   O     0.86172   0.04046   0.15367   0.00000  Uiso   1.00
O521   O     0.79693   0.15986   0.66549   0.00000  Uiso   1.00
O522   O     0.80155   0.10079   0.63590   0.00000  Uiso   1.00
O523   O     0.69090   0.35718   0.36747   0.00000  Uiso   1.00
O524   O     0.67377   0.41579   0.38527   0.00000  Uiso   1.00
O525   O     0.66616   0.21172   0.70164   0.00000  Uiso   1.00
O526   O     0.50000   0.21964   0.38219   0.00000  Uiso   1.00
O527   O     0.61172   0.20954   0.65367   0.00000  Uiso   1.00
O528   O     0.84959   0.30468   0.35780   0.00000  Uiso   1.00
O529   O     0.90916   0.31580   0.37882   0.00000  Uiso   1.00
O530   O     0.70962   0.38371   0.66142   0.00000  Uiso   1.00
O531   O     0.66426   0.37895   0.59314   0.00000  Uiso   1.00
O532   O     0.77689   0.13345   0.28638   0.00000  Uiso   1.00
O533   O     0.80699   0.14966   0.37063   0.00000  Uiso   1.00
O534   O     0.88943   0.29621   0.65040   0.00000  Uiso   1.00
O535   O     0.88725   0.34527   0.58871   0.00000  Uiso   1.00
O536   O     0.62474   0.21692   0.31723   0.00000  Uiso   1.00
Zn537  Zn    0.54333   0.25000   0.20067   0.00000  Uiso   1.00
Zn538  Zn    0.70667   0.00000   0.29933   0.00000  Uiso   1.00
Zn539  Zn    0.50000   0.20667   0.70067   0.00000  Uiso   1.00
Zn540  Zn    0.50000   0.29333   0.29933   0.00000  Uiso   1.00
Zn541  Zn    0.70667   0.00000   0.70067   0.00000  Uiso   1.00
Zn542  Zn    0.79333   0.00000   0.29933   0.00000  Uiso   1.00
Zn543  Zn    0.50000   0.29333   0.70067   0.00000  Uiso   1.00
Zn544  Zn    0.50000   0.20667   0.29933   0.00000  Uiso   1.00
Zn545  Zn    0.95667   0.25000   0.79933   0.00000  Uiso   1.00
Zn546  Zn    0.75000   0.45667   0.20067   0.00000  Uiso   1.00
Zn547  Zn    0.75000   0.04333   0.79933   0.00000  Uiso   1.00
Zn548  Zn    0.95667   0.25000   0.20067   0.00000  Uiso   1.00
Zn549  Zn    0.54333   0.25000   0.79933   0.00000  Uiso   1.00
Zn550  Zn    0.75000   0.04333   0.20067   0.00000  Uiso   1.00
Zn551  Zn    0.75000   0.45667   0.79933   0.00000  Uiso   1.00
Zn552  Zn    0.79333   0.00000   0.70067   0.00000  Uiso   1.00
C553   C     0.00006   0.75004   0.02666   0.00000  Uiso   1.00
C554   C     0.00001   0.75000   0.58990   0.00000  Uiso   1.00
C555   C     0.37726   0.82204   0.34637   0.00000  Uiso   1.00
C556   C     0.17696   0.88014   0.65181   0.00000  Uiso   1.00
C557   C     0.30616   0.63818   0.31121   0.00000  Uiso   1.00
C558   C     0.38587   0.82924   0.64526   0.00000  Uiso   1.00
C559   C     0.12863   0.68539   0.33390   0.00000  Uiso   1.00
C560   C     0.32304   0.88014   0.34819   0.00000  Uiso   1.00
C561   C     0.19384   0.63818   0.68879   0.00000  Uiso   1.00
C562   C     0.11412   0.82924   0.35474   0.00000  Uiso   1.00
C563   C     0.37136   0.68539   0.66611   0.00000  Uiso   1.00
C564   C     0.18675   0.63083   0.33080   0.00000  Uiso   1.00
C565   C     0.24995   0.99998   0.41010   0.00000  Uiso   1.00
C566   C     0.32794   0.88324   0.64707   0.00000  Uiso   1.00
C567   C     0.36204   0.69490   0.30805   0.00000  Uiso   1.00
C568   C     0.12273   0.82204   0.65363   0.00000  Uiso   1.00
C569   C     0.25005   0.99998   0.58990   0.00000  Uiso   1.00
C570   C     0.24999   0.50000   0.91010   0.00000  Uiso   1.00
C571   C     0.25001   0.50000   0.08990   0.00000  Uiso   1.00
C572   C     0.49995   0.75002   0.91010   0.00000  Uiso   1.00
C573   C     0.00005   0.75002   0.08990   0.00000  Uiso   1.00
C574   C     0.06993   0.67997   0.24968   0.00000  Uiso   1.00
C575   C     0.43017   0.82015   0.75062   0.00000  Uiso   1.00
C576   C     0.18017   0.92985   0.25062   0.00000  Uiso   1.00
C577   C     0.49994   0.75004   0.97334   0.00000  Uiso   1.00
C578   C     0.31993   0.57003   0.74968   0.00000  Uiso   1.00
C579   C     0.42983   0.81976   0.25071   0.00000  Uiso   1.00
C580   C     0.06973   0.67980   0.75031   0.00000  Uiso   1.00
C581   C     0.31973   0.57020   0.25031   0.00000  Uiso   1.00
C582   C     0.17983   0.93024   0.75071   0.00000  Uiso   1.00
C583   C     0.07017   0.81976   0.74929   0.00000  Uiso   1.00
C584   C     0.43027   0.67980   0.24969   0.00000  Uiso   1.00
C585   C     0.18027   0.57020   0.74969   0.00000  Uiso   1.00
C586   C     0.32017   0.93024   0.24929   0.00000  Uiso   1.00
C587   C     0.43007   0.67997   0.75033   0.00000  Uiso   1.00
C588   C     0.25000   0.99999   0.02666   0.00000  Uiso   1.00
C589   C     0.06983   0.82015   0.24938   0.00000  Uiso   1.00
C590   C     0.31983   0.92985   0.74938   0.00000  Uiso   1.00
C591   C     0.18007   0.57003   0.25033   0.00000  Uiso   1.00
C592   C     0.10314   0.87007   0.19866   0.00000  Uiso   1.00
C593   C     0.40450   0.62247   0.79069   0.00000  Uiso   1.00
C594   C     0.37324   0.89995   0.20176   0.00000  Uiso   1.00
C595   C     0.11855   0.59114   0.77892   0.00000  Uiso   1.00
C596   C     0.40898   0.61797   0.22173   0.00000  Uiso   1.00
C597   C     0.09939   0.87295   0.79754   0.00000  Uiso   1.00
C598   C     0.12256   0.59514   0.20997   0.00000  Uiso   1.00
C599   C     0.25000   0.99999   0.97334   0.00000  Uiso   1.00
C600   C     0.36997   0.89749   0.80092   0.00000  Uiso   1.00
C601   C     0.09102   0.61797   0.77827   0.00000  Uiso   1.00
C602   C     0.40061   0.87295   0.20246   0.00000  Uiso   1.00
C603   C     0.37744   0.59514   0.79003   0.00000  Uiso   1.00
C604   C     0.13003   0.89749   0.19908   0.00000  Uiso   1.00
C605   C     0.39686   0.87007   0.80134   0.00000  Uiso   1.00
C606   C     0.09550   0.62247   0.20931   0.00000  Uiso   1.00
C607   C     0.12676   0.89995   0.79824   0.00000  Uiso   1.00
C608   C     0.38145   0.59114   0.22108   0.00000  Uiso   1.00
C609   C     0.34550   0.62753   0.70931   0.00000  Uiso   1.00
C610   C     0.25006   0.99996   0.52666   0.00000  Uiso   1.00
C611   C     0.14686   0.87993   0.30134   0.00000  Uiso   1.00
C612   C     0.13145   0.65887   0.72108   0.00000  Uiso   1.00
C613   C     0.37676   0.85005   0.29824   0.00000  Uiso   1.00
C614   C     0.15061   0.87705   0.70246   0.00000  Uiso   1.00
C615   C     0.34102   0.63203   0.27827   0.00000  Uiso   1.00
C616   C     0.38003   0.85251   0.69908   0.00000  Uiso   1.00
C617   C     0.12744   0.65486   0.29003   0.00000  Uiso   1.00
C618   C     0.34939   0.87705   0.29754   0.00000  Uiso   1.00
C619   C     0.15898   0.63203   0.72173   0.00000  Uiso   1.00
C620   C     0.11997   0.85251   0.30092   0.00000  Uiso   1.00
C621   C     0.24994   0.99996   0.47334   0.00000  Uiso   1.00
C622   C     0.37256   0.65486   0.70997   0.00000  Uiso   1.00
C623   C     0.15450   0.62753   0.29069   0.00000  Uiso   1.00
C624   C     0.35314   0.87993   0.69866   0.00000  Uiso   1.00
C625   C     0.36855   0.65887   0.27892   0.00000  Uiso   1.00
C626   C     0.12324   0.85005   0.70176   0.00000  Uiso   1.00
C627   C     0.15158   0.90228   0.25059   0.00000  Uiso   1.00
C628   C     0.34832   0.59782   0.74914   0.00000  Uiso   1.00
C629   C     0.40221   0.84833   0.25084   0.00000  Uiso   1.00
C630   C     0.09771   0.65157   0.74926   0.00000  Uiso   1.00
C631   C     0.34771   0.59843   0.24926   0.00000  Uiso   1.00
C632   C     0.00000   0.75001   0.52666   0.00000  Uiso   1.00
C633   C     0.15221   0.90167   0.75084   0.00000  Uiso   1.00
C634   C     0.09832   0.65218   0.24914   0.00000  Uiso   1.00
C635   C     0.40158   0.84772   0.75059   0.00000  Uiso   1.00
C636   C     0.15229   0.59843   0.75075   0.00000  Uiso   1.00
C637   C     0.34779   0.90167   0.24916   0.00000  Uiso   1.00
C638   C     0.40167   0.65218   0.75086   0.00000  Uiso   1.00
C639   C     0.09842   0.84772   0.24941   0.00000  Uiso   1.00
C640   C     0.34842   0.90228   0.74941   0.00000  Uiso   1.00
C641   C     0.15167   0.59782   0.25086   0.00000  Uiso   1.00
C642   C     0.09779   0.84833   0.74916   0.00000  Uiso   1.00
C643   C    -0.00000   0.75001   0.47334   0.00000  Uiso   1.00
C644   C     0.40229   0.65157   0.25074   0.00000  Uiso   1.00
C645   C     0.07794   0.86676   0.14707   0.00000  Uiso   1.00
C646   C     0.43675   0.61917   0.83080   0.00000  Uiso   1.00
C647   C     0.37273   0.92796   0.15363   0.00000  Uiso   1.00
C648   C     0.11204   0.55510   0.80805   0.00000  Uiso   1.00
C649   C     0.44384   0.61182   0.18879   0.00000  Uiso   1.00
C650   C     0.07304   0.86986   0.84819   0.00000  Uiso   1.00
C651   C     0.12137   0.56461   0.16611   0.00000  Uiso   1.00
C652   C     0.36412   0.92076   0.85474   0.00000  Uiso   1.00
C653   C     0.05616   0.61182   0.81121   0.00000  Uiso   1.00
C654   C     0.49999   0.75000   0.41010   0.00000  Uiso   1.00
C655   C     0.42696   0.86986   0.15181   0.00000  Uiso   1.00
C656   C     0.37863   0.56461   0.83390   0.00000  Uiso   1.00
C657   C     0.13587   0.92075   0.14526   0.00000  Uiso   1.00
C658   C     0.42206   0.86676   0.85293   0.00000  Uiso   1.00
C659   C     0.06325   0.61917   0.16920   0.00000  Uiso   1.00
C660   C     0.12726   0.92796   0.84637   0.00000  Uiso   1.00
C661   C     0.38796   0.55510   0.19195   0.00000  Uiso   1.00
C662   C     0.31325   0.63083   0.66920   0.00000  Uiso   1.00
C663   C     0.17206   0.88324   0.35293   0.00000  Uiso   1.00
C664   C     0.13796   0.69490   0.69195   0.00000  Uiso   1.00
H665   H     0.05809   0.83541   0.08077   0.00000  Uiso   1.00
H666   H     0.43467   0.86870   0.06272   0.00000  Uiso   1.00
H667   H     0.38458   0.54918   0.91962   0.00000  Uiso   1.00
H668   H     0.14127   0.92329   0.05580   0.00000  Uiso   1.00
H669   H     0.44191   0.83541   0.91923   0.00000  Uiso   1.00
H670   H     0.02926   0.64356   0.11087   0.00000  Uiso   1.00
H671   H     0.15597   0.95380   0.91031   0.00000  Uiso   1.00
H672   H     0.36923   0.51594   0.13672   0.00000  Uiso   1.00
H673   H     0.27926   0.60644   0.61087   0.00000  Uiso   1.00
H674   H     0.19191   0.91459   0.41923   0.00000  Uiso   1.00
H675   H     0.11923   0.73406   0.63672   0.00000  Uiso   1.00
H676   H     0.47074   0.64356   0.88913   0.00000  Uiso   1.00
H677   H     0.40597   0.79620   0.41031   0.00000  Uiso   1.00
H678   H     0.18467   0.88130   0.56272   0.00000  Uiso   1.00
H679   H     0.28166   0.65303   0.38816   0.00000  Uiso   1.00
H680   H     0.39127   0.82671   0.55580   0.00000  Uiso   1.00
H681   H     0.13458   0.70082   0.41963   0.00000  Uiso   1.00
H682   H     0.31533   0.88130   0.43728   0.00000  Uiso   1.00
H683   H     0.21834   0.65303   0.61184   0.00000  Uiso   1.00
H684   H     0.10873   0.82671   0.44420   0.00000  Uiso   1.00
H685   H     0.36542   0.70082   0.58038   0.00000  Uiso   1.00
H686   H     0.22074   0.60644   0.38913   0.00000  Uiso   1.00
H687   H     0.34403   0.95380   0.08969   0.00000  Uiso   1.00
H688   H     0.30809   0.91459   0.58077   0.00000  Uiso   1.00
H689   H     0.38077   0.73406   0.36328   0.00000  Uiso   1.00
H690   H     0.09403   0.79620   0.58969   0.00000  Uiso   1.00
H691   H     0.13077   0.51594   0.86328   0.00000  Uiso   1.00
H692   H     0.46834   0.59697   0.11184   0.00000  Uiso   1.00
H693   H     0.06533   0.86870   0.93728   0.00000  Uiso   1.00
H694   H     0.11542   0.54918   0.08038   0.00000  Uiso   1.00
H695   H     0.35873   0.92329   0.94420   0.00000  Uiso   1.00
H696   H     0.03166   0.59697   0.88816   0.00000  Uiso   1.00
O697   O     0.00000   0.75000   0.25000   0.00000  Uiso   1.00
O698   O     0.00000   0.78035   0.61781   0.00000  Uiso   1.00
O699   O     0.13427   0.67791   0.39428   0.00000  Uiso   1.00
O700   O     0.29038   0.88371   0.33858   0.00000  Uiso   1.00
O701   O     0.33574   0.87895   0.40687   0.00000  Uiso   1.00
O702   O     0.22311   0.63345   0.71362   0.00000  Uiso   1.00
O703   O     0.19301   0.64966   0.62938   0.00000  Uiso   1.00
O704   O     0.11057   0.79621   0.34960   0.00000  Uiso   1.00
O705   O     0.11275   0.84527   0.41129   0.00000  Uiso   1.00
O706   O     0.37526   0.71692   0.68277   0.00000  Uiso   1.00
O707   O     0.36573   0.67791   0.60572   0.00000  Uiso   1.00
O708   O     0.20307   0.65986   0.33451   0.00000  Uiso   1.00
O709   O     0.21964   0.50000   0.38219   0.00000  Uiso   1.00
O710   O     0.19845   0.60079   0.36410   0.00000  Uiso   1.00
O711   O     0.30910   0.85718   0.63253   0.00000  Uiso   1.00
O712   O     0.32623   0.91579   0.61474   0.00000  Uiso   1.00
O713   O     0.33384   0.71172   0.29836   0.00000  Uiso   1.00
O714   O     0.38828   0.70954   0.34633   0.00000  Uiso   1.00
O715   O     0.15041   0.80468   0.64220   0.00000  Uiso   1.00
O716   O     0.09084   0.81580   0.62118   0.00000  Uiso   1.00
O717   O     0.28035   0.50000   0.61781   0.00000  Uiso   1.00
O718   O     0.25000   0.53036   0.88219   0.00000  Uiso   1.00
O719   O     0.25000   0.96965   0.11781   0.00000  Uiso   1.00
O720   O     0.03035   0.75000   0.88219   0.00000  Uiso   1.00
O721   O     0.46964   0.75000   0.11781   0.00000  Uiso   1.00
O722   O     0.25000   0.96965   0.88219   0.00000  Uiso   1.00
O723   O     0.25000   0.53036   0.11781   0.00000  Uiso   1.00
O724   O     0.46964   0.75000   0.88219   0.00000  Uiso   1.00
O725   O     0.00000   0.75000   0.75000   0.00000  Uiso   1.00
O726   O     0.03035   0.75000   0.11781   0.00000  Uiso   1.00
O727   O     0.04267   0.67692   0.28474   0.00000  Uiso   1.00
O728   O     0.45732   0.82308   0.71526   0.00000  Uiso   1.00
O729   O     0.17692   0.95733   0.28474   0.00000  Uiso   1.00
O730   O     0.32307   0.54268   0.71526   0.00000  Uiso   1.00
O731   O     0.45732   0.82308   0.28474   0.00000  Uiso   1.00
O732   O     0.04267   0.67692   0.71526   0.00000  Uiso   1.00
O733   O     0.32307   0.54268   0.28474   0.00000  Uiso   1.00
O734   O     0.17692   0.95733   0.71526   0.00000  Uiso   1.00
O735   O     0.04267   0.82307   0.71526   0.00000  Uiso   1.00
O736   O     0.25000   0.50000   0.25000   0.00000  Uiso   1.00
O737   O     0.45732   0.67693   0.28474   0.00000  Uiso   1.00
O738   O     0.17692   0.54268   0.71526   0.00000  Uiso   1.00
O739   O     0.32307   0.95733   0.28474   0.00000  Uiso   1.00
O740   O     0.45732   0.67693   0.71526   0.00000  Uiso   1.00
O741   O     0.04267   0.82307   0.28474   0.00000  Uiso   1.00
O742   O     0.32307   0.95733   0.71526   0.00000  Uiso   1.00
O743   O     0.17692   0.54268   0.28474   0.00000  Uiso   1.00
O744   O     0.29267   0.92693   0.78474   0.00000  Uiso   1.00
O745   O     0.20732   0.57308   0.21526   0.00000  Uiso   1.00
O746   O     0.42692   0.70733   0.78474   0.00000  Uiso   1.00
O747   O     0.25000   0.50000   0.75000   0.00000  Uiso   1.00
O748   O     0.07307   0.79267   0.21526   0.00000  Uiso   1.00
O749   O     0.20732   0.57308   0.78474   0.00000  Uiso   1.00
O750   O     0.29267   0.92693   0.21526   0.00000  Uiso   1.00
O751   O     0.07307   0.79267   0.78474   0.00000  Uiso   1.00
O752   O     0.42692   0.70733   0.21526   0.00000  Uiso   1.00
O753   O     0.29267   0.57308   0.21526   0.00000  Uiso   1.00
O754   O     0.20732   0.92693   0.78474   0.00000  Uiso   1.00
O755   O     0.42692   0.79268   0.21526   0.00000  Uiso   1.00
O756   O     0.07307   0.70732   0.78474   0.00000  Uiso   1.00
O757   O     0.20732   0.92693   0.21526   0.00000  Uiso   1.00
O758   O     0.00000   0.78035   0.38219   0.00000  Uiso   1.00
O759   O     0.29267   0.57308   0.78474   0.00000  Uiso   1.00
O760   O     0.07307   0.70732   0.21526   0.00000  Uiso   1.00
O761   O     0.42692   0.79268   0.78474   0.00000  Uiso   1.00
O762   O     0.05910   0.89282   0.13253   0.00000  Uiso   1.00
O763   O     0.07623   0.83421   0.11474   0.00000  Uiso   1.00
O764   O     0.45307   0.59014   0.83451   0.00000  Uiso   1.00
O765   O     0.44845   0.64921   0.86410   0.00000  Uiso   1.00
O766   O     0.40041   0.94532   0.14220   0.00000  Uiso   1.00
O767   O     0.34084   0.93420   0.12118   0.00000  Uiso   1.00
O768   O     0.08384   0.53828   0.79836   0.00000  Uiso   1.00
O769   O    -0.00000   0.71965   0.61781   0.00000  Uiso   1.00
O770   O     0.13828   0.54046   0.84633   0.00000  Uiso   1.00
O771   O     0.47311   0.61655   0.21362   0.00000  Uiso   1.00
O772   O     0.44301   0.60034   0.12938   0.00000  Uiso   1.00
O773   O     0.04038   0.86629   0.83858   0.00000  Uiso   1.00
O774   O     0.08574   0.87105   0.90687   0.00000  Uiso   1.00
O775   O     0.12526   0.53308   0.18277   0.00000  Uiso   1.00
O776   O     0.11573   0.57209   0.10572   0.00000  Uiso   1.00
O777   O     0.36057   0.95379   0.84960   0.00000  Uiso   1.00
O778   O     0.36275   0.90473   0.91129   0.00000  Uiso   1.00
O779   O     0.02689   0.61655   0.78638   0.00000  Uiso   1.00
O780   O     0.28035   0.50000   0.38219   0.00000  Uiso   1.00
O781   O     0.05699   0.60034   0.87063   0.00000  Uiso   1.00
O782   O     0.45962   0.86629   0.16142   0.00000  Uiso   1.00
O783   O     0.41426   0.87105   0.09314   0.00000  Uiso   1.00
O784   O     0.37474   0.53308   0.81723   0.00000  Uiso   1.00
O785   O     0.38427   0.57209   0.89428   0.00000  Uiso   1.00
O786   O     0.13943   0.95379   0.15040   0.00000  Uiso   1.00
O787   O     0.13725   0.90473   0.08871   0.00000  Uiso   1.00
O788   O     0.44090   0.89282   0.86747   0.00000  Uiso   1.00
O789   O     0.42377   0.83421   0.88527   0.00000  Uiso   1.00
O790   O     0.04693   0.59014   0.16549   0.00000  Uiso   1.00
O791   O     0.21964   0.50000   0.61781   0.00000  Uiso   1.00
O792   O     0.05155   0.64921   0.13590   0.00000  Uiso   1.00
O793   O     0.09959   0.94532   0.85780   0.00000  Uiso   1.00
O794   O     0.15916   0.93420   0.87882   0.00000  Uiso   1.00
O795   O     0.41616   0.53828   0.20164   0.00000  Uiso   1.00
O796   O     0.36172   0.54046   0.15367   0.00000  Uiso   1.00
O797   O     0.29693   0.65986   0.66549   0.00000  Uiso   1.00
O798   O     0.30155   0.60079   0.63590   0.00000  Uiso   1.00
O799   O     0.19090   0.85718   0.36747   0.00000  Uiso   1.00
O800   O     0.17377   0.91579   0.38527   0.00000  Uiso   1.00
O801   O     0.16616   0.71172   0.70164   0.00000  Uiso   1.00
O802   O     0.00000   0.71964   0.38219   0.00000  Uiso   1.00
O803   O     0.11172   0.70954   0.65367   0.00000  Uiso   1.00
O804   O     0.34959   0.80468   0.35780   0.00000  Uiso   1.00
O805   O     0.40916   0.81580   0.37882   0.00000  Uiso   1.00
O806   O     0.20962   0.88371   0.66142   0.00000  Uiso   1.00
O807   O     0.16426   0.87895   0.59314   0.00000  Uiso   1.00
O808   O     0.27689   0.63345   0.28638   0.00000  Uiso   1.00
O809   O     0.30699   0.64966   0.37063   0.00000  Uiso   1.00
O810   O     0.38943   0.79621   0.65040   0.00000  Uiso   1.00
O811   O     0.38725   0.84527   0.58871   0.00000  Uiso   1.00
O812   O     0.12474   0.71692   0.31723   0.00000  Uiso   1.00
Zn813  Zn    0.04333   0.75000   0.20067   0.00000  Uiso   1.00
Zn814  Zn    0.20667   0.50000   0.29933   0.00000  Uiso   1.00
Zn815  Zn    0.00000   0.70667   0.70067   0.00000  Uiso   1.00
Zn816  Zn    0.00000   0.79333   0.29933   0.00000  Uiso   1.00
Zn817  Zn    0.20667   0.50000   0.70067   0.00000  Uiso   1.00
Zn818  Zn    0.29333   0.50000   0.29933   0.00000  Uiso   1.00
Zn819  Zn   -0.00000   0.79333   0.70067   0.00000  Uiso   1.00
Zn820  Zn    0.00000   0.70667   0.29933   0.00000  Uiso   1.00
Zn821  Zn    0.45667   0.75000   0.79933   0.00000  Uiso   1.00
Zn822  Zn    0.25000   0.95667   0.20067   0.00000  Uiso   1.00
Zn823  Zn    0.25000   0.54333   0.79933   0.00000  Uiso   1.00
Zn824  Zn    0.45667   0.75000   0.20067   0.00000  Uiso   1.00
Zn825  Zn    0.04333   0.75000   0.79933   0.00000  Uiso   1.00
Zn826  Zn    0.25000   0.54333   0.20067   0.00000  Uiso   1.00
Zn827  Zn    0.25000   0.95667   0.79933   0.00000  Uiso   1.00
Zn828  Zn    0.29333   0.50000   0.70067   0.00000  Uiso   1.00
C829   C     0.50006   0.75004   0.02666   0.00000  Uiso   1.00
C830   C     0.50001   0.75000   0.58990   0.00000  Uiso   1.00
C831   C     0.87726   0.82204   0.34637   0.00000  Uiso   1.00
C832   C     0.67696   0.88014   0.65181   0.00000  Uiso   1.00
C833   C     0.80616   0.63818   0.31121   0.00000  Uiso   1.00
C834   C     0.88587   0.82924   0.64526   0.00000  Uiso   1.00
C835   C     0.62863   0.68539   0.33390   0.00000  Uiso   1.00
C836   C     0.82304   0.88014   0.34819   0.00000  Uiso   1.00
C837   C     0.69384   0.63818   0.68879   0.00000  Uiso   1.00
C838   C     0.61412   0.82924   0.35474   0.00000  Uiso   1.00
C839   C     0.87136   0.68539   0.66611   0.00000  Uiso   1.00
C840   C     0.68675   0.63083   0.33080   0.00000  Uiso   1.00
C841   C     0.74995   0.99998   0.41010   0.00000  Uiso   1.00
C842   C     0.82794   0.88324   0.64707   0.00000  Uiso   1.00
C843   C     0.86204   0.69490   0.30805   0.00000  Uiso   1.00
C844   C     0.62273   0.82204   0.65363   0.00000  Uiso   1.00
C845   C     0.75005   0.99998   0.58990   0.00000  Uiso   1.00
C846   C     0.74999   0.50000   0.91010   0.00000  Uiso   1.00
C847   C     0.75001   0.50000   0.08990   0.00000  Uiso   1.00
C848   C     0.99995   0.75002   0.91010   0.00000  Uiso   1.00
C849   C     0.50005   0.75002   0.08990   0.00000  Uiso   1.00
C850   C     0.56993   0.67997   0.24968   0.00000  Uiso   1.00
C851   C     0.93017   0.82015   0.75062   0.00000  Uiso   1.00
C852   C     0.68017   0.92985   0.25062   0.00000  Uiso   1.00
C853   C     0.99994   0.75004   0.97334   0.00000  Uiso   1.00
C854   C     0.81993   0.57003   0.74968   0.00000  Uiso   1.00
C855   C     0.92983   0.81976   0.25071   0.00000  Uiso   1.00
C856   C     0.56973   0.67980   0.75031   0.00000  Uiso   1.00
C857   C     0.81973   0.57020   0.25031   0.00000  Uiso   1.00
C858   C     0.67983   0.93024   0.75071   0.00000  Uiso   1.00
C859   C     0.57017   0.81976   0.74929   0.00000  Uiso   1.00
C860   C     0.93027   0.67980   0.24969   0.00000  Uiso   1.00
C861   C     0.68027   0.57020   0.74969   0.00000  Uiso   1.00
C862   C     0.82017   0.93024   0.24929   0.00000  Uiso   1.00
C863   C     0.93007   0.67997   0.75033   0.00000  Uiso   1.00
C864   C     0.75000   0.99999   0.02666   0.00000  Uiso   1.00
C865   C     0.56983   0.82015   0.24938   0.00000  Uiso   1.00
C866   C     0.81983   0.92985   0.74938   0.00000  Uiso   1.00
C867   C     0.68007   0.57003   0.25033   0.00000  Uiso   1.00
C868   C     0.60314   0.87007   0.19866   0.00000  Uiso   1.00
C869   C     0.90450   0.62247   0.79069   0.00000  Uiso   1.00
C870   C     0.87324   0.89995   0.20176   0.00000  Uiso   1.00
C871   C     0.61855   0.59114   0.77892   0.00000  Uiso   1.00
C872   C     0.90898   0.61797   0.22173   0.00000  Uiso   1.00
C873   C     0.59939   0.87295   0.79754   0.00000  Uiso   1.00
C874   C     0.62256   0.59514   0.20997   0.00000  Uiso   1.00
C875   C     0.75000   0.99999   0.97334   0.00000  Uiso   1.00
C876   C     0.86997   0.89749   0.80092   0.00000  Uiso   1.00
C877   C     0.59102   0.61797   0.77827   0.00000  Uiso   1.00
C878   C     0.90061   0.87295   0.20246   0.00000  Uiso   1.00
C879   C     0.87744   0.59514   0.79003   0.00000  Uiso   1.00
C880   C     0.63003   0.89749   0.19908   0.00000  Uiso   1.00
C881   C     0.89686   0.87007   0.80134   0.00000  Uiso   1.00
C882   C     0.59550   0.62247   0.20931   0.00000  Uiso   1.00
C883   C     0.62676   0.89995   0.79824   0.00000  Uiso   1.00
C884   C     0.88145   0.59114   0.22108   0.00000  Uiso   1.00
C885   C     0.84550   0.62753   0.70931   0.00000  Uiso   1.00
C886   C     0.75006   0.99996   0.52666   0.00000  Uiso   1.00
C887   C     0.64686   0.87993   0.30134   0.00000  Uiso   1.00
C888   C     0.63145   0.65887   0.72108   0.00000  Uiso   1.00
C889   C     0.87676   0.85005   0.29824   0.00000  Uiso   1.00
C890   C     0.65061   0.87705   0.70246   0.00000  Uiso   1.00
C891   C     0.84102   0.63203   0.27827   0.00000  Uiso   1.00
C892   C     0.88003   0.85251   0.69908   0.00000  Uiso   1.00
C893   C     0.62744   0.65486   0.29003   0.00000  Uiso   1.00
C894   C     0.84939   0.87705   0.29754   0.00000  Uiso   1.00
C895   C     0.65898   0.63203   0.72173   0.00000  Uiso   1.00
C896   C     0.61997   0.85251   0.30092   0.00000  Uiso   1.00
C897   C     0.74994   0.99996   0.47334   0.00000  Uiso   1.00
C898   C     0.87256   0.65486   0.70997   0.00000  Uiso   1.00
C899   C     0.65450   0.62753   0.29069   0.00000  Uiso   1.00
C900   C     0.85314   0.87993   0.69866   0.00000  Uiso   1.00
C901   C     0.86855   0.65887   0.27892   0.00000  Uiso   1.00
C902   C     0.62324   0.85005   0.70176   0.00000  Uiso   1.00
C903   C     0.65158   0.90228   0.25059   0.00000  Uiso   1.00
C904   C     0.84832   0.59782   0.74914   0.00000  Uiso   1.00
C905   C     0.90221   0.84833   0.25084   0.00000  Uiso   1.00
C906   C     0.59771   0.65157   0.74926   0.00000  Uiso   1.00
C907   C     0.84771   0.59843   0.24926   0.00000  Uiso   1.00
C908   C     0.50000   0.75001   0.52666   0.00000  Uiso   1.00
C909   C     0.65221   0.90167   0.75084   0.00000  Uiso   1.00
C910   C     0.59832   0.65218   0.24914   0.00000  Uiso   1.00
C911   C     0.90158   0.84772   0.75059   0.00000  Uiso   1.00
C912   C     0.65229   0.59843   0.75075   0.00000  Uiso   1.00
C913   C     0.84779   0.90167   0.24916   0.00000  Uiso   1.00
C914   C     0.90167   0.65218   0.75086   0.00000  Uiso   1.00
C915   C     0.59842   0.84772   0.24941   0.00000  Uiso   1.00
C916   C     0.84842   0.90228   0.74941   0.00000  Uiso   1.00
C917   C     0.65167   0.59782   0.25086   0.00000  Uiso   1.00
C918   C     0.59779   0.84833   0.74916   0.00000  Uiso   1.00
C919   C     0.50000   0.75001   0.47334   0.00000  Uiso   1.00
C920   C     0.90229   0.65157   0.25074   0.00000  Uiso   1.00
C921   C     0.57794   0.86676   0.14707   0.00000  Uiso   1.00
C922   C     0.93675   0.61917   0.83080   0.00000  Uiso   1.00
C923   C     0.87273   0.92796   0.15363   0.00000  Uiso   1.00
C924   C     0.61204   0.55510   0.80805   0.00000  Uiso   1.00
C925   C     0.94384   0.61182   0.18879   0.00000  Uiso   1.00
C926   C     0.57304   0.86986   0.84819   0.00000  Uiso   1.00
C927   C     0.62137   0.56461   0.16611   0.00000  Uiso   1.00
C928   C     0.86412   0.92076   0.85474   0.00000  Uiso   1.00
C929   C     0.55616   0.61182   0.81121   0.00000  Uiso   1.00
C930   C     0.99999   0.75000   0.41010   0.00000  Uiso   1.00
C931   C     0.92696   0.86986   0.15181   0.00000  Uiso   1.00
C932   C     0.87863   0.56461   0.83390   0.00000  Uiso   1.00
C933   C     0.63587   0.92075   0.14526   0.00000  Uiso   1.00
C934   C     0.92206   0.86676   0.85293   0.00000  Uiso   1.00
C935   C     0.56325   0.61917   0.16920   0.00000  Uiso   1.00
C936   C     0.62726   0.92796   0.84637   0.00000  Uiso   1.00
C937   C     0.88796   0.55510   0.19195   0.00000  Uiso   1.00
C938   C     0.81325   0.63083   0.66920   0.00000  Uiso   1.00
C939   C     0.67206   0.88324   0.35293   0.00000  Uiso   1.00
C940   C     0.63796   0.69490   0.69195   0.00000  Uiso   1.00
H941   H     0.55809   0.83541   0.08077   0.00000  Uiso   1.00
H942   H     0.93467   0.86870   0.06272   0.00000  Uiso   1.00
H943   H     0.88458   0.54918   0.91962   0.00000  Uiso   1.00
H944   H     0.64127   0.92329   0.05580   0.00000  Uiso   1.00
H945   H     0.94191   0.83541   0.91923   0.00000  Uiso   1.00
H946   H     0.52926   0.64356   0.11087   0.00000  Uiso   1.00
H947   H     0.65597   0.95380   0.91031   0.00000  Uiso   1.00
H948   H     0.86923   0.51594   0.13672   0.00000  Uiso   1.00
H949   H     0.77926   0.60644   0.61087   0.00000  Uiso   1.00
H950   H     0.69191   0.91459   0.41923   0.00000  Uiso   1.00
H951   H     0.61923   0.73406   0.63672   0.00000  Uiso   1.00
H952   H     0.97074   0.64356   0.88913   0.00000  Uiso   1.00
H953   H     0.90597   0.79620   0.41031   0.00000  Uiso   1.00
H954   H     0.68467   0.88130   0.56272   0.00000  Uiso   1.00
H955   H     0.78166   0.65303   0.38816   0.00000  Uiso   1.00
H956   H     0.89127   0.82671   0.55580   0.00000  Uiso   1.00
H957   H     0.63458   0.70082   0.41963   0.00000  Uiso   1.00
H958   H     0.81533   0.88130   0.43728   0.00000  Uiso   1.00
H959   H     0.71834   0.65303   0.61184   0.00000  Uiso   1.00
H960   H     0.60873   0.82671   0.44420   0.00000  Uiso   1.00
H961   H     0.86542   0.70082   0.58038   0.00000  Uiso   1.00
H962   H     0.72074   0.60644   0.38913   0.00000  Uiso   1.00
H963   H     0.84403   0.95380   0.08969   0.00000  Uiso   1.00
H964   H     0.80809   0.91459   0.58077   0.00000  Uiso   1.00
H965   H     0.88077   0.73406   0.36328   0.00000  Uiso   1.00
H966   H     0.59403   0.79620   0.58969   0.00000  Uiso   1.00
H967   H     0.63077   0.51594   0.86328   0.00000  Uiso   1.00
H968   H     0.96834   0.59697   0.11184   0.00000  Uiso   1.00
H969   H     0.56533   0.86870   0.93728   0.00000  Uiso   1.00
H970   H     0.61542   0.54918   0.08038   0.00000  Uiso   1.00
H971   H     0.85873   0.92329   0.94420   0.00000  Uiso   1.00
H972   H     0.53166   0.59697   0.88816   0.00000  Uiso   1.00
O973   O     0.50000   0.75000   0.25000   0.00000  Uiso   1.00
O974   O     0.50000   0.78035   0.61781   0.00000  Uiso   1.00
O975   O     0.63427   0.67791   0.39428   0.00000  Uiso   1.00
O976   O     0.79038   0.88371   0.33858   0.00000  Uiso   1.00
O977   O     0.83574   0.87895   0.40687   0.00000  Uiso   1.00
O978   O     0.72311   0.63345   0.71362   0.00000  Uiso   1.00
O979   O     0.69301   0.64966   0.62938   0.00000  Uiso   1.00
O980   O     0.61057   0.79621   0.34960   0.00000  Uiso   1.00
O981   O     0.61275   0.84527   0.41129   0.00000  Uiso   1.00
O982   O     0.87526   0.71692   0.68277   0.00000  Uiso   1.00
O983   O     0.86573   0.67791   0.60572   0.00000  Uiso   1.00
O984   O     0.70307   0.65986   0.33451   0.00000  Uiso   1.00
O985   O     0.71964   0.50000   0.38219   0.00000  Uiso   1.00
O986   O     0.69845   0.60079   0.36410   0.00000  Uiso   1.00
O987   O     0.80910   0.85718   0.63253   0.00000  Uiso   1.00
O988   O     0.82623   0.91579   0.61474   0.00000  Uiso   1.00
O989   O     0.83384   0.71172   0.29836   0.00000  Uiso   1.00
O990   O     0.88828   0.70954   0.34633   0.00000  Uiso   1.00
O991   O     0.65041   0.80468   0.64220   0.00000  Uiso   1.00
O992   O     0.59084   0.81580   0.62118   0.00000  Uiso   1.00
O993   O     0.78035   0.50000   0.61781   0.00000  Uiso   1.00
O994   O     0.75000   0.53036   0.88219   0.00000  Uiso   1.00
O995   O     0.75000   0.96965   0.11781   0.00000  Uiso   1.00
O996   O     0.53035   0.75000   0.88219   0.00000  Uiso   1.00
O997   O     0.96964   0.75000   0.11781   0.00000  Uiso   1.00
O998   O     0.75000   0.96965   0.88219   0.00000  Uiso   1.00
O999   O     0.75000   0.53036   0.11781   0.00000  Uiso   1.00
O1000  O     0.96964   0.75000   0.88219   0.00000  Uiso   1.00
O1001  O     0.50000   0.75000   0.75000   0.00000  Uiso   1.00
O1002  O     0.53035   0.75000   0.11781   0.00000  Uiso   1.00
O1003  O     0.54267   0.67692   0.28474   0.00000  Uiso   1.00
O1004  O     0.95732   0.82308   0.71526   0.00000  Uiso   1.00
O1005  O     0.67692   0.95733   0.28474   0.00000  Uiso   1.00
O1006  O     0.82307   0.54268   0.71526   0.00000  Uiso   1.00
O1007  O     0.95732   0.82308   0.28474   0.00000  Uiso   1.00
O1008  O     0.54267   0.67692   0.71526   0.00000  Uiso   1.00
O1009  O     0.82307   0.54268   0.28474   0.00000  Uiso   1.00
O1010  O     0.67692   0.95733   0.71526   0.00000  Uiso   1.00
O1011  O     0.54267   0.82307   0.71526   0.00000  Uiso   1.00
O1012  O     0.75000   0.50000   0.25000   0.00000  Uiso   1.00
O1013  O     0.95732   0.67693   0.28474   0.00000  Uiso   1.00
O1014  O     0.67692   0.54268   0.71526   0.00000  Uiso   1.00
O1015  O     0.82307   0.95733   0.28474   0.00000  Uiso   1.00
O1016  O     0.95732   0.67693   0.71526   0.00000  Uiso   1.00
O1017  O     0.54267   0.82307   0.28474   0.00000  Uiso   1.00
O1018  O     0.82307   0.95733   0.71526   0.00000  Uiso   1.00
O1019  O     0.67692   0.54268   0.28474   0.00000  Uiso   1.00
O1020  O     0.79267   0.92693   0.78474   0.00000  Uiso   1.00
O1021  O     0.70732   0.57308   0.21526   0.00000  Uiso   1.00
O1022  O     0.92692   0.70733   0.78474   0.00000  Uiso   1.00
O1023  O     0.75000   0.50000   0.75000   0.00000  Uiso   1.00
O1024  O     0.57307   0.79267   0.21526   0.00000  Uiso   1.00
O1025  O     0.70732   0.57308   0.78474   0.00000  Uiso   1.00
O1026  O     0.79267   0.92693   0.21526   0.00000  Uiso   1.00
O1027  O     0.57307   0.79267   0.78474   0.00000  Uiso   1.00
O1028  O     0.92692   0.70733   0.21526   0.00000  Uiso   1.00
O1029  O     0.79267   0.57308   0.21526   0.00000  Uiso   1.00
O1030  O     0.70732   0.92693   0.78474   0.00000  Uiso   1.00
O1031  O     0.92692   0.79268   0.21526   0.00000  Uiso   1.00
O1032  O     0.57307   0.70732   0.78474   0.00000  Uiso   1.00
O1033  O     0.70732   0.92693   0.21526   0.00000  Uiso   1.00
O1034  O     0.50000   0.78035   0.38219   0.00000  Uiso   1.00
O1035  O     0.79267   0.57308   0.78474   0.00000  Uiso   1.00
O1036  O     0.57307   0.70732   0.21526   0.00000  Uiso   1.00
O1037  O     0.92692   0.79268   0.78474   0.00000  Uiso   1.00
O1038  O     0.55910   0.89282   0.13253   0.00000  Uiso   1.00
O1039  O     0.57623   0.83421   0.11474   0.00000  Uiso   1.00
O1040  O     0.95307   0.59014   0.83451   0.00000  Uiso   1.00
O1041  O     0.94845   0.64921   0.86410   0.00000  Uiso   1.00
O1042  O     0.90041   0.94532   0.14220   0.00000  Uiso   1.00
O1043  O     0.84084   0.93420   0.12118   0.00000  Uiso   1.00
O1044  O     0.58384   0.53828   0.79836   0.00000  Uiso   1.00
O1045  O     0.50000   0.71965   0.61781   0.00000  Uiso   1.00
O1046  O     0.63828   0.54046   0.84633   0.00000  Uiso   1.00
O1047  O     0.97311   0.61655   0.21362   0.00000  Uiso   1.00
O1048  O     0.94301   0.60034   0.12938   0.00000  Uiso   1.00
O1049  O     0.54038   0.86629   0.83858   0.00000  Uiso   1.00
O1050  O     0.58574   0.87105   0.90687   0.00000  Uiso   1.00
O1051  O     0.62526   0.53308   0.18277   0.00000  Uiso   1.00
O1052  O     0.61573   0.57209   0.10572   0.00000  Uiso   1.00
O1053  O     0.86057   0.95379   0.84960   0.00000  Uiso   1.00
O1054  O     0.86275   0.90473   0.91129   0.00000  Uiso   1.00
O1055  O     0.52689   0.61655   0.78638   0.00000  Uiso   1.00
O1056  O     0.78035   0.50000   0.38219   0.00000  Uiso   1.00
O1057  O     0.55699   0.60034   0.87063   0.00000  Uiso   1.00
O1058  O     0.95962   0.86629   0.16142   0.00000  Uiso   1.00
O1059  O     0.91426   0.87105   0.09314   0.00000  Uiso   1.00
O1060  O     0.87474   0.53308   0.81723   0.00000  Uiso   1.00
O1061  O     0.88427   0.57209   0.89428   0.00000  Uiso   1.00
O1062  O     0.63943   0.95379   0.15040   0.00000  Uiso   1.00
O1063  O     0.63725   0.90473   0.08871   0.00000  Uiso   1.00
O1064  O     0.94090   0.89282   0.86747   0.00000  Uiso   1.00
O1065  O     0.92377   0.83421   0.88527   0.00000  Uiso   1.00
O1066  O     0.54693   0.59014   0.16549   0.00000  Uiso   1.00
O1067  O     0.71964   0.50000   0.61781   0.00000  Uiso   1.00
O1068  O     0.55155   0.64921   0.13590   0.00000  Uiso   1.00
O1069  O     0.59959   0.94532   0.85780   0.00000  Uiso   1.00
O1070  O     0.65916   0.93420   0.87882   0.00000  Uiso   1.00
O1071  O     0.91616   0.53828   0.20164   0.00000  Uiso   1.00
O1072  O     0.86172   0.54046   0.15367   0.00000  Uiso   1.00
O1073  O     0.79693   0.65986   0.66549   0.00000  Uiso   1.00
O1074  O     0.80155   0.60079   0.63590   0.00000  Uiso   1.00
O1075  O     0.69090   0.85718   0.36747   0.00000  Uiso   1.00
O1076  O     0.67377   0.91579   0.38527   0.00000  Uiso   1.00
O1077  O     0.66616   0.71172   0.70164   0.00000  Uiso   1.00
O1078  O     0.50000   0.71964   0.38219   0.00000  Uiso   1.00
O1079  O     0.61172   0.70954   0.65367   0.00000  Uiso   1.00
O1080  O     0.84959   0.80468   0.35780   0.00000  Uiso   1.00
O1081  O     0.90916   0.81580   0.37882   0.00000  Uiso   1.00
O1082  O     0.70962   0.88371   0.66142   0.00000  Uiso   1.00
O1083  O     0.66426   0.87895   0.59314   0.00000  Uiso   1.00
O1084  O     0.77689   0.63345   0.28638   0.00000  Uiso   1.00
O1085  O     0.80699   0.64966   0.37063   0.00000  Uiso   1.00
O1086  O     0.88943   0.79621   0.65040   0.00000  Uiso   1.00
O1087  O     0.88725   0.84527   0.58871   0.00000  Uiso   1.00
O1088  O     0.62474   0.71692   0.31723   0.00000  Uiso   1.00
Zn1089 Zn    0.54333   0.75000   0.20067   0.00000  Uiso   1.00
Zn1090 Zn    0.70667   0.50000   0.29933   0.00000  Uiso   1.00
Zn1091 Zn    0.50000   0.70667   0.70067   0.00000  Uiso   1.00
Zn1092 Zn    0.50000   0.79333   0.29933   0.00000  Uiso   1.00
Zn1093 Zn    0.70667   0.50000   0.70067   0.00000  Uiso   1.00
Zn1094 Zn    0.79333   0.50000   0.29933   0.00000  Uiso   1.00
Zn1095 Zn    0.50000   0.79333   0.70067   0.00000  Uiso   1.00
Zn1096 Zn    0.50000   0.70667   0.29933   0.00000  Uiso   1.00
Zn1097 Zn    0.95667   0.75000   0.79933   0.00000  Uiso   1.00
Zn1098 Zn    0.75000   0.95667   0.20067   0.00000  Uiso   1.00
Zn1099 Zn    0.75000   0.54333   0.79933   0.00000  Uiso   1.00
Zn1100 Zn    0.95667   0.75000   0.20067   0.00000  Uiso   1.00
Zn1101 Zn    0.54333   0.75000   0.79933   0.00000  Uiso   1.00
Zn1102 Zn    0.75000   0.54333   0.20067   0.00000  Uiso   1.00
Zn1103 Zn    0.75000   0.95667   0.79933   0.00000  Uiso   1.00
Zn1104 Zn    0.79333   0.50000   0.70067   0.00000  Uiso   1.00
loop_
_geom_bond_atom_site_label_1
_geom_bond_atom_site_label_2
_geom_bond_distance
_geom_bond_site_symmetry_2
_ccdc_geom_bond_type
C1     C21     1.419   .     S
C1     C301    1.196   1_454 S
C2     O146    1.276   .     A
C2     C80     1.419   .     S
C2     O217    1.276   .     S
C3     C61     1.490   .     S
C3     O252    1.223   .     D
C3     O253    1.398   .     S
C4     O254    1.223   .     D
C4     C62     1.492   .     S
C4     O255    1.399   .     S
C5     O256    1.222   .     D
C5     C63     1.490   .     S
C5     O257    1.398   .     S
C6     O258    1.223   .     D
C6     O259    1.399   .     S
C6     C64     1.493   .     S
C7     O260    1.223   .     D
C7     O147    1.398   .     S
C7     C65     1.491   .     S
C8     O148    1.223   .     D
C8     C66     1.492   .     S
C8     O149    1.399   .     S
C9     O150    1.222   .     D
C9     O151    1.398   .     S
C9     C67     1.490   .     S
C10    O152    1.223   .     D
C10    O153    1.399   .     S
C10    C68     1.493   .     S
C11    C70     1.491   .     S
C11    O154    1.223   .     D
C11    O155    1.398   .     S
C12    O156    1.223   .     D
C12    C71     1.493   .     S
C12    O158    1.398   .     S
C13    O780    1.275   .     A
C13    O709    1.277   .     A
C13    C69     1.419   .     S
C14    O160    1.398   .     S
C14    C72     1.488   .     S
C14    O159    1.223   .     D
C15    O162    1.398   .     S
C15    C73     1.492   .     S
C15    O161    1.223   .     D
C16    O164    1.398   .     S
C16    O163    1.223   .     D
C16    C74     1.490   .     S
C17    O717    1.277   .     A
C17    O791    1.275   .     A
C17    C58     1.419   .     S
C18    C599    1.419   1_545 S
C18    O722    1.276   1_545 A
C18    O166    1.276   .     S
C19    C588    1.419   1_545 S
C19    O719    1.276   1_545 A
C19    O171    1.276   .     S
C20    C25     1.419   .     S
C20    O172    1.277   .     A
C20    O444    1.275   .     S
C21    O174    1.277   .     A
C21    O445    1.275   1_455 S
C22    O175    1.274   .     A
C22    C82     1.455   .     S
C22    O208    1.270   .     A
C23    C83     1.455   .     S
C23    O176    1.274   .     A
C23    O209    1.270   .     A
C24    O177    1.270   .     A
C24    O205    1.274   .     A
C24    C75     1.455   .     S
C25    C277    1.196   1_556 S
C26    O207    1.274   .     A
C26    O178    1.270   .     A
C26    C76     1.455   .     S
C27    O203    1.276   .     A
C27    O179    1.272   .     A
C27    C77     1.456   .     S
C28    C78     1.456   .     S
C28    O204    1.277   .     A
C28    O180    1.272   .     A
C29    C79     1.456   .     S
C29    O201    1.272   .     A
C29    O181    1.277   .     A
C30    O182    1.276   .     A
C30    C81     1.456   .     S
C30    O202    1.272   .     A
C31    O199    1.276   .     A
C31    O183    1.272   .     A
C31    C90     1.456   .     S
C32    O185    1.272   .     A
C32    O200    1.277   .     A
C32    C92     1.456   .     S
C33    O197    1.272   .     A
C33    O186    1.277   .     A
C33    C84     1.456   .     S
C34    O198    1.272   .     A
C34    C85     1.456   .     S
C34    O187    1.276   .     A
C35    C86     1.455   .     S
C35    O194    1.270   .     A
C35    O188    1.274   .     A
C36    C571    1.419   .     S
C36    C47     1.196   1_554 S
C37    O189    1.274   .     A
C37    C87     1.455   .     S
C37    O196    1.270   .     A
C38    O190    1.270   .     A
C38    O192    1.274   .     A
C38    C88     1.455   .     S
C39    O193    1.274   .     A
C39    C89     1.455   .     S
C39    O191    1.270   .     A
C40    C93     1.488   .     S
C40    C87     1.413   .     A
C40    C52     1.407   .     A
C41    C86     1.412   .     A
C41    C94     1.493   .     S
C41    C51     1.409   .     A
C42    C95     1.490   .     S
C42    C85     1.413   .     A
C42    C50     1.408   .     A
C43    C84     1.412   .     A
C43    C96     1.492   .     S
C43    C49     1.408   .     A
C44    C97     1.490   .     S
C44    C56     1.408   .     A
C44    C92     1.413   .     A
C45    C90     1.413   .     A
C45    C98     1.492   .     S
C45    C55     1.408   .     A
C46    C99     1.491   .     S
C46    C89     1.413   .     A
C46    C54     1.409   .     A
C47    C570    1.419   .     S
C47    C36     1.196   1_556 S
C48    C88     1.413   .     A
C48    C53     1.407   .     A
C48    C100    1.493   .     S
C49    C101    1.490   .     S
C49    C78     1.413   .     A
C50    C103    1.492   .     S
C50    C77     1.413   .     A
C51    C104    1.491   .     S
C51    C76     1.413   .     A
C52    C75     1.413   .     A
C52    C105    1.493   .     S
C53    C106    1.488   .     S
C53    C83     1.413   .     A
C54    C82     1.412   .     A
C54    C107    1.493   .     S
C55    C108    1.490   .     S
C55    C81     1.413   .     A
C56    C79     1.412   .     A
C56    C109    1.492   .     S
C57    C76     1.412   .     A
C57    C70     1.409   .     A
C57    C110    1.493   .     S
C58    C69     1.196   .     T
C59    C68     1.407   .     A
C59    C111    1.488   .     S
C59    C75     1.413   .     A
C60    C78     1.412   .     A
C60    C67     1.408   .     A
C60    C112    1.492   .     S
C61    C77     1.413   .     A
C61    C66     1.408   .     A
C62    C81     1.413   .     A
C62    C74     1.408   .     A
C63    C79     1.413   .     A
C63    C73     1.408   .     A
C64    C83     1.413   .     A
C64    C72     1.407   .     A
C65    C71     1.409   .     A
C65    C82     1.413   .     A
C66    C85     1.413   .     A
C67    C84     1.413   .     A
C68    C87     1.413   .     A
C70    C86     1.413   .     A
C71    C89     1.412   .     A
C72    C88     1.413   .     A
C73    C92     1.412   .     A
C74    C90     1.413   .     A
C80    C91     1.196   .     S
C91    C378    1.419   1_455 S
C93    O211    1.398   .     S
C93    O210    1.223   .     D
C94    O212    1.223   .     D
C94    O213    1.398   .     S
C95    O215    1.398   .     S
C95    O214    1.223   .     D
C96    O218    1.398   .     S
C96    O216    1.223   .     D
C97    O220    1.398   .     S
C97    O219    1.222   .     D
C98    O221    1.223   .     D
C98    O222    1.399   .     S
C99    O223    1.223   .     D
C99    O224    1.398   .     S
C100   O226    1.399   .     S
C100   O225    1.223   .     D
C101   O227    1.222   .     D
C101   O229    1.398   .     S
C102   C367    1.419   .     S
C102   O482    1.276   .     S
C102   O526    1.276   .     S
C103   O230    1.223   .     D
C103   O231    1.399   .     S
C104   O232    1.223   .     D
C104   O233    1.398   .     S
C105   O234    1.223   .     D
C105   O235    1.399   .     S
C106   O237    1.398   .     S
C106   O236    1.223   .     D
C107   O238    1.223   .     D
C107   O240    1.398   .     S
C108   O241    1.223   .     D
C108   O242    1.398   .     S
C109   O243    1.223   .     D
C109   O244    1.398   .     S
C110   O246    1.398   .     S
C110   O245    1.223   .     D
C111   O247    1.223   .     D
C111   O248    1.398   .     S
C112   O249    1.223   .     D
C112   O251    1.398   .     S
H113   O211    1.014   .     S
H114   O231    1.014   .     S
H115   O233    1.014   .     S
H116   O235    1.014   .     S
H117   O237    1.014   .     S
H118   O240    1.014   .     S
H119   O242    1.014   .     S
H120   O244    1.013   .     S
H121   O246    1.014   .     S
H122   O248    1.014   .     S
H123   O251    1.013   .     S
H124   O213    1.014   .     S
H125   O253    1.014   .     S
H126   O255    1.014   .     S
H127   O257    1.014   .     S
H128   O259    1.014   .     S
H129   O147    1.014   .     S
H130   O149    1.014   .     S
H131   O151    1.014   .     S
H132   O153    1.014   .     S
H133   O155    1.014   .     S
H134   O158    1.014   .     S
H135   O215    1.014   .     S
H136   O160    1.014   .     S
H137   O162    1.013   .     S
H138   O164    1.014   .     S
H139   O218    1.013   .     S
H140   O220    1.014   .     S
H141   O222    1.014   .     S
H142   O224    1.014   .     S
H143   O226    1.014   .     S
H144   O229    1.014   .     S
O145   Zn264   1.935   .     S
O145   Zn261   1.931   .     S
O145   Zn268   1.935   .     S
O145   Zn548   1.938   1_455 S
O146   Zn267   1.919   .     S
O157   Zn262   1.921   .     S
O157   C565    1.277   1_545 A
O165   C569    1.277   1_545 A
O165   Zn276   1.921   .     S
O166   Zn271   1.919   .     S
O167   Zn270   1.919   .     S
O167   C571    1.276   .     A
O168   Zn273   1.917   .     S
O168   C296    1.275   1_455 S
O169   Zn272   1.917   .     S
O169   C297    1.275   .     S
O170   Zn275   1.919   .     S
O170   C570    1.276   .     A
O171   Zn274   1.919   .     S
O172   Zn269   1.921   .     S
O173   Zn273   1.938   .     S
O173   Zn263   1.935   .     S
O173   Zn267   1.935   .     S
O173   Zn545   1.931   1_455 S
O174   Zn261   1.921   .     S
O175   Zn268   1.932   .     S
O176   Zn543   1.932   .     S
O177   Zn814   1.934   .     S
O178   Zn276   1.934   .     S
O179   Zn540   1.934   .     S
O180   Zn263   1.934   .     S
O181   Zn266   1.933   .     S
O182   Zn817   1.933   .     S
O183   Zn267   1.934   .     S
O184   Zn266   1.938   .     S
O184   Zn262   1.931   .     S
O184   Zn822   1.935   1_545 S
O184   Zn274   1.935   .     S
O185   Zn544   1.934   .     S
O186   Zn265   1.933   .     S
O187   Zn818   1.933   .     S
O188   Zn539   1.932   .     S
O189   Zn264   1.932   .     S
O190   Zn828   1.934   .     S
O191   Zn262   1.934   .     S
O192   Zn275   1.932   .     S
O193   Zn274   1.932   .     S
O194   Zn269   1.934   .     S
O195   Zn827   1.935   1_545 S
O195   Zn265   1.938   .     S
O195   Zn271   1.935   .     S
O195   Zn276   1.931   .     S
O196   Zn261   1.934   .     S
O197   Zn271   1.934   .     S
O198   Zn270   1.934   .     S
O199   Zn273   1.933   .     S
O200   Zn272   1.933   .     S
O201   Zn274   1.934   .     S
O202   Zn275   1.934   .     S
O203   Zn272   1.933   .     S
O204   Zn273   1.933   .     S
O205   Zn270   1.932   .     S
O206   Zn264   1.919   .     S
O206   C378    1.276   1_455 S
O207   Zn271   1.932   .     S
O208   Zn261   1.934   .     S
O209   Zn269   1.934   .     S
O217   Zn263   1.919   .     S
O228   C565    1.275   1_545 A
O228   Zn266   1.917   .     S
O239   C569    1.275   1_545 A
O239   Zn265   1.917   .     S
O250   Zn268   1.919   .     S
O250   C378    1.276   1_455 S
Zn262  O729    1.934   1_545 S
Zn263  O464    1.932   1_455 S
Zn264  O455    1.934   1_455 S
Zn265  O734    1.933   1_545 S
Zn266  O739    1.933   1_545 S
Zn267  O452    1.932   1_455 S
Zn268  O461    1.934   1_455 S
Zn269  O449    1.931   .     S
Zn270  O736    1.935   .     S
Zn272  O421    1.938   .     S
Zn275  O747    1.935   .     S
Zn276  O742    1.934   1_545 S
C277   C297    1.419   .     S
C277   C25     1.196   1_554 S
C278   O422    1.276   .     A
C278   C356    1.419   .     S
C278   O493    1.276   .     S
C279   C337    1.490   .     S
C279   O528    1.223   .     D
C279   O529    1.398   .     S
C280   O530    1.223   .     D
C280   C338    1.492   .     S
C280   O531    1.399   .     S
C281   O532    1.222   .     D
C281   C339    1.490   .     S
C281   O533    1.398   .     S
C282   O534    1.223   .     D
C282   O535    1.399   .     S
C282   C340    1.493   .     S
C283   O536    1.223   .     D
C283   O423    1.398   .     S
C283   C341    1.491   .     S
C284   O424    1.223   .     D
C284   C342    1.492   .     S
C284   O425    1.399   .     S
C285   O426    1.222   .     D
C285   O427    1.398   .     S
C285   C343    1.490   .     S
C286   O428    1.223   .     D
C286   O429    1.399   .     S
C286   C344    1.493   .     S
C287   C346    1.491   .     S
C287   O430    1.223   .     D
C287   O431    1.398   .     S
C288   O432    1.223   .     D
C288   C347    1.493   .     S
C288   O434    1.398   .     S
C289   O1056   1.275   .     A
C289   O985    1.277   .     A
C289   C345    1.419   .     S
C290   O436    1.398   .     S
C290   C348    1.488   .     S
C290   O435    1.223   .     D
C291   O438    1.398   .     S
C291   C349    1.492   .     S
C291   O437    1.223   .     D
C292   O440    1.398   .     S
C292   O439    1.223   .     D
C292   C350    1.490   .     S
C293   O993    1.277   .     A
C293   O1067   1.275   .     A
C293   C334    1.419   .     S
C294   C875    1.419   1_545 S
C294   O998    1.276   1_545 A
C294   O442    1.276   .     S
C295   C864    1.419   1_545 S
C295   O995    1.276   1_545 A
C295   O447    1.276   .     S
C296   C301    1.419   .     S
C296   O448    1.277   .     A
C296   O168    1.275   1_655 S
C297   O450    1.277   .     A
C298   O451    1.274   .     A
C298   C358    1.455   .     S
C298   O484    1.270   .     A
C299   C359    1.455   .     S
C299   O452    1.274   .     A
C299   O485    1.270   .     A
C300   O453    1.270   .     A
C300   O481    1.274   .     A
C300   C351    1.455   .     S
C301   C1      1.196   1_656 S
C302   O483    1.274   .     A
C302   O454    1.270   .     A
C302   C352    1.455   .     S
C303   O479    1.276   .     A
C303   O455    1.272   .     A
C303   C353    1.456   .     S
C304   C354    1.456   .     S
C304   O480    1.277   .     A
C304   O456    1.272   .     A
C305   C355    1.456   .     S
C305   O477    1.272   .     A
C305   O457    1.277   .     A
C306   O458    1.276   .     A
C306   C357    1.456   .     S
C306   O478    1.272   .     A
C307   O475    1.276   .     A
C307   O459    1.272   .     A
C307   C366    1.456   .     S
C308   O461    1.272   .     A
C308   O476    1.277   .     A
C308   C368    1.456   .     S
C309   O473    1.272   .     A
C309   O462    1.277   .     A
C309   C360    1.456   .     S
C310   O474    1.272   .     A
C310   C361    1.456   .     S
C310   O463    1.276   .     A
C311   C362    1.455   .     S
C311   O470    1.270   .     A
C311   O464    1.274   .     A
C312   C847    1.419   .     S
C312   C323    1.196   1_554 S
C313   O465    1.274   .     A
C313   C363    1.455   .     S
C313   O472    1.270   .     A
C314   O466    1.270   .     A
C314   O468    1.274   .     A
C314   C364    1.455   .     S
C315   O469    1.274   .     A
C315   C365    1.455   .     S
C315   O467    1.270   .     A
C316   C369    1.488   .     S
C316   C363    1.413   .     A
C316   C328    1.407   .     A
C317   C362    1.412   .     A
C317   C370    1.493   .     S
C317   C327    1.409   .     A
C318   C371    1.490   .     S
C318   C361    1.413   .     A
C318   C326    1.408   .     A
C319   C360    1.412   .     A
C319   C372    1.492   .     S
C319   C325    1.408   .     A
C320   C373    1.490   .     S
C320   C332    1.408   .     A
C320   C368    1.413   .     A
C321   C366    1.413   .     A
C321   C374    1.492   .     S
C321   C331    1.408   .     A
C322   C375    1.491   .     S
C322   C365    1.413   .     A
C322   C330    1.409   .     A
C323   C846    1.419   .     S
C323   C312    1.196   1_556 S
C324   C364    1.413   .     A
C324   C329    1.407   .     A
C324   C376    1.493   .     S
C325   C377    1.490   .     S
C325   C354    1.413   .     A
C326   C379    1.492   .     S
C326   C353    1.413   .     A
C327   C380    1.491   .     S
C327   C352    1.413   .     A
C328   C351    1.413   .     A
C328   C381    1.493   .     S
C329   C382    1.488   .     S
C329   C359    1.413   .     A
C330   C358    1.412   .     A
C330   C383    1.493   .     S
C331   C384    1.490   .     S
C331   C357    1.413   .     A
C332   C355    1.412   .     A
C332   C385    1.492   .     S
C333   C352    1.412   .     A
C333   C346    1.409   .     A
C333   C386    1.493   .     S
C334   C345    1.196   .     T
C335   C344    1.407   .     A
C335   C387    1.488   .     S
C335   C351    1.413   .     A
C336   C354    1.412   .     A
C336   C343    1.408   .     A
C336   C388    1.492   .     S
C337   C353    1.413   .     A
C337   C342    1.408   .     A
C338   C357    1.413   .     A
C338   C350    1.408   .     A
C339   C355    1.413   .     A
C339   C349    1.408   .     A
C340   C359    1.413   .     A
C340   C348    1.407   .     A
C341   C347    1.409   .     A
C341   C358    1.413   .     A
C342   C361    1.413   .     A
C343   C360    1.413   .     A
C344   C363    1.413   .     A
C346   C362    1.413   .     A
C347   C365    1.412   .     A
C348   C364    1.413   .     A
C349   C368    1.412   .     A
C350   C366    1.413   .     A
C356   C367    1.196   .     S
C369   O487    1.398   .     S
C369   O486    1.223   .     D
C370   O488    1.223   .     D
C370   O489    1.398   .     S
C371   O491    1.398   .     S
C371   O490    1.223   .     D
C372   O494    1.398   .     S
C372   O492    1.223   .     D
C373   O496    1.398   .     S
C373   O495    1.222   .     D
C374   O497    1.223   .     D
C374   O498    1.399   .     S
C375   O499    1.223   .     D
C375   O500    1.398   .     S
C376   O502    1.399   .     S
C376   O501    1.223   .     D
C377   O503    1.222   .     D
C377   O505    1.398   .     S
C378   C91     1.419   1_655 S
C378   O206    1.276   1_655 S
C378   O250    1.276   1_655 S
C379   O506    1.223   .     D
C379   O507    1.399   .     S
C380   O508    1.223   .     D
C380   O509    1.398   .     S
C381   O510    1.223   .     D
C381   O511    1.399   .     S
C382   O513    1.398   .     S
C382   O512    1.223   .     D
C383   O514    1.223   .     D
C383   O516    1.398   .     S
C384   O517    1.223   .     D
C384   O518    1.398   .     S
C385   O519    1.223   .     D
C385   O520    1.398   .     S
C386   O522    1.398   .     S
C386   O521    1.223   .     D
C387   O523    1.223   .     D
C387   O524    1.398   .     S
C388   O525    1.223   .     D
C388   O527    1.398   .     S
H389   O487    1.014   .     S
H390   O507    1.014   .     S
H391   O509    1.014   .     S
H392   O511    1.014   .     S
H393   O513    1.014   .     S
H394   O516    1.014   .     S
H395   O518    1.014   .     S
H396   O520    1.013   .     S
H397   O522    1.014   .     S
H398   O524    1.014   .     S
H399   O527    1.013   .     S
H400   O489    1.014   .     S
H401   O529    1.014   .     S
H402   O531    1.014   .     S
H403   O533    1.014   .     S
H404   O535    1.014   .     S
H405   O423    1.014   .     S
H406   O425    1.014   .     S
H407   O427    1.014   .     S
H408   O429    1.014   .     S
H409   O431    1.014   .     S
H410   O434    1.014   .     S
H411   O491    1.014   .     S
H412   O436    1.014   .     S
H413   O438    1.013   .     S
H414   O440    1.014   .     S
H415   O494    1.013   .     S
H416   O496    1.014   .     S
H417   O498    1.014   .     S
H418   O500    1.014   .     S
H419   O502    1.014   .     S
H420   O505    1.014   .     S
O421   Zn540   1.935   .     S
O421   Zn537   1.931   .     S
O421   Zn544   1.935   .     S
O422   Zn543   1.919   .     S
O433   Zn538   1.921   .     S
O433   C841    1.277   1_545 A
O441   C845    1.277   1_545 A
O441   Zn552   1.921   .     S
O442   Zn547   1.919   .     S
O443   Zn546   1.919   .     S
O443   C847    1.276   .     A
O444   Zn549   1.917   .     S
O445   Zn548   1.917   .     S
O445   C21     1.275   1_655 S
O446   Zn551   1.919   .     S
O446   C846    1.276   .     A
O447   Zn550   1.919   .     S
O448   Zn545   1.921   .     S
O449   Zn549   1.938   .     S
O449   Zn539   1.935   .     S
O449   Zn543   1.935   .     S
O450   Zn537   1.921   .     S
O451   Zn544   1.932   .     S
O452   Zn267   1.932   1_655 S
O453   Zn1090  1.934   .     S
O454   Zn552   1.934   .     S
O455   Zn264   1.934   1_655 S
O456   Zn539   1.934   .     S
O457   Zn542   1.933   .     S
O458   Zn1093  1.933   .     S
O459   Zn543   1.934   .     S
O460   Zn542   1.938   .     S
O460   Zn538   1.931   .     S
O460   Zn1098  1.935   1_545 S
O460   Zn550   1.935   .     S
O461   Zn268   1.934   1_655 S
O462   Zn541   1.933   .     S
O463   Zn1094  1.933   .     S
O464   Zn263   1.932   1_655 S
O465   Zn540   1.932   .     S
O466   Zn1104  1.934   .     S
O467   Zn538   1.934   .     S
O468   Zn551   1.932   .     S
O469   Zn550   1.932   .     S
O470   Zn545   1.934   .     S
O471   Zn1103  1.935   1_545 S
O471   Zn541   1.938   .     S
O471   Zn547   1.935   .     S
O471   Zn552   1.931   .     S
O472   Zn537   1.934   .     S
O473   Zn547   1.934   .     S
O474   Zn546   1.934   .     S
O475   Zn549   1.933   .     S
O476   Zn548   1.933   .     S
O477   Zn550   1.934   .     S
O478   Zn551   1.934   .     S
O479   Zn548   1.933   .     S
O480   Zn549   1.933   .     S
O481   Zn546   1.932   .     S
O482   Zn540   1.919   .     S
O483   Zn547   1.932   .     S
O484   Zn537   1.934   .     S
O485   Zn545   1.934   .     S
O493   Zn539   1.919   .     S
O504   C841    1.275   1_545 A
O504   Zn542   1.917   .     S
O515   C845    1.275   1_545 A
O515   Zn541   1.917   .     S
O526   Zn544   1.919   .     S
Zn538  O1005   1.934   1_545 S
Zn541  O1010   1.933   1_545 S
Zn542  O1015   1.933   1_545 S
Zn545  O173    1.931   1_655 S
Zn546  O1012   1.935   .     S
Zn548  O145    1.938   1_655 S
Zn551  O1023   1.935   .     S
Zn552  O1018   1.934   1_545 S
C553   C573    1.419   .     S
C553   C853    1.196   1_454 S
C554   O698    1.276   .     A
C554   C632    1.419   .     S
C554   O769    1.276   .     S
C555   C613    1.490   .     S
C555   O804    1.223   .     D
C555   O805    1.398   .     S
C556   O806    1.223   .     D
C556   C614    1.492   .     S
C556   O807    1.399   .     S
C557   O808    1.222   .     D
C557   C615    1.490   .     S
C557   O809    1.398   .     S
C558   O810    1.223   .     D
C558   O811    1.399   .     S
C558   C616    1.493   .     S
C559   O812    1.223   .     D
C559   O699    1.398   .     S
C559   C617    1.491   .     S
C560   O700    1.223   .     D
C560   C618    1.492   .     S
C560   O701    1.399   .     S
C561   O702    1.222   .     D
C561   O703    1.398   .     S
C561   C619    1.490   .     S
C562   O704    1.223   .     D
C562   O705    1.399   .     S
C562   C620    1.493   .     S
C563   C622    1.491   .     S
C563   O706    1.223   .     D
C563   O707    1.398   .     S
C564   O708    1.223   .     D
C564   C623    1.493   .     S
C564   O710    1.398   .     S
C565   O228    1.275   1_565 A
C565   O157    1.277   1_565 A
C565   C621    1.419   .     S
C566   O712    1.398   .     S
C566   C624    1.488   .     S
C566   O711    1.223   .     D
C567   O714    1.398   .     S
C567   C625    1.492   .     S
C567   O713    1.223   .     D
C568   O716    1.398   .     S
C568   O715    1.223   .     D
C568   C626    1.490   .     S
C569   O165    1.277   1_565 A
C569   O239    1.275   1_565 A
C569   C610    1.419   .     S
C570   O718    1.276   .     S
C571   O723    1.276   .     S
C572   C577    1.419   .     S
C572   O724    1.277   .     A
C572   O996    1.275   .     S
C573   O726    1.277   .     A
C573   O997    1.275   1_455 S
C574   O727    1.274   .     A
C574   C634    1.455   .     S
C574   O760    1.270   .     A
C575   C635    1.455   .     S
C575   O728    1.274   .     A
C575   O761    1.270   .     A
C576   O729    1.270   .     A
C576   O757    1.274   .     A
C576   C627    1.455   .     S
C577   C829    1.196   1_556 S
C578   O759    1.274   .     A
C578   O730    1.270   .     A
C578   C628    1.455   .     S
C579   O755    1.276   .     A
C579   O731    1.272   .     A
C579   C629    1.456   .     S
C580   C630    1.456   .     S
C580   O756    1.277   .     A
C580   O732    1.272   .     A
C581   C631    1.456   .     S
C581   O753    1.272   .     A
C581   O733    1.277   .     A
C582   O734    1.276   .     A
C582   C633    1.456   .     S
C582   O754    1.272   .     A
C583   O751    1.276   .     A
C583   O735    1.272   .     A
C583   C642    1.456   .     S
C584   O737    1.272   .     A
C584   O752    1.277   .     A
C584   C644    1.456   .     S
C585   O749    1.272   .     A
C585   O738    1.277   .     A
C585   C636    1.456   .     S
C586   O750    1.272   .     A
C586   C637    1.456   .     S
C586   O739    1.276   .     A
C587   C638    1.455   .     S
C587   O746    1.270   .     A
C587   O740    1.274   .     A
C588   C19     1.419   1_565 S
C588   C599    1.196   1_554 S
C589   O741    1.274   .     A
C589   C639    1.455   .     S
C589   O748    1.270   .     A
C590   O742    1.270   .     A
C590   O744    1.274   .     A
C590   C640    1.455   .     S
C591   O745    1.274   .     A
C591   C641    1.455   .     S
C591   O743    1.270   .     A
C592   C645    1.488   .     S
C592   C639    1.413   .     A
C592   C604    1.407   .     A
C593   C638    1.412   .     A
C593   C646    1.493   .     S
C593   C603    1.409   .     A
C594   C647    1.490   .     S
C594   C637    1.413   .     A
C594   C602    1.408   .     A
C595   C636    1.412   .     A
C595   C648    1.492   .     S
C595   C601    1.408   .     A
C596   C649    1.490   .     S
C596   C608    1.408   .     A
C596   C644    1.413   .     A
C597   C642    1.413   .     A
C597   C650    1.492   .     S
C597   C607    1.408   .     A
C598   C651    1.491   .     S
C598   C641    1.413   .     A
C598   C606    1.409   .     A
C599   C18     1.419   1_565 S
C599   C588    1.196   1_556 S
C600   C640    1.413   .     A
C600   C605    1.407   .     A
C600   C652    1.493   .     S
C601   C653    1.490   .     S
C601   C630    1.413   .     A
C602   C655    1.492   .     S
C602   C629    1.413   .     A
C603   C656    1.491   .     S
C603   C628    1.413   .     A
C604   C627    1.413   .     A
C604   C657    1.493   .     S
C605   C658    1.488   .     S
C605   C635    1.413   .     A
C606   C634    1.412   .     A
C606   C659    1.493   .     S
C607   C660    1.490   .     S
C607   C633    1.413   .     A
C608   C631    1.412   .     A
C608   C661    1.492   .     S
C609   C628    1.412   .     A
C609   C622    1.409   .     A
C609   C662    1.493   .     S
C610   C621    1.196   .     T
C611   C620    1.407   .     A
C611   C663    1.488   .     S
C611   C627    1.413   .     A
C612   C630    1.412   .     A
C612   C619    1.408   .     A
C612   C664    1.492   .     S
C613   C629    1.413   .     A
C613   C618    1.408   .     A
C614   C633    1.413   .     A
C614   C626    1.408   .     A
C615   C631    1.413   .     A
C615   C625    1.408   .     A
C616   C635    1.413   .     A
C616   C624    1.407   .     A
C617   C623    1.409   .     A
C617   C634    1.413   .     A
C618   C637    1.413   .     A
C619   C636    1.413   .     A
C620   C639    1.413   .     A
C622   C638    1.413   .     A
C623   C641    1.412   .     A
C624   C640    1.413   .     A
C625   C644    1.412   .     A
C626   C642    1.413   .     A
C632   C643    1.196   .     S
C643   C930    1.419   1_455 S
C645   O763    1.398   .     S
C645   O762    1.223   .     D
C646   O764    1.223   .     D
C646   O765    1.398   .     S
C647   O767    1.398   .     S
C647   O766    1.223   .     D
C648   O770    1.398   .     S
C648   O768    1.223   .     D
C649   O772    1.398   .     S
C649   O771    1.222   .     D
C650   O773    1.223   .     D
C650   O774    1.399   .     S
C651   O775    1.223   .     D
C651   O776    1.398   .     S
C652   O778    1.399   .     S
C652   O777    1.223   .     D
C653   O779    1.222   .     D
C653   O781    1.398   .     S
C654   C919    1.419   .     S
C654   O1034   1.276   .     S
C654   O1078   1.276   .     S
C655   O782    1.223   .     D
C655   O783    1.399   .     S
C656   O784    1.223   .     D
C656   O785    1.398   .     S
C657   O786    1.223   .     D
C657   O787    1.399   .     S
C658   O789    1.398   .     S
C658   O788    1.223   .     D
C659   O790    1.223   .     D
C659   O792    1.398   .     S
C660   O793    1.223   .     D
C660   O794    1.398   .     S
C661   O795    1.223   .     D
C661   O796    1.398   .     S
C662   O798    1.398   .     S
C662   O797    1.223   .     D
C663   O799    1.223   .     D
C663   O800    1.398   .     S
C664   O801    1.223   .     D
C664   O803    1.398   .     S
H665   O763    1.014   .     S
H666   O783    1.014   .     S
H667   O785    1.014   .     S
H668   O787    1.014   .     S
H669   O789    1.014   .     S
H670   O792    1.014   .     S
H671   O794    1.014   .     S
H672   O796    1.013   .     S
H673   O798    1.014   .     S
H674   O800    1.014   .     S
H675   O803    1.013   .     S
H676   O765    1.014   .     S
H677   O805    1.014   .     S
H678   O807    1.014   .     S
H679   O809    1.014   .     S
H680   O811    1.014   .     S
H681   O699    1.014   .     S
H682   O701    1.014   .     S
H683   O703    1.014   .     S
H684   O705    1.014   .     S
H685   O707    1.014   .     S
H686   O710    1.014   .     S
H687   O767    1.014   .     S
H688   O712    1.014   .     S
H689   O714    1.013   .     S
H690   O716    1.014   .     S
H691   O770    1.013   .     S
H692   O772    1.014   .     S
H693   O774    1.014   .     S
H694   O776    1.014   .     S
H695   O778    1.014   .     S
H696   O781    1.014   .     S
O697   Zn816   1.935   .     S
O697   Zn813   1.931   .     S
O697   Zn820   1.935   .     S
O697   Zn1100  1.938   1_455 S
O698   Zn819   1.919   .     S
O709   Zn814   1.921   .     S
O717   Zn828   1.921   .     S
O718   Zn823   1.919   .     S
O719   Zn822   1.919   .     S
O719   C19     1.276   1_565 A
O720   Zn825   1.917   .     S
O720   C848    1.275   1_455 S
O721   Zn824   1.917   .     S
O721   C849    1.275   .     S
O722   Zn827   1.919   .     S
O722   C18     1.276   1_565 A
O723   Zn826   1.919   .     S
O724   Zn821   1.921   .     S
O725   Zn825   1.938   .     S
O725   Zn815   1.935   .     S
O725   Zn819   1.935   .     S
O725   Zn1097  1.931   1_455 S
O726   Zn813   1.921   .     S
O727   Zn820   1.932   .     S
O728   Zn1095  1.932   .     S
O729   Zn262   1.934   1_565 S
O730   Zn828   1.934   .     S
O731   Zn1092  1.934   .     S
O732   Zn815   1.934   .     S
O733   Zn818   1.933   .     S
O734   Zn265   1.933   1_565 S
O735   Zn819   1.934   .     S
O736   Zn818   1.938   .     S
O736   Zn814   1.931   .     S
O736   Zn826   1.935   .     S
O737   Zn1096  1.934   .     S
O738   Zn817   1.933   .     S
O739   Zn266   1.933   1_565 S
O740   Zn1091  1.932   .     S
O741   Zn816   1.932   .     S
O742   Zn276   1.934   1_565 S
O743   Zn814   1.934   .     S
O744   Zn827   1.932   .     S
O745   Zn826   1.932   .     S
O746   Zn821   1.934   .     S
O747   Zn817   1.938   .     S
O747   Zn823   1.935   .     S
O747   Zn828   1.931   .     S
O748   Zn813   1.934   .     S
O749   Zn823   1.934   .     S
O750   Zn822   1.934   .     S
O751   Zn825   1.933   .     S
O752   Zn824   1.933   .     S
O753   Zn826   1.934   .     S
O754   Zn827   1.934   .     S
O755   Zn824   1.933   .     S
O756   Zn825   1.933   .     S
O757   Zn822   1.932   .     S
O758   Zn816   1.919   .     S
O758   C930    1.276   1_455 S
O759   Zn823   1.932   .     S
O760   Zn813   1.934   .     S
O761   Zn821   1.934   .     S
O769   Zn815   1.919   .     S
O780   Zn818   1.917   .     S
O791   Zn817   1.917   .     S
O802   Zn820   1.919   .     S
O802   C930    1.276   1_455 S
Zn815  O1016   1.932   1_455 S
Zn816  O1007   1.934   1_455 S
Zn819  O1004   1.932   1_455 S
Zn820  O1013   1.934   1_455 S
Zn821  O1001   1.931   .     S
Zn822  O184    1.935   1_565 S
Zn824  O973    1.938   .     S
Zn827  O195    1.935   1_565 S
C829   C849    1.419   .     S
C829   C577    1.196   1_554 S
C830   O974    1.276   .     A
C830   C908    1.419   .     S
C830   O1045   1.276   .     S
C831   C889    1.490   .     S
C831   O1080   1.223   .     D
C831   O1081   1.398   .     S
C832   O1082   1.223   .     D
C832   C890    1.492   .     S
C832   O1083   1.399   .     S
C833   O1084   1.222   .     D
C833   C891    1.490   .     S
C833   O1085   1.398   .     S
C834   O1086   1.223   .     D
C834   O1087   1.399   .     S
C834   C892    1.493   .     S
C835   O1088   1.223   .     D
C835   O975    1.398   .     S
C835   C893    1.491   .     S
C836   O976    1.223   .     D
C836   C894    1.492   .     S
C836   O977    1.399   .     S
C837   O978    1.222   .     D
C837   O979    1.398   .     S
C837   C895    1.490   .     S
C838   O980    1.223   .     D
C838   O981    1.399   .     S
C838   C896    1.493   .     S
C839   C898    1.491   .     S
C839   O982    1.223   .     D
C839   O983    1.398   .     S
C840   O984    1.223   .     D
C840   C899    1.493   .     S
C840   O986    1.398   .     S
C841   O504    1.275   1_565 A
C841   O433    1.277   1_565 A
C841   C897    1.419   .     S
C842   O988    1.398   .     S
C842   C900    1.488   .     S
C842   O987    1.223   .     D
C843   O990    1.398   .     S
C843   C901    1.492   .     S
C843   O989    1.223   .     D
C844   O992    1.398   .     S
C844   O991    1.223   .     D
C844   C902    1.490   .     S
C845   O441    1.277   1_565 A
C845   O515    1.275   1_565 A
C845   C886    1.419   .     S
C846   O994    1.276   .     S
C847   O999    1.276   .     S
C848   C853    1.419   .     S
C848   O1000   1.277   .     A
C848   O720    1.275   1_655 S
C849   O1002   1.277   .     A
C850   O1003   1.274   .     A
C850   C910    1.455   .     S
C850   O1036   1.270   .     A
C851   C911    1.455   .     S
C851   O1004   1.274   .     A
C851   O1037   1.270   .     A
C852   O1005   1.270   .     A
C852   O1033   1.274   .     A
C852   C903    1.455   .     S
C853   C553    1.196   1_656 S
C854   O1035   1.274   .     A
C854   O1006   1.270   .     A
C854   C904    1.455   .     S
C855   O1031   1.276   .     A
C855   O1007   1.272   .     A
C855   C905    1.456   .     S
C856   C906    1.456   .     S
C856   O1032   1.277   .     A
C856   O1008   1.272   .     A
C857   C907    1.456   .     S
C857   O1029   1.272   .     A
C857   O1009   1.277   .     A
C858   O1010   1.276   .     A
C858   C909    1.456   .     S
C858   O1030   1.272   .     A
C859   O1027   1.276   .     A
C859   O1011   1.272   .     A
C859   C918    1.456   .     S
C860   O1013   1.272   .     A
C860   O1028   1.277   .     A
C860   C920    1.456   .     S
C861   O1025   1.272   .     A
C861   O1014   1.277   .     A
C861   C912    1.456   .     S
C862   O1026   1.272   .     A
C862   C913    1.456   .     S
C862   O1015   1.276   .     A
C863   C914    1.455   .     S
C863   O1022   1.270   .     A
C863   O1016   1.274   .     A
C864   C295    1.419   1_565 S
C864   C875    1.196   1_554 S
C865   O1017   1.274   .     A
C865   C915    1.455   .     S
C865   O1024   1.270   .     A
C866   O1018   1.270   .     A
C866   O1020   1.274   .     A
C866   C916    1.455   .     S
C867   O1021   1.274   .     A
C867   C917    1.455   .     S
C867   O1019   1.270   .     A
C868   C921    1.488   .     S
C868   C915    1.413   .     A
C868   C880    1.407   .     A
C869   C914    1.412   .     A
C869   C922    1.493   .     S
C869   C879    1.409   .     A
C870   C923    1.490   .     S
C870   C913    1.413   .     A
C870   C878    1.408   .     A
C871   C912    1.412   .     A
C871   C924    1.492   .     S
C871   C877    1.408   .     A
C872   C925    1.490   .     S
C872   C884    1.408   .     A
C872   C920    1.413   .     A
C873   C918    1.413   .     A
C873   C926    1.492   .     S
C873   C883    1.408   .     A
C874   C927    1.491   .     S
C874   C917    1.413   .     A
C874   C882    1.409   .     A
C875   C294    1.419   1_565 S
C875   C864    1.196   1_556 S
C876   C916    1.413   .     A
C876   C881    1.407   .     A
C876   C928    1.493   .     S
C877   C929    1.490   .     S
C877   C906    1.413   .     A
C878   C931    1.492   .     S
C878   C905    1.413   .     A
C879   C932    1.491   .     S
C879   C904    1.413   .     A
C880   C903    1.413   .     A
C880   C933    1.493   .     S
C881   C934    1.488   .     S
C881   C911    1.413   .     A
C882   C910    1.412   .     A
C882   C935    1.493   .     S
C883   C936    1.490   .     S
C883   C909    1.413   .     A
C884   C907    1.412   .     A
C884   C937    1.492   .     S
C885   C904    1.412   .     A
C885   C898    1.409   .     A
C885   C938    1.493   .     S
C886   C897    1.196   .     T
C887   C896    1.407   .     A
C887   C939    1.488   .     S
C887   C903    1.413   .     A
C888   C906    1.412   .     A
C888   C895    1.408   .     A
C888   C940    1.492   .     S
C889   C905    1.413   .     A
C889   C894    1.408   .     A
C890   C909    1.413   .     A
C890   C902    1.408   .     A
C891   C907    1.413   .     A
C891   C901    1.408   .     A
C892   C911    1.413   .     A
C892   C900    1.407   .     A
C893   C899    1.409   .     A
C893   C910    1.413   .     A
C894   C913    1.413   .     A
C895   C912    1.413   .     A
C896   C915    1.413   .     A
C898   C914    1.413   .     A
C899   C917    1.412   .     A
C900   C916    1.413   .     A
C901   C920    1.412   .     A
C902   C918    1.413   .     A
C908   C919    1.196   .     S
C921   O1039   1.398   .     S
C921   O1038   1.223   .     D
C922   O1040   1.223   .     D
C922   O1041   1.398   .     S
C923   O1043   1.398   .     S
C923   O1042   1.223   .     D
C924   O1046   1.398   .     S
C924   O1044   1.223   .     D
C925   O1048   1.398   .     S
C925   O1047   1.222   .     D
C926   O1049   1.223   .     D
C926   O1050   1.399   .     S
C927   O1051   1.223   .     D
C927   O1052   1.398   .     S
C928   O1054   1.399   .     S
C928   O1053   1.223   .     D
C929   O1055   1.222   .     D
C929   O1057   1.398   .     S
C930   C643    1.419   1_655 S
C930   O758    1.276   1_655 S
C930   O802    1.276   1_655 S
C931   O1058   1.223   .     D
C931   O1059   1.399   .     S
C932   O1060   1.223   .     D
C932   O1061   1.398   .     S
C933   O1062   1.223   .     D
C933   O1063   1.399   .     S
C934   O1065   1.398   .     S
C934   O1064   1.223   .     D
C935   O1066   1.223   .     D
C935   O1068   1.398   .     S
C936   O1069   1.223   .     D
C936   O1070   1.398   .     S
C937   O1071   1.223   .     D
C937   O1072   1.398   .     S
C938   O1074   1.398   .     S
C938   O1073   1.223   .     D
C939   O1075   1.223   .     D
C939   O1076   1.398   .     S
C940   O1077   1.223   .     D
C940   O1079   1.398   .     S
H941   O1039   1.014   .     S
H942   O1059   1.014   .     S
H943   O1061   1.014   .     S
H944   O1063   1.014   .     S
H945   O1065   1.014   .     S
H946   O1068   1.014   .     S
H947   O1070   1.014   .     S
H948   O1072   1.013   .     S
H949   O1074   1.014   .     S
H950   O1076   1.014   .     S
H951   O1079   1.013   .     S
H952   O1041   1.014   .     S
H953   O1081   1.014   .     S
H954   O1083   1.014   .     S
H955   O1085   1.014   .     S
H956   O1087   1.014   .     S
H957   O975    1.014   .     S
H958   O977    1.014   .     S
H959   O979    1.014   .     S
H960   O981    1.014   .     S
H961   O983    1.014   .     S
H962   O986    1.014   .     S
H963   O1043   1.014   .     S
H964   O988    1.014   .     S
H965   O990    1.013   .     S
H966   O992    1.014   .     S
H967   O1046   1.013   .     S
H968   O1048   1.014   .     S
H969   O1050   1.014   .     S
H970   O1052   1.014   .     S
H971   O1054   1.014   .     S
H972   O1057   1.014   .     S
O973   Zn1092  1.935   .     S
O973   Zn1089  1.931   .     S
O973   Zn1096  1.935   .     S
O974   Zn1095  1.919   .     S
O985   Zn1090  1.921   .     S
O993   Zn1104  1.921   .     S
O994   Zn1099  1.919   .     S
O995   Zn1098  1.919   .     S
O995   C295    1.276   1_565 A
O996   Zn1101  1.917   .     S
O997   Zn1100  1.917   .     S
O997   C573    1.275   1_655 S
O998   Zn1103  1.919   .     S
O998   C294    1.276   1_565 A
O999   Zn1102  1.919   .     S
O1000  Zn1097  1.921   .     S
O1001  Zn1101  1.938   .     S
O1001  Zn1091  1.935   .     S
O1001  Zn1095  1.935   .     S
O1002  Zn1089  1.921   .     S
O1003  Zn1096  1.932   .     S
O1004  Zn819   1.932   1_655 S
O1005  Zn538   1.934   1_565 S
O1006  Zn1104  1.934   .     S
O1007  Zn816   1.934   1_655 S
O1008  Zn1091  1.934   .     S
O1009  Zn1094  1.933   .     S
O1010  Zn541   1.933   1_565 S
O1011  Zn1095  1.934   .     S
O1012  Zn1094  1.938   .     S
O1012  Zn1090  1.931   .     S
O1012  Zn1102  1.935   .     S
O1013  Zn820   1.934   1_655 S
O1014  Zn1093  1.933   .     S
O1015  Zn542   1.933   1_565 S
O1016  Zn815   1.932   1_655 S
O1017  Zn1092  1.932   .     S
O1018  Zn552   1.934   1_565 S
O1019  Zn1090  1.934   .     S
O1020  Zn1103  1.932   .     S
O1021  Zn1102  1.932   .     S
O1022  Zn1097  1.934   .     S
O1023  Zn1093  1.938   .     S
O1023  Zn1099  1.935   .     S
O1023  Zn1104  1.931   .     S
O1024  Zn1089  1.934   .     S
O1025  Zn1099  1.934   .     S
O1026  Zn1098  1.934   .     S
O1027  Zn1101  1.933   .     S
O1028  Zn1100  1.933   .     S
O1029  Zn1102  1.934   .     S
O1030  Zn1103  1.934   .     S
O1031  Zn1100  1.933   .     S
O1032  Zn1101  1.933   .     S
O1033  Zn1098  1.932   .     S
O1034  Zn1092  1.919   .     S
O1035  Zn1099  1.932   .     S
O1036  Zn1089  1.934   .     S
O1037  Zn1097  1.934   .     S
O1045  Zn1091  1.919   .     S
O1056  Zn1094  1.917   .     S
O1067  Zn1093  1.917   .     S
O1078  Zn1096  1.919   .     S
Zn1097 O725    1.931   1_655 S
Zn1098 O460    1.935   1_565 S
Zn1100 O697    1.938   1_655 S
Zn1103 O471    1.935   1_565 S
