data_str_m1_o10_o18_pcu_sym.8
_audit_creation_date              2020-01-03
_audit_creation_method            'Materials Studio'
_symmetry_space_group_name_H-M    'P1'
_symmetry_Int_Tables_number       1
_symmetry_cell_setting            triclinic
loop_
_symmetry_equiv_pos_as_xyz
  x,y,z
_cell_length_a                    32.5369
_cell_length_b                    32.5108
_cell_length_c                    35.8730
_cell_angle_alpha                 98.6312
_cell_angle_beta                  72.7403
_cell_angle_gamma                 98.7093
loop_
_atom_site_label
_atom_site_type_symbol
_atom_site_fract_x
_atom_site_fract_y
_atom_site_fract_z
_atom_site_U_iso_or_equiv
_atom_site_adp_type
_atom_site_occupancy
C1     C     0.05246   0.16009   0.25864   0.00000  Uiso   1.00
C2     C     0.20200   0.13866   0.45977   0.00000  Uiso   1.00
C3     C     0.22279   0.11905   0.47958   0.00000  Uiso   1.00
C4     C     0.28104   0.17357   0.24114   0.00000  Uiso   1.00
C5     C     0.21204   0.12455   0.02041   0.00000  Uiso   1.00
C6     C     0.18031   0.15119   0.04225   0.00000  Uiso   1.00
C7     C     0.23282   0.10347   0.03954   0.00000  Uiso   1.00
C8     C     0.22307   0.10894   0.08017   0.00000  Uiso   1.00
C9     C     0.17564   0.16157   0.08325   0.00000  Uiso   1.00
C10    C     0.32712   0.17599   0.23730   0.00000  Uiso   1.00
C11    C     0.00704   0.15796   0.26213   0.00000  Uiso   1.00
C12    C     0.09053   0.20827   0.42149   0.00000  Uiso   1.00
C13    C     0.18055   0.32207   0.23798   0.00000  Uiso   1.00
C14    C     0.15109   0.01208   0.26198   0.00000  Uiso   1.00
C15    C     0.15572   0.05615   0.25891   0.00000  Uiso   1.00
C16    C     0.17671   0.27766   0.24131   0.00000  Uiso   1.00
C17    C     0.18841   0.14502   0.14413   0.00000  Uiso   1.00
C18    C     0.14439   0.18726   0.35629   0.00000  Uiso   1.00
C19    C     0.13020   0.19271   0.39976   0.00000  Uiso   1.00
C20    C     0.19530   0.13816   0.10190   0.00000  Uiso   1.00
C21    C     0.07833   0.21165   0.46287   0.00000  Uiso   1.00
C22    C     0.15844   0.20117   0.10504   0.00000  Uiso   1.00
C23    C     0.15633   0.18019   0.41958   0.00000  Uiso   1.00
C24    C     0.17771   0.23973   0.09127   0.00000  Uiso   1.00
C25    C     0.16359   0.27725   0.11223   0.00000  Uiso   1.00
C26    C     0.13000   0.27664   0.14713   0.00000  Uiso   1.00
C27    C     0.11010   0.23847   0.16082   0.00000  Uiso   1.00
C28    C     0.12394   0.20086   0.13980   0.00000  Uiso   1.00
C29    C     0.03855   0.23116   0.48540   0.00000  Uiso   1.00
C30    C     0.04200   0.27287   0.00237   0.00000  Uiso   1.00
C31    C     0.00469   0.29212   0.02203   0.00000  Uiso   1.00
C32    C     0.29716   0.26987   0.02478   0.00000  Uiso   1.00
C33    C     0.29352   0.22818   0.00817   0.00000  Uiso   1.00
C34    C     0.14306   0.17966   0.46055   0.00000  Uiso   1.00
C35    C     0.33077   0.20875   0.48862   0.00000  Uiso   1.00
C36    C     0.06042   0.21949   0.40162   0.00000  Uiso   1.00
C37    C     0.05931   0.26149   0.39736   0.00000  Uiso   1.00
C38    C     0.03049   0.27187   0.37899   0.00000  Uiso   1.00
C39    C     0.00253   0.24046   0.36505   0.00000  Uiso   1.00
C40    C     0.00333   0.19861   0.36946   0.00000  Uiso   1.00
C41    C     0.03224   0.18808   0.38761   0.00000  Uiso   1.00
C42    C     0.10400   0.19649   0.48237   0.00000  Uiso   1.00
C43    C     0.16737   0.16227   0.48034   0.00000  Uiso   1.00
C44    C     0.15471   0.16606   0.02212   0.00000  Uiso   1.00
C45    C     0.11457   0.18059   0.04242   0.00000  Uiso   1.00
C46    C     0.09014   0.19599   0.02317   0.00000  Uiso   1.00
H47    H     0.05951   0.20649   0.04072   0.00000  Uiso   1.00
H48    H     0.09990   0.17785   0.07322   0.00000  Uiso   1.00
H49    H     0.21203   0.13215   0.42826   0.00000  Uiso   1.00
H50    H     0.20382   0.24065   0.06442   0.00000  Uiso   1.00
H51    H     0.17885   0.30682   0.10151   0.00000  Uiso   1.00
H52    H     0.11930   0.30572   0.16349   0.00000  Uiso   1.00
H53    H     0.08397   0.23808   0.18777   0.00000  Uiso   1.00
H54    H     0.10764   0.17158   0.15050   0.00000  Uiso   1.00
H55    H     0.07354   0.29051   0.49995   0.00000  Uiso   1.00
H56    H     0.00744   0.32438   0.03488   0.00000  Uiso   1.00
H57    H     0.26842   0.28511   0.03965   0.00000  Uiso   1.00
H58    H     0.25620   0.08222   0.02306   0.00000  Uiso   1.00
H59    H     0.26190   0.21100   0.01015   0.00000  Uiso   1.00
H60    H     0.32765   0.17655   0.47561   0.00000  Uiso   1.00
H61    H     0.08074   0.28602   0.40820   0.00000  Uiso   1.00
H62    H     0.02979   0.30426   0.37563   0.00000  Uiso   1.00
H63    H     0.31356   0.24854   0.35087   0.00000  Uiso   1.00
H64    H     0.31490   0.17435   0.35879   0.00000  Uiso   1.00
H65    H     0.03261   0.15558   0.39093   0.00000  Uiso   1.00
H66    H     0.01699   0.19235   0.21416   0.00000  Uiso   1.00
H67    H     0.31777   0.14174   0.28567   0.00000  Uiso   1.00
H68    H     0.20770   0.00257   0.21586   0.00000  Uiso   1.00
H69    H     0.12355   0.33235   0.28418   0.00000  Uiso   1.00
H70    H     0.23867   0.09164   0.09465   0.00000  Uiso   1.00
H71    H     0.24768   0.09949   0.46271   0.00000  Uiso   1.00
H72    H     0.18734   0.17107   0.40206   0.00000  Uiso   1.00
O73    O     0.16667   0.16667   0.25000   0.00000  Uiso   1.00
O74    O     0.15693   0.12393   0.16625   0.00000  Uiso   1.00
O75    O     0.12687   0.20646   0.33749   0.00000  Uiso   1.00
O76    O     0.21088   0.17493   0.15877   0.00000  Uiso   1.00
O77    O     0.17198   0.16135   0.33749   0.00000  Uiso   1.00
O78    O     0.17849   0.08101   0.27821   0.00000  Uiso   1.00
O79    O     0.14581   0.26136   0.26767   0.00000  Uiso   1.00
O80    O     0.07452   0.13251   0.23607   0.00000  Uiso   1.00
O81    O     0.26785   0.19179   0.21805   0.00000  Uiso   1.00
O82    O     0.06990   0.18960   0.27820   0.00000  Uiso   1.00
O83    O     0.25440   0.15277   0.26767   0.00000  Uiso   1.00
O84    O     0.13800   0.06903   0.23607   0.00000  Uiso   1.00
O85    O     0.20437   0.25527   0.21806   0.00000  Uiso   1.00
Zn86   Zn    0.19244   0.14090   0.28278   0.00000  Uiso   1.00
Zn87   Zn    0.13459   0.12378   0.22258   0.00000  Uiso   1.00
Zn88   Zn    0.21166   0.19664   0.21188   0.00000  Uiso   1.00
Zn89   Zn    0.12798   0.20535   0.28277   0.00000  Uiso   1.00
C90    C     0.38579   0.16009   0.25864   0.00000  Uiso   1.00
C91    C     0.53533   0.13866   0.45977   0.00000  Uiso   1.00
C92    C     0.55612   0.11905   0.47958   0.00000  Uiso   1.00
C93    C     0.61437   0.17357   0.24114   0.00000  Uiso   1.00
C94    C     0.54537   0.12455   0.02041   0.00000  Uiso   1.00
C95    C     0.51365   0.15119   0.04225   0.00000  Uiso   1.00
C96    C     0.56616   0.10347   0.03954   0.00000  Uiso   1.00
C97    C     0.55640   0.10894   0.08017   0.00000  Uiso   1.00
C98    C     0.50898   0.16157   0.08325   0.00000  Uiso   1.00
C99    C     0.66046   0.17599   0.23730   0.00000  Uiso   1.00
C100   C     0.34037   0.15796   0.26213   0.00000  Uiso   1.00
C101   C     0.42386   0.20827   0.42149   0.00000  Uiso   1.00
C102   C     0.51388   0.32207   0.23798   0.00000  Uiso   1.00
C103   C     0.48443   0.01208   0.26198   0.00000  Uiso   1.00
C104   C     0.48906   0.05615   0.25891   0.00000  Uiso   1.00
C105   C     0.51005   0.27766   0.24131   0.00000  Uiso   1.00
C106   C     0.52175   0.14502   0.14413   0.00000  Uiso   1.00
C107   C     0.47772   0.18726   0.35629   0.00000  Uiso   1.00
C108   C     0.46353   0.19271   0.39976   0.00000  Uiso   1.00
C109   C     0.52864   0.13816   0.10190   0.00000  Uiso   1.00
C110   C     0.41167   0.21165   0.46287   0.00000  Uiso   1.00
C111   C     0.49177   0.20117   0.10504   0.00000  Uiso   1.00
C112   C     0.48966   0.18019   0.41958   0.00000  Uiso   1.00
C113   C     0.51104   0.23973   0.09127   0.00000  Uiso   1.00
C114   C     0.49692   0.27725   0.11223   0.00000  Uiso   1.00
C115   C     0.46334   0.27664   0.14713   0.00000  Uiso   1.00
C116   C     0.44343   0.23847   0.16082   0.00000  Uiso   1.00
C117   C     0.45727   0.20086   0.13980   0.00000  Uiso   1.00
C118   C     0.37189   0.23116   0.48540   0.00000  Uiso   1.00
C119   C     0.37534   0.27287   0.00237   0.00000  Uiso   1.00
C120   C     0.33802   0.29212   0.02203   0.00000  Uiso   1.00
C121   C     0.63049   0.26987   0.02478   0.00000  Uiso   1.00
C122   C     0.62686   0.22818   0.00817   0.00000  Uiso   1.00
C123   C     0.47640   0.17966   0.46055   0.00000  Uiso   1.00
C124   C     0.66411   0.20875   0.48862   0.00000  Uiso   1.00
C125   C     0.39375   0.21949   0.40162   0.00000  Uiso   1.00
C126   C     0.39264   0.26149   0.39736   0.00000  Uiso   1.00
C127   C     0.36383   0.27187   0.37899   0.00000  Uiso   1.00
C128   C     0.33587   0.24046   0.36505   0.00000  Uiso   1.00
C129   C     0.33666   0.19861   0.36946   0.00000  Uiso   1.00
C130   C     0.36557   0.18808   0.38761   0.00000  Uiso   1.00
C131   C     0.43733   0.19649   0.48237   0.00000  Uiso   1.00
C132   C     0.50070   0.16227   0.48034   0.00000  Uiso   1.00
C133   C     0.48804   0.16606   0.02212   0.00000  Uiso   1.00
C134   C     0.44790   0.18059   0.04242   0.00000  Uiso   1.00
C135   C     0.42347   0.19599   0.02317   0.00000  Uiso   1.00
H136   H     0.39285   0.20649   0.04072   0.00000  Uiso   1.00
H137   H     0.43323   0.17785   0.07322   0.00000  Uiso   1.00
H138   H     0.54536   0.13215   0.42826   0.00000  Uiso   1.00
H139   H     0.53715   0.24065   0.06442   0.00000  Uiso   1.00
H140   H     0.51218   0.30682   0.10151   0.00000  Uiso   1.00
H141   H     0.45264   0.30572   0.16349   0.00000  Uiso   1.00
H142   H     0.41730   0.23808   0.18777   0.00000  Uiso   1.00
H143   H     0.44098   0.17158   0.15050   0.00000  Uiso   1.00
H144   H     0.40687   0.29051   0.49995   0.00000  Uiso   1.00
H145   H     0.34077   0.32438   0.03488   0.00000  Uiso   1.00
H146   H     0.60175   0.28511   0.03965   0.00000  Uiso   1.00
H147   H     0.58953   0.08222   0.02306   0.00000  Uiso   1.00
H148   H     0.59523   0.21100   0.01015   0.00000  Uiso   1.00
H149   H     0.66098   0.17655   0.47561   0.00000  Uiso   1.00
H150   H     0.41407   0.28602   0.40820   0.00000  Uiso   1.00
H151   H     0.36312   0.30426   0.37563   0.00000  Uiso   1.00
H152   H     0.64689   0.24854   0.35087   0.00000  Uiso   1.00
H153   H     0.64823   0.17435   0.35879   0.00000  Uiso   1.00
H154   H     0.36594   0.15558   0.39093   0.00000  Uiso   1.00
H155   H     0.35032   0.19235   0.21416   0.00000  Uiso   1.00
H156   H     0.65110   0.14174   0.28567   0.00000  Uiso   1.00
H157   H     0.54104   0.00257   0.21586   0.00000  Uiso   1.00
H158   H     0.45689   0.33235   0.28418   0.00000  Uiso   1.00
H159   H     0.57200   0.09164   0.09465   0.00000  Uiso   1.00
H160   H     0.58101   0.09949   0.46271   0.00000  Uiso   1.00
H161   H     0.52067   0.17107   0.40206   0.00000  Uiso   1.00
O162   O     0.50000   0.16667   0.25000   0.00000  Uiso   1.00
O163   O     0.49027   0.12393   0.16625   0.00000  Uiso   1.00
O164   O     0.46020   0.20646   0.33749   0.00000  Uiso   1.00
O165   O     0.54421   0.17493   0.15877   0.00000  Uiso   1.00
O166   O     0.50532   0.16135   0.33749   0.00000  Uiso   1.00
O167   O     0.51182   0.08101   0.27821   0.00000  Uiso   1.00
O168   O     0.47914   0.26136   0.26767   0.00000  Uiso   1.00
O169   O     0.40785   0.13251   0.23607   0.00000  Uiso   1.00
O170   O     0.60119   0.19179   0.21805   0.00000  Uiso   1.00
O171   O     0.40323   0.18960   0.27820   0.00000  Uiso   1.00
O172   O     0.58773   0.15277   0.26767   0.00000  Uiso   1.00
O173   O     0.47133   0.06903   0.23607   0.00000  Uiso   1.00
O174   O     0.53771   0.25527   0.21806   0.00000  Uiso   1.00
Zn175  Zn    0.52577   0.14090   0.28278   0.00000  Uiso   1.00
Zn176  Zn    0.46792   0.12378   0.22258   0.00000  Uiso   1.00
Zn177  Zn    0.54500   0.19664   0.21188   0.00000  Uiso   1.00
Zn178  Zn    0.46131   0.20535   0.28277   0.00000  Uiso   1.00
C179   C     0.71913   0.16009   0.25864   0.00000  Uiso   1.00
C180   C     0.86867   0.13866   0.45977   0.00000  Uiso   1.00
C181   C     0.88946   0.11905   0.47958   0.00000  Uiso   1.00
C182   C     0.94770   0.17357   0.24114   0.00000  Uiso   1.00
C183   C     0.87870   0.12455   0.02041   0.00000  Uiso   1.00
C184   C     0.84698   0.15119   0.04225   0.00000  Uiso   1.00
C185   C     0.89949   0.10347   0.03954   0.00000  Uiso   1.00
C186   C     0.88974   0.10894   0.08017   0.00000  Uiso   1.00
C187   C     0.84231   0.16157   0.08325   0.00000  Uiso   1.00
C188   C     0.99379   0.17599   0.23730   0.00000  Uiso   1.00
C189   C     0.67370   0.15796   0.26213   0.00000  Uiso   1.00
C190   C     0.75719   0.20827   0.42149   0.00000  Uiso   1.00
C191   C     0.84721   0.32207   0.23798   0.00000  Uiso   1.00
C192   C     0.81776   0.01208   0.26198   0.00000  Uiso   1.00
C193   C     0.82239   0.05615   0.25891   0.00000  Uiso   1.00
C194   C     0.84338   0.27766   0.24131   0.00000  Uiso   1.00
C195   C     0.85508   0.14502   0.14413   0.00000  Uiso   1.00
C196   C     0.81105   0.18726   0.35629   0.00000  Uiso   1.00
C197   C     0.79686   0.19271   0.39976   0.00000  Uiso   1.00
C198   C     0.86197   0.13816   0.10190   0.00000  Uiso   1.00
C199   C     0.74500   0.21165   0.46287   0.00000  Uiso   1.00
C200   C     0.82511   0.20117   0.10504   0.00000  Uiso   1.00
C201   C     0.82299   0.18019   0.41958   0.00000  Uiso   1.00
C202   C     0.84438   0.23973   0.09127   0.00000  Uiso   1.00
C203   C     0.83026   0.27725   0.11223   0.00000  Uiso   1.00
C204   C     0.79667   0.27664   0.14713   0.00000  Uiso   1.00
C205   C     0.77677   0.23847   0.16082   0.00000  Uiso   1.00
C206   C     0.79060   0.20086   0.13980   0.00000  Uiso   1.00
C207   C     0.70522   0.23116   0.48540   0.00000  Uiso   1.00
C208   C     0.70867   0.27287   0.00237   0.00000  Uiso   1.00
C209   C     0.67136   0.29212   0.02203   0.00000  Uiso   1.00
C210   C     0.96383   0.26987   0.02478   0.00000  Uiso   1.00
C211   C     0.96019   0.22818   0.00817   0.00000  Uiso   1.00
C212   C     0.80973   0.17966   0.46055   0.00000  Uiso   1.00
C213   C     0.99744   0.20875   0.48862   0.00000  Uiso   1.00
C214   C     0.72708   0.21949   0.40162   0.00000  Uiso   1.00
C215   C     0.72598   0.26149   0.39736   0.00000  Uiso   1.00
C216   C     0.69716   0.27187   0.37899   0.00000  Uiso   1.00
C217   C     0.66920   0.24046   0.36505   0.00000  Uiso   1.00
C218   C     0.66999   0.19861   0.36946   0.00000  Uiso   1.00
C219   C     0.69891   0.18808   0.38761   0.00000  Uiso   1.00
C220   C     0.77066   0.19649   0.48237   0.00000  Uiso   1.00
C221   C     0.83404   0.16227   0.48034   0.00000  Uiso   1.00
C222   C     0.82138   0.16606   0.02212   0.00000  Uiso   1.00
C223   C     0.78124   0.18059   0.04242   0.00000  Uiso   1.00
C224   C     0.75680   0.19599   0.02317   0.00000  Uiso   1.00
H225   H     0.72618   0.20649   0.04072   0.00000  Uiso   1.00
H226   H     0.76657   0.17785   0.07322   0.00000  Uiso   1.00
H227   H     0.87869   0.13215   0.42826   0.00000  Uiso   1.00
H228   H     0.87049   0.24065   0.06442   0.00000  Uiso   1.00
H229   H     0.84552   0.30682   0.10151   0.00000  Uiso   1.00
H230   H     0.78597   0.30572   0.16349   0.00000  Uiso   1.00
H231   H     0.75064   0.23808   0.18777   0.00000  Uiso   1.00
H232   H     0.77431   0.17158   0.15050   0.00000  Uiso   1.00
H233   H     0.74021   0.29051   0.49995   0.00000  Uiso   1.00
H234   H     0.67410   0.32438   0.03488   0.00000  Uiso   1.00
H235   H     0.93508   0.28511   0.03965   0.00000  Uiso   1.00
H236   H     0.92287   0.08222   0.02306   0.00000  Uiso   1.00
H237   H     0.92857   0.21100   0.01015   0.00000  Uiso   1.00
H238   H     0.99432   0.17655   0.47561   0.00000  Uiso   1.00
H239   H     0.74741   0.28602   0.40820   0.00000  Uiso   1.00
H240   H     0.69645   0.30426   0.37563   0.00000  Uiso   1.00
H241   H     0.98023   0.24854   0.35087   0.00000  Uiso   1.00
H242   H     0.98157   0.17435   0.35879   0.00000  Uiso   1.00
H243   H     0.69928   0.15558   0.39093   0.00000  Uiso   1.00
H244   H     0.68365   0.19235   0.21416   0.00000  Uiso   1.00
H245   H     0.98444   0.14174   0.28567   0.00000  Uiso   1.00
H246   H     0.87437   0.00257   0.21586   0.00000  Uiso   1.00
H247   H     0.79022   0.33235   0.28418   0.00000  Uiso   1.00
H248   H     0.90534   0.09164   0.09465   0.00000  Uiso   1.00
H249   H     0.91434   0.09949   0.46271   0.00000  Uiso   1.00
H250   H     0.85401   0.17107   0.40206   0.00000  Uiso   1.00
O251   O     0.83333   0.16667   0.25000   0.00000  Uiso   1.00
O252   O     0.82360   0.12393   0.16625   0.00000  Uiso   1.00
O253   O     0.79354   0.20646   0.33749   0.00000  Uiso   1.00
O254   O     0.87755   0.17493   0.15877   0.00000  Uiso   1.00
O255   O     0.83865   0.16135   0.33749   0.00000  Uiso   1.00
O256   O     0.84515   0.08101   0.27821   0.00000  Uiso   1.00
O257   O     0.81247   0.26136   0.26767   0.00000  Uiso   1.00
O258   O     0.74119   0.13251   0.23607   0.00000  Uiso   1.00
O259   O     0.93452   0.19179   0.21805   0.00000  Uiso   1.00
O260   O     0.73656   0.18960   0.27820   0.00000  Uiso   1.00
O261   O     0.92106   0.15277   0.26767   0.00000  Uiso   1.00
O262   O     0.80467   0.06903   0.23607   0.00000  Uiso   1.00
O263   O     0.87104   0.25527   0.21806   0.00000  Uiso   1.00
Zn264  Zn    0.85910   0.14090   0.28278   0.00000  Uiso   1.00
Zn265  Zn    0.80125   0.12378   0.22258   0.00000  Uiso   1.00
Zn266  Zn    0.87833   0.19664   0.21188   0.00000  Uiso   1.00
Zn267  Zn    0.79465   0.20535   0.28277   0.00000  Uiso   1.00
C268   C     0.05246   0.49342   0.25864   0.00000  Uiso   1.00
C269   C     0.20200   0.47199   0.45977   0.00000  Uiso   1.00
C270   C     0.22279   0.45238   0.47958   0.00000  Uiso   1.00
C271   C     0.28104   0.50691   0.24114   0.00000  Uiso   1.00
C272   C     0.21204   0.45788   0.02041   0.00000  Uiso   1.00
C273   C     0.18031   0.48452   0.04225   0.00000  Uiso   1.00
C274   C     0.23282   0.43680   0.03954   0.00000  Uiso   1.00
C275   C     0.22307   0.44227   0.08017   0.00000  Uiso   1.00
C276   C     0.17564   0.49490   0.08325   0.00000  Uiso   1.00
C277   C     0.32712   0.50932   0.23730   0.00000  Uiso   1.00
C278   C     0.00704   0.49129   0.26213   0.00000  Uiso   1.00
C279   C     0.09053   0.54160   0.42149   0.00000  Uiso   1.00
C280   C     0.18055   0.65540   0.23798   0.00000  Uiso   1.00
C281   C     0.15109   0.34542   0.26198   0.00000  Uiso   1.00
C282   C     0.15572   0.38948   0.25891   0.00000  Uiso   1.00
C283   C     0.17671   0.61099   0.24131   0.00000  Uiso   1.00
C284   C     0.18841   0.47836   0.14413   0.00000  Uiso   1.00
C285   C     0.14439   0.52059   0.35629   0.00000  Uiso   1.00
C286   C     0.13020   0.52604   0.39976   0.00000  Uiso   1.00
C287   C     0.19530   0.47149   0.10190   0.00000  Uiso   1.00
C288   C     0.07833   0.54498   0.46287   0.00000  Uiso   1.00
C289   C     0.15844   0.53450   0.10504   0.00000  Uiso   1.00
C290   C     0.15633   0.51352   0.41958   0.00000  Uiso   1.00
C291   C     0.17771   0.57306   0.09127   0.00000  Uiso   1.00
C292   C     0.16359   0.61059   0.11223   0.00000  Uiso   1.00
C293   C     0.13000   0.60997   0.14713   0.00000  Uiso   1.00
C294   C     0.11010   0.57181   0.16082   0.00000  Uiso   1.00
C295   C     0.12394   0.53419   0.13980   0.00000  Uiso   1.00
C296   C     0.03855   0.56449   0.48540   0.00000  Uiso   1.00
C297   C     0.04200   0.60620   0.00237   0.00000  Uiso   1.00
C298   C     0.00469   0.62545   0.02203   0.00000  Uiso   1.00
C299   C     0.29716   0.60321   0.02478   0.00000  Uiso   1.00
C300   C     0.29352   0.56151   0.00817   0.00000  Uiso   1.00
C301   C     0.14306   0.51300   0.46055   0.00000  Uiso   1.00
C302   C     0.33077   0.54209   0.48862   0.00000  Uiso   1.00
C303   C     0.06042   0.55282   0.40162   0.00000  Uiso   1.00
C304   C     0.05931   0.59482   0.39736   0.00000  Uiso   1.00
C305   C     0.03049   0.60520   0.37899   0.00000  Uiso   1.00
C306   C     0.00253   0.57379   0.36505   0.00000  Uiso   1.00
C307   C     0.00333   0.53195   0.36946   0.00000  Uiso   1.00
C308   C     0.03224   0.52141   0.38761   0.00000  Uiso   1.00
C309   C     0.10400   0.52983   0.48237   0.00000  Uiso   1.00
C310   C     0.16737   0.49560   0.48034   0.00000  Uiso   1.00
C311   C     0.15471   0.49939   0.02212   0.00000  Uiso   1.00
C312   C     0.11457   0.51392   0.04242   0.00000  Uiso   1.00
C313   C     0.09014   0.52932   0.02317   0.00000  Uiso   1.00
H314   H     0.05951   0.53983   0.04072   0.00000  Uiso   1.00
H315   H     0.09990   0.51118   0.07322   0.00000  Uiso   1.00
H316   H     0.21203   0.46548   0.42826   0.00000  Uiso   1.00
H317   H     0.20382   0.57398   0.06442   0.00000  Uiso   1.00
H318   H     0.17885   0.64015   0.10151   0.00000  Uiso   1.00
H319   H     0.11930   0.63906   0.16349   0.00000  Uiso   1.00
H320   H     0.08397   0.57141   0.18777   0.00000  Uiso   1.00
H321   H     0.10764   0.50491   0.15050   0.00000  Uiso   1.00
H322   H     0.07354   0.62385   0.49995   0.00000  Uiso   1.00
H323   H     0.00744   0.65771   0.03488   0.00000  Uiso   1.00
H324   H     0.26842   0.61844   0.03965   0.00000  Uiso   1.00
H325   H     0.25620   0.41555   0.02306   0.00000  Uiso   1.00
H326   H     0.26190   0.54434   0.01015   0.00000  Uiso   1.00
H327   H     0.32765   0.50988   0.47561   0.00000  Uiso   1.00
H328   H     0.08074   0.61935   0.40820   0.00000  Uiso   1.00
H329   H     0.02979   0.63759   0.37563   0.00000  Uiso   1.00
H330   H     0.31356   0.58187   0.35087   0.00000  Uiso   1.00
H331   H     0.31490   0.50768   0.35879   0.00000  Uiso   1.00
H332   H     0.03261   0.48891   0.39093   0.00000  Uiso   1.00
H333   H     0.01699   0.52568   0.21416   0.00000  Uiso   1.00
H334   H     0.31777   0.47507   0.28567   0.00000  Uiso   1.00
H335   H     0.20770   0.33591   0.21586   0.00000  Uiso   1.00
H336   H     0.12355   0.66569   0.28418   0.00000  Uiso   1.00
H337   H     0.23867   0.42497   0.09465   0.00000  Uiso   1.00
H338   H     0.24768   0.43282   0.46271   0.00000  Uiso   1.00
H339   H     0.18734   0.50440   0.40206   0.00000  Uiso   1.00
O340   O     0.16667   0.50000   0.25000   0.00000  Uiso   1.00
O341   O     0.15693   0.45726   0.16625   0.00000  Uiso   1.00
O342   O     0.12687   0.53979   0.33749   0.00000  Uiso   1.00
O343   O     0.21088   0.50826   0.15877   0.00000  Uiso   1.00
O344   O     0.17198   0.49468   0.33749   0.00000  Uiso   1.00
O345   O     0.17849   0.41434   0.27821   0.00000  Uiso   1.00
O346   O     0.14581   0.59469   0.26767   0.00000  Uiso   1.00
O347   O     0.07452   0.46584   0.23607   0.00000  Uiso   1.00
O348   O     0.26785   0.52512   0.21805   0.00000  Uiso   1.00
O349   O     0.06990   0.52293   0.27820   0.00000  Uiso   1.00
O350   O     0.25440   0.48610   0.26767   0.00000  Uiso   1.00
O351   O     0.13800   0.40236   0.23607   0.00000  Uiso   1.00
O352   O     0.20437   0.58860   0.21806   0.00000  Uiso   1.00
Zn353  Zn    0.19244   0.47423   0.28278   0.00000  Uiso   1.00
Zn354  Zn    0.13459   0.45711   0.22258   0.00000  Uiso   1.00
Zn355  Zn    0.21166   0.52997   0.21188   0.00000  Uiso   1.00
Zn356  Zn    0.12798   0.53868   0.28277   0.00000  Uiso   1.00
C357   C     0.38579   0.49342   0.25864   0.00000  Uiso   1.00
C358   C     0.53533   0.47199   0.45977   0.00000  Uiso   1.00
C359   C     0.55612   0.45238   0.47958   0.00000  Uiso   1.00
C360   C     0.61437   0.50691   0.24114   0.00000  Uiso   1.00
C361   C     0.54537   0.45788   0.02041   0.00000  Uiso   1.00
C362   C     0.51365   0.48452   0.04225   0.00000  Uiso   1.00
C363   C     0.56616   0.43680   0.03954   0.00000  Uiso   1.00
C364   C     0.55640   0.44227   0.08017   0.00000  Uiso   1.00
C365   C     0.50898   0.49490   0.08325   0.00000  Uiso   1.00
C366   C     0.66046   0.50932   0.23730   0.00000  Uiso   1.00
C367   C     0.34037   0.49129   0.26213   0.00000  Uiso   1.00
C368   C     0.42386   0.54160   0.42149   0.00000  Uiso   1.00
C369   C     0.51388   0.65540   0.23798   0.00000  Uiso   1.00
C370   C     0.48443   0.34542   0.26198   0.00000  Uiso   1.00
C371   C     0.48906   0.38948   0.25891   0.00000  Uiso   1.00
C372   C     0.51005   0.61099   0.24131   0.00000  Uiso   1.00
C373   C     0.52175   0.47836   0.14413   0.00000  Uiso   1.00
C374   C     0.47772   0.52059   0.35629   0.00000  Uiso   1.00
C375   C     0.46353   0.52604   0.39976   0.00000  Uiso   1.00
C376   C     0.52864   0.47149   0.10190   0.00000  Uiso   1.00
C377   C     0.41167   0.54498   0.46287   0.00000  Uiso   1.00
C378   C     0.49177   0.53450   0.10504   0.00000  Uiso   1.00
C379   C     0.48966   0.51352   0.41958   0.00000  Uiso   1.00
C380   C     0.51104   0.57306   0.09127   0.00000  Uiso   1.00
C381   C     0.49692   0.61059   0.11223   0.00000  Uiso   1.00
C382   C     0.46334   0.60997   0.14713   0.00000  Uiso   1.00
C383   C     0.44343   0.57181   0.16082   0.00000  Uiso   1.00
C384   C     0.45727   0.53419   0.13980   0.00000  Uiso   1.00
C385   C     0.37189   0.56449   0.48540   0.00000  Uiso   1.00
C386   C     0.37534   0.60620   0.00237   0.00000  Uiso   1.00
C387   C     0.33802   0.62545   0.02203   0.00000  Uiso   1.00
C388   C     0.63049   0.60321   0.02478   0.00000  Uiso   1.00
C389   C     0.62686   0.56151   0.00817   0.00000  Uiso   1.00
C390   C     0.47640   0.51300   0.46055   0.00000  Uiso   1.00
C391   C     0.66411   0.54209   0.48862   0.00000  Uiso   1.00
C392   C     0.39375   0.55282   0.40162   0.00000  Uiso   1.00
C393   C     0.39264   0.59482   0.39736   0.00000  Uiso   1.00
C394   C     0.36383   0.60520   0.37899   0.00000  Uiso   1.00
C395   C     0.33587   0.57379   0.36505   0.00000  Uiso   1.00
C396   C     0.33666   0.53195   0.36946   0.00000  Uiso   1.00
C397   C     0.36557   0.52141   0.38761   0.00000  Uiso   1.00
C398   C     0.43733   0.52983   0.48237   0.00000  Uiso   1.00
C399   C     0.50070   0.49560   0.48034   0.00000  Uiso   1.00
C400   C     0.48804   0.49939   0.02212   0.00000  Uiso   1.00
C401   C     0.44790   0.51392   0.04242   0.00000  Uiso   1.00
C402   C     0.42347   0.52932   0.02317   0.00000  Uiso   1.00
H403   H     0.39285   0.53983   0.04072   0.00000  Uiso   1.00
H404   H     0.43323   0.51118   0.07322   0.00000  Uiso   1.00
H405   H     0.54536   0.46548   0.42826   0.00000  Uiso   1.00
H406   H     0.53715   0.57398   0.06442   0.00000  Uiso   1.00
H407   H     0.51218   0.64015   0.10151   0.00000  Uiso   1.00
H408   H     0.45264   0.63906   0.16349   0.00000  Uiso   1.00
H409   H     0.41730   0.57141   0.18777   0.00000  Uiso   1.00
H410   H     0.44098   0.50491   0.15050   0.00000  Uiso   1.00
H411   H     0.40687   0.62385   0.49995   0.00000  Uiso   1.00
H412   H     0.34077   0.65771   0.03488   0.00000  Uiso   1.00
H413   H     0.60175   0.61844   0.03965   0.00000  Uiso   1.00
H414   H     0.58953   0.41555   0.02306   0.00000  Uiso   1.00
H415   H     0.59523   0.54434   0.01015   0.00000  Uiso   1.00
H416   H     0.66098   0.50988   0.47561   0.00000  Uiso   1.00
H417   H     0.41407   0.61935   0.40820   0.00000  Uiso   1.00
H418   H     0.36312   0.63759   0.37563   0.00000  Uiso   1.00
H419   H     0.64689   0.58187   0.35087   0.00000  Uiso   1.00
H420   H     0.64823   0.50768   0.35879   0.00000  Uiso   1.00
H421   H     0.36594   0.48891   0.39093   0.00000  Uiso   1.00
H422   H     0.35032   0.52568   0.21416   0.00000  Uiso   1.00
H423   H     0.65110   0.47507   0.28567   0.00000  Uiso   1.00
H424   H     0.54104   0.33591   0.21586   0.00000  Uiso   1.00
H425   H     0.45689   0.66569   0.28418   0.00000  Uiso   1.00
H426   H     0.57200   0.42497   0.09465   0.00000  Uiso   1.00
H427   H     0.58101   0.43282   0.46271   0.00000  Uiso   1.00
H428   H     0.52067   0.50440   0.40206   0.00000  Uiso   1.00
O429   O     0.50000   0.50000   0.25000   0.00000  Uiso   1.00
O430   O     0.49027   0.45726   0.16625   0.00000  Uiso   1.00
O431   O     0.46020   0.53979   0.33749   0.00000  Uiso   1.00
O432   O     0.54421   0.50826   0.15877   0.00000  Uiso   1.00
O433   O     0.50532   0.49468   0.33749   0.00000  Uiso   1.00
O434   O     0.51182   0.41434   0.27821   0.00000  Uiso   1.00
O435   O     0.47914   0.59469   0.26767   0.00000  Uiso   1.00
O436   O     0.40785   0.46584   0.23607   0.00000  Uiso   1.00
O437   O     0.60119   0.52512   0.21805   0.00000  Uiso   1.00
O438   O     0.40323   0.52293   0.27820   0.00000  Uiso   1.00
O439   O     0.58773   0.48610   0.26767   0.00000  Uiso   1.00
O440   O     0.47133   0.40236   0.23607   0.00000  Uiso   1.00
O441   O     0.53771   0.58860   0.21806   0.00000  Uiso   1.00
Zn442  Zn    0.52577   0.47423   0.28278   0.00000  Uiso   1.00
Zn443  Zn    0.46792   0.45711   0.22258   0.00000  Uiso   1.00
Zn444  Zn    0.54500   0.52997   0.21188   0.00000  Uiso   1.00
Zn445  Zn    0.46131   0.53868   0.28277   0.00000  Uiso   1.00
C446   C     0.71913   0.49342   0.25864   0.00000  Uiso   1.00
C447   C     0.86867   0.47199   0.45977   0.00000  Uiso   1.00
C448   C     0.88946   0.45238   0.47958   0.00000  Uiso   1.00
C449   C     0.94770   0.50691   0.24114   0.00000  Uiso   1.00
C450   C     0.87870   0.45788   0.02041   0.00000  Uiso   1.00
C451   C     0.84698   0.48452   0.04225   0.00000  Uiso   1.00
C452   C     0.89949   0.43680   0.03954   0.00000  Uiso   1.00
C453   C     0.88974   0.44227   0.08017   0.00000  Uiso   1.00
C454   C     0.84231   0.49490   0.08325   0.00000  Uiso   1.00
C455   C     0.99379   0.50932   0.23730   0.00000  Uiso   1.00
C456   C     0.67370   0.49129   0.26213   0.00000  Uiso   1.00
C457   C     0.75719   0.54160   0.42149   0.00000  Uiso   1.00
C458   C     0.84721   0.65540   0.23798   0.00000  Uiso   1.00
C459   C     0.81776   0.34542   0.26198   0.00000  Uiso   1.00
C460   C     0.82239   0.38948   0.25891   0.00000  Uiso   1.00
C461   C     0.84338   0.61099   0.24131   0.00000  Uiso   1.00
C462   C     0.85508   0.47836   0.14413   0.00000  Uiso   1.00
C463   C     0.81105   0.52059   0.35629   0.00000  Uiso   1.00
C464   C     0.79686   0.52604   0.39976   0.00000  Uiso   1.00
C465   C     0.86197   0.47149   0.10190   0.00000  Uiso   1.00
C466   C     0.74500   0.54498   0.46287   0.00000  Uiso   1.00
C467   C     0.82511   0.53450   0.10504   0.00000  Uiso   1.00
C468   C     0.82299   0.51352   0.41958   0.00000  Uiso   1.00
C469   C     0.84438   0.57306   0.09127   0.00000  Uiso   1.00
C470   C     0.83026   0.61059   0.11223   0.00000  Uiso   1.00
C471   C     0.79667   0.60997   0.14713   0.00000  Uiso   1.00
C472   C     0.77677   0.57181   0.16082   0.00000  Uiso   1.00
C473   C     0.79060   0.53419   0.13980   0.00000  Uiso   1.00
C474   C     0.70522   0.56449   0.48540   0.00000  Uiso   1.00
C475   C     0.70867   0.60620   0.00237   0.00000  Uiso   1.00
C476   C     0.67136   0.62545   0.02203   0.00000  Uiso   1.00
C477   C     0.96383   0.60321   0.02478   0.00000  Uiso   1.00
C478   C     0.96019   0.56151   0.00817   0.00000  Uiso   1.00
C479   C     0.80973   0.51300   0.46055   0.00000  Uiso   1.00
C480   C     0.99744   0.54209   0.48862   0.00000  Uiso   1.00
C481   C     0.72708   0.55282   0.40162   0.00000  Uiso   1.00
C482   C     0.72598   0.59482   0.39736   0.00000  Uiso   1.00
C483   C     0.69716   0.60520   0.37899   0.00000  Uiso   1.00
C484   C     0.66920   0.57379   0.36505   0.00000  Uiso   1.00
C485   C     0.66999   0.53195   0.36946   0.00000  Uiso   1.00
C486   C     0.69891   0.52141   0.38761   0.00000  Uiso   1.00
C487   C     0.77066   0.52983   0.48237   0.00000  Uiso   1.00
C488   C     0.83404   0.49560   0.48034   0.00000  Uiso   1.00
C489   C     0.82138   0.49939   0.02212   0.00000  Uiso   1.00
C490   C     0.78124   0.51392   0.04242   0.00000  Uiso   1.00
C491   C     0.75680   0.52932   0.02317   0.00000  Uiso   1.00
H492   H     0.72618   0.53983   0.04072   0.00000  Uiso   1.00
H493   H     0.76657   0.51118   0.07322   0.00000  Uiso   1.00
H494   H     0.87869   0.46548   0.42826   0.00000  Uiso   1.00
H495   H     0.87049   0.57398   0.06442   0.00000  Uiso   1.00
H496   H     0.84552   0.64015   0.10151   0.00000  Uiso   1.00
H497   H     0.78597   0.63906   0.16349   0.00000  Uiso   1.00
H498   H     0.75064   0.57141   0.18777   0.00000  Uiso   1.00
H499   H     0.77431   0.50491   0.15050   0.00000  Uiso   1.00
H500   H     0.74021   0.62385   0.49995   0.00000  Uiso   1.00
H501   H     0.67410   0.65771   0.03488   0.00000  Uiso   1.00
H502   H     0.93508   0.61844   0.03965   0.00000  Uiso   1.00
H503   H     0.92287   0.41555   0.02306   0.00000  Uiso   1.00
H504   H     0.92857   0.54434   0.01015   0.00000  Uiso   1.00
H505   H     0.99432   0.50988   0.47561   0.00000  Uiso   1.00
H506   H     0.74741   0.61935   0.40820   0.00000  Uiso   1.00
H507   H     0.69645   0.63759   0.37563   0.00000  Uiso   1.00
H508   H     0.98023   0.58187   0.35087   0.00000  Uiso   1.00
H509   H     0.98157   0.50768   0.35879   0.00000  Uiso   1.00
H510   H     0.69928   0.48891   0.39093   0.00000  Uiso   1.00
H511   H     0.68365   0.52568   0.21416   0.00000  Uiso   1.00
H512   H     0.98444   0.47507   0.28567   0.00000  Uiso   1.00
H513   H     0.87437   0.33591   0.21586   0.00000  Uiso   1.00
H514   H     0.79022   0.66569   0.28418   0.00000  Uiso   1.00
H515   H     0.90534   0.42497   0.09465   0.00000  Uiso   1.00
H516   H     0.91434   0.43282   0.46271   0.00000  Uiso   1.00
H517   H     0.85401   0.50440   0.40206   0.00000  Uiso   1.00
O518   O     0.83333   0.50000   0.25000   0.00000  Uiso   1.00
O519   O     0.82360   0.45726   0.16625   0.00000  Uiso   1.00
O520   O     0.79354   0.53979   0.33749   0.00000  Uiso   1.00
O521   O     0.87755   0.50826   0.15877   0.00000  Uiso   1.00
O522   O     0.83865   0.49468   0.33749   0.00000  Uiso   1.00
O523   O     0.84515   0.41434   0.27821   0.00000  Uiso   1.00
O524   O     0.81247   0.59469   0.26767   0.00000  Uiso   1.00
O525   O     0.74119   0.46584   0.23607   0.00000  Uiso   1.00
O526   O     0.93452   0.52512   0.21805   0.00000  Uiso   1.00
O527   O     0.73656   0.52293   0.27820   0.00000  Uiso   1.00
O528   O     0.92106   0.48610   0.26767   0.00000  Uiso   1.00
O529   O     0.80467   0.40236   0.23607   0.00000  Uiso   1.00
O530   O     0.87104   0.58860   0.21806   0.00000  Uiso   1.00
Zn531  Zn    0.85910   0.47423   0.28278   0.00000  Uiso   1.00
Zn532  Zn    0.80125   0.45711   0.22258   0.00000  Uiso   1.00
Zn533  Zn    0.87833   0.52997   0.21188   0.00000  Uiso   1.00
Zn534  Zn    0.79465   0.53868   0.28277   0.00000  Uiso   1.00
C535   C     0.05246   0.82676   0.25864   0.00000  Uiso   1.00
C536   C     0.20200   0.80533   0.45977   0.00000  Uiso   1.00
C537   C     0.22279   0.78572   0.47958   0.00000  Uiso   1.00
C538   C     0.28104   0.84024   0.24114   0.00000  Uiso   1.00
C539   C     0.21204   0.79121   0.02041   0.00000  Uiso   1.00
C540   C     0.18031   0.81786   0.04225   0.00000  Uiso   1.00
C541   C     0.23282   0.77014   0.03954   0.00000  Uiso   1.00
C542   C     0.22307   0.77561   0.08017   0.00000  Uiso   1.00
C543   C     0.17564   0.82824   0.08325   0.00000  Uiso   1.00
C544   C     0.32712   0.84265   0.23730   0.00000  Uiso   1.00
C545   C     0.00704   0.82463   0.26213   0.00000  Uiso   1.00
C546   C     0.09053   0.87494   0.42149   0.00000  Uiso   1.00
C547   C     0.18055   0.98873   0.23798   0.00000  Uiso   1.00
C548   C     0.15109   0.67875   0.26198   0.00000  Uiso   1.00
C549   C     0.15572   0.72282   0.25891   0.00000  Uiso   1.00
C550   C     0.17671   0.94433   0.24131   0.00000  Uiso   1.00
C551   C     0.18841   0.81169   0.14413   0.00000  Uiso   1.00
C552   C     0.14439   0.85392   0.35629   0.00000  Uiso   1.00
C553   C     0.13020   0.85938   0.39976   0.00000  Uiso   1.00
C554   C     0.19530   0.80482   0.10190   0.00000  Uiso   1.00
C555   C     0.07833   0.87832   0.46287   0.00000  Uiso   1.00
C556   C     0.15844   0.86784   0.10504   0.00000  Uiso   1.00
C557   C     0.15633   0.84685   0.41958   0.00000  Uiso   1.00
C558   C     0.17771   0.90640   0.09127   0.00000  Uiso   1.00
C559   C     0.16359   0.94392   0.11223   0.00000  Uiso   1.00
C560   C     0.13000   0.94331   0.14713   0.00000  Uiso   1.00
C561   C     0.11010   0.90514   0.16082   0.00000  Uiso   1.00
C562   C     0.12394   0.86752   0.13980   0.00000  Uiso   1.00
C563   C     0.03855   0.89782   0.48540   0.00000  Uiso   1.00
C564   C     0.04200   0.93954   0.00237   0.00000  Uiso   1.00
C565   C     0.00469   0.95878   0.02203   0.00000  Uiso   1.00
C566   C     0.29716   0.93654   0.02478   0.00000  Uiso   1.00
C567   C     0.29352   0.89485   0.00817   0.00000  Uiso   1.00
C568   C     0.14306   0.84633   0.46055   0.00000  Uiso   1.00
C569   C     0.33077   0.87542   0.48862   0.00000  Uiso   1.00
C570   C     0.06042   0.88616   0.40162   0.00000  Uiso   1.00
C571   C     0.05931   0.92816   0.39736   0.00000  Uiso   1.00
C572   C     0.03049   0.93853   0.37899   0.00000  Uiso   1.00
C573   C     0.00253   0.90713   0.36505   0.00000  Uiso   1.00
C574   C     0.00333   0.86528   0.36946   0.00000  Uiso   1.00
C575   C     0.03224   0.85474   0.38761   0.00000  Uiso   1.00
C576   C     0.10400   0.86316   0.48237   0.00000  Uiso   1.00
C577   C     0.16737   0.82894   0.48034   0.00000  Uiso   1.00
C578   C     0.15471   0.83272   0.02212   0.00000  Uiso   1.00
C579   C     0.11457   0.84726   0.04242   0.00000  Uiso   1.00
C580   C     0.09014   0.86266   0.02317   0.00000  Uiso   1.00
H581   H     0.05951   0.87316   0.04072   0.00000  Uiso   1.00
H582   H     0.09990   0.84452   0.07322   0.00000  Uiso   1.00
H583   H     0.21203   0.79882   0.42826   0.00000  Uiso   1.00
H584   H     0.20382   0.90732   0.06442   0.00000  Uiso   1.00
H585   H     0.17885   0.97349   0.10151   0.00000  Uiso   1.00
H586   H     0.11930   0.97239   0.16349   0.00000  Uiso   1.00
H587   H     0.08397   0.90474   0.18777   0.00000  Uiso   1.00
H588   H     0.10764   0.83824   0.15050   0.00000  Uiso   1.00
H589   H     0.07354   0.95718   0.49995   0.00000  Uiso   1.00
H590   H     0.00744   0.99105   0.03488   0.00000  Uiso   1.00
H591   H     0.26842   0.95178   0.03965   0.00000  Uiso   1.00
H592   H     0.25620   0.74889   0.02306   0.00000  Uiso   1.00
H593   H     0.26190   0.87767   0.01015   0.00000  Uiso   1.00
H594   H     0.32765   0.84322   0.47561   0.00000  Uiso   1.00
H595   H     0.08074   0.95269   0.40820   0.00000  Uiso   1.00
H596   H     0.02979   0.97093   0.37563   0.00000  Uiso   1.00
H597   H     0.31356   0.91520   0.35087   0.00000  Uiso   1.00
H598   H     0.31490   0.84102   0.35879   0.00000  Uiso   1.00
H599   H     0.03261   0.82225   0.39093   0.00000  Uiso   1.00
H600   H     0.01699   0.85901   0.21416   0.00000  Uiso   1.00
H601   H     0.31777   0.80840   0.28567   0.00000  Uiso   1.00
H602   H     0.20770   0.66924   0.21586   0.00000  Uiso   1.00
H603   H     0.12355   0.99902   0.28418   0.00000  Uiso   1.00
H604   H     0.23867   0.75831   0.09465   0.00000  Uiso   1.00
H605   H     0.24768   0.76616   0.46271   0.00000  Uiso   1.00
H606   H     0.18734   0.83774   0.40206   0.00000  Uiso   1.00
O607   O     0.16667   0.83333   0.25000   0.00000  Uiso   1.00
O608   O     0.15693   0.79060   0.16625   0.00000  Uiso   1.00
O609   O     0.12687   0.87313   0.33749   0.00000  Uiso   1.00
O610   O     0.21088   0.84159   0.15877   0.00000  Uiso   1.00
O611   O     0.17198   0.82802   0.33749   0.00000  Uiso   1.00
O612   O     0.17849   0.74768   0.27821   0.00000  Uiso   1.00
O613   O     0.14581   0.92803   0.26767   0.00000  Uiso   1.00
O614   O     0.07452   0.79917   0.23607   0.00000  Uiso   1.00
O615   O     0.26785   0.85845   0.21805   0.00000  Uiso   1.00
O616   O     0.06990   0.85627   0.27820   0.00000  Uiso   1.00
O617   O     0.25440   0.81944   0.26767   0.00000  Uiso   1.00
O618   O     0.13800   0.73570   0.23607   0.00000  Uiso   1.00
O619   O     0.20437   0.92193   0.21806   0.00000  Uiso   1.00
Zn620  Zn    0.19244   0.80756   0.28278   0.00000  Uiso   1.00
Zn621  Zn    0.13459   0.79044   0.22258   0.00000  Uiso   1.00
Zn622  Zn    0.21166   0.86331   0.21188   0.00000  Uiso   1.00
Zn623  Zn    0.12798   0.87202   0.28277   0.00000  Uiso   1.00
C624   C     0.38579   0.82676   0.25864   0.00000  Uiso   1.00
C625   C     0.53533   0.80533   0.45977   0.00000  Uiso   1.00
C626   C     0.55612   0.78572   0.47958   0.00000  Uiso   1.00
C627   C     0.61437   0.84024   0.24114   0.00000  Uiso   1.00
C628   C     0.54537   0.79121   0.02041   0.00000  Uiso   1.00
C629   C     0.51365   0.81786   0.04225   0.00000  Uiso   1.00
C630   C     0.56616   0.77014   0.03954   0.00000  Uiso   1.00
C631   C     0.55640   0.77561   0.08017   0.00000  Uiso   1.00
C632   C     0.50898   0.82824   0.08325   0.00000  Uiso   1.00
C633   C     0.66046   0.84265   0.23730   0.00000  Uiso   1.00
C634   C     0.34037   0.82463   0.26213   0.00000  Uiso   1.00
C635   C     0.42386   0.87494   0.42149   0.00000  Uiso   1.00
C636   C     0.51388   0.98873   0.23798   0.00000  Uiso   1.00
C637   C     0.48443   0.67875   0.26198   0.00000  Uiso   1.00
C638   C     0.48906   0.72282   0.25891   0.00000  Uiso   1.00
C639   C     0.51005   0.94433   0.24131   0.00000  Uiso   1.00
C640   C     0.52175   0.81169   0.14413   0.00000  Uiso   1.00
C641   C     0.47772   0.85392   0.35629   0.00000  Uiso   1.00
C642   C     0.46353   0.85938   0.39976   0.00000  Uiso   1.00
C643   C     0.52864   0.80482   0.10190   0.00000  Uiso   1.00
C644   C     0.41167   0.87832   0.46287   0.00000  Uiso   1.00
C645   C     0.49177   0.86784   0.10504   0.00000  Uiso   1.00
C646   C     0.48966   0.84685   0.41958   0.00000  Uiso   1.00
C647   C     0.51104   0.90640   0.09127   0.00000  Uiso   1.00
C648   C     0.49692   0.94392   0.11223   0.00000  Uiso   1.00
C649   C     0.46334   0.94331   0.14713   0.00000  Uiso   1.00
C650   C     0.44343   0.90514   0.16082   0.00000  Uiso   1.00
C651   C     0.45727   0.86752   0.13980   0.00000  Uiso   1.00
C652   C     0.37189   0.89782   0.48540   0.00000  Uiso   1.00
C653   C     0.37534   0.93954   0.00237   0.00000  Uiso   1.00
C654   C     0.33802   0.95878   0.02203   0.00000  Uiso   1.00
C655   C     0.63049   0.93654   0.02478   0.00000  Uiso   1.00
C656   C     0.62686   0.89485   0.00817   0.00000  Uiso   1.00
C657   C     0.47640   0.84633   0.46055   0.00000  Uiso   1.00
C658   C     0.66411   0.87542   0.48862   0.00000  Uiso   1.00
C659   C     0.39375   0.88616   0.40162   0.00000  Uiso   1.00
C660   C     0.39264   0.92816   0.39736   0.00000  Uiso   1.00
C661   C     0.36383   0.93853   0.37899   0.00000  Uiso   1.00
C662   C     0.33587   0.90713   0.36505   0.00000  Uiso   1.00
C663   C     0.33666   0.86528   0.36946   0.00000  Uiso   1.00
C664   C     0.36557   0.85474   0.38761   0.00000  Uiso   1.00
C665   C     0.43733   0.86316   0.48237   0.00000  Uiso   1.00
C666   C     0.50070   0.82894   0.48034   0.00000  Uiso   1.00
C667   C     0.48804   0.83272   0.02212   0.00000  Uiso   1.00
C668   C     0.44790   0.84726   0.04242   0.00000  Uiso   1.00
C669   C     0.42347   0.86266   0.02317   0.00000  Uiso   1.00
H670   H     0.39285   0.87316   0.04072   0.00000  Uiso   1.00
H671   H     0.43323   0.84452   0.07322   0.00000  Uiso   1.00
H672   H     0.54536   0.79882   0.42826   0.00000  Uiso   1.00
H673   H     0.53715   0.90732   0.06442   0.00000  Uiso   1.00
H674   H     0.51218   0.97349   0.10151   0.00000  Uiso   1.00
H675   H     0.45264   0.97239   0.16349   0.00000  Uiso   1.00
H676   H     0.41730   0.90474   0.18777   0.00000  Uiso   1.00
H677   H     0.44098   0.83824   0.15050   0.00000  Uiso   1.00
H678   H     0.40687   0.95718   0.49995   0.00000  Uiso   1.00
H679   H     0.34077   0.99105   0.03488   0.00000  Uiso   1.00
H680   H     0.60175   0.95178   0.03965   0.00000  Uiso   1.00
H681   H     0.58953   0.74889   0.02306   0.00000  Uiso   1.00
H682   H     0.59523   0.87767   0.01015   0.00000  Uiso   1.00
H683   H     0.66098   0.84322   0.47561   0.00000  Uiso   1.00
H684   H     0.41407   0.95269   0.40820   0.00000  Uiso   1.00
H685   H     0.36312   0.97093   0.37563   0.00000  Uiso   1.00
H686   H     0.64689   0.91520   0.35087   0.00000  Uiso   1.00
H687   H     0.64823   0.84102   0.35879   0.00000  Uiso   1.00
H688   H     0.36594   0.82225   0.39093   0.00000  Uiso   1.00
H689   H     0.35032   0.85901   0.21416   0.00000  Uiso   1.00
H690   H     0.65110   0.80840   0.28567   0.00000  Uiso   1.00
H691   H     0.54104   0.66924   0.21586   0.00000  Uiso   1.00
H692   H     0.45689   0.99902   0.28418   0.00000  Uiso   1.00
H693   H     0.57200   0.75831   0.09465   0.00000  Uiso   1.00
H694   H     0.58101   0.76616   0.46271   0.00000  Uiso   1.00
H695   H     0.52067   0.83774   0.40206   0.00000  Uiso   1.00
O696   O     0.50000   0.83333   0.25000   0.00000  Uiso   1.00
O697   O     0.49027   0.79060   0.16625   0.00000  Uiso   1.00
O698   O     0.46020   0.87313   0.33749   0.00000  Uiso   1.00
O699   O     0.54421   0.84159   0.15877   0.00000  Uiso   1.00
O700   O     0.50532   0.82802   0.33749   0.00000  Uiso   1.00
O701   O     0.51182   0.74768   0.27821   0.00000  Uiso   1.00
O702   O     0.47914   0.92803   0.26767   0.00000  Uiso   1.00
O703   O     0.40785   0.79917   0.23607   0.00000  Uiso   1.00
O704   O     0.60119   0.85845   0.21805   0.00000  Uiso   1.00
O705   O     0.40323   0.85627   0.27820   0.00000  Uiso   1.00
O706   O     0.58773   0.81944   0.26767   0.00000  Uiso   1.00
O707   O     0.47133   0.73570   0.23607   0.00000  Uiso   1.00
O708   O     0.53771   0.92193   0.21806   0.00000  Uiso   1.00
Zn709  Zn    0.52577   0.80756   0.28278   0.00000  Uiso   1.00
Zn710  Zn    0.46792   0.79044   0.22258   0.00000  Uiso   1.00
Zn711  Zn    0.54500   0.86331   0.21188   0.00000  Uiso   1.00
Zn712  Zn    0.46131   0.87202   0.28277   0.00000  Uiso   1.00
C713   C     0.71913   0.82676   0.25864   0.00000  Uiso   1.00
C714   C     0.86867   0.80533   0.45977   0.00000  Uiso   1.00
C715   C     0.88946   0.78572   0.47958   0.00000  Uiso   1.00
C716   C     0.94770   0.84024   0.24114   0.00000  Uiso   1.00
C717   C     0.87870   0.79121   0.02041   0.00000  Uiso   1.00
C718   C     0.84698   0.81786   0.04225   0.00000  Uiso   1.00
C719   C     0.89949   0.77014   0.03954   0.00000  Uiso   1.00
C720   C     0.88974   0.77561   0.08017   0.00000  Uiso   1.00
C721   C     0.84231   0.82824   0.08325   0.00000  Uiso   1.00
C722   C     0.99379   0.84265   0.23730   0.00000  Uiso   1.00
C723   C     0.67370   0.82463   0.26213   0.00000  Uiso   1.00
C724   C     0.75719   0.87494   0.42149   0.00000  Uiso   1.00
C725   C     0.84721   0.98873   0.23798   0.00000  Uiso   1.00
C726   C     0.81776   0.67875   0.26198   0.00000  Uiso   1.00
C727   C     0.82239   0.72282   0.25891   0.00000  Uiso   1.00
C728   C     0.84338   0.94433   0.24131   0.00000  Uiso   1.00
C729   C     0.85508   0.81169   0.14413   0.00000  Uiso   1.00
C730   C     0.81105   0.85392   0.35629   0.00000  Uiso   1.00
C731   C     0.79686   0.85938   0.39976   0.00000  Uiso   1.00
C732   C     0.86197   0.80482   0.10190   0.00000  Uiso   1.00
C733   C     0.74500   0.87832   0.46287   0.00000  Uiso   1.00
C734   C     0.82511   0.86784   0.10504   0.00000  Uiso   1.00
C735   C     0.82299   0.84685   0.41958   0.00000  Uiso   1.00
C736   C     0.84438   0.90640   0.09127   0.00000  Uiso   1.00
C737   C     0.83026   0.94392   0.11223   0.00000  Uiso   1.00
C738   C     0.79667   0.94331   0.14713   0.00000  Uiso   1.00
C739   C     0.77677   0.90514   0.16082   0.00000  Uiso   1.00
C740   C     0.79060   0.86752   0.13980   0.00000  Uiso   1.00
C741   C     0.70522   0.89782   0.48540   0.00000  Uiso   1.00
C742   C     0.70867   0.93954   0.00237   0.00000  Uiso   1.00
C743   C     0.67136   0.95878   0.02203   0.00000  Uiso   1.00
C744   C     0.96383   0.93654   0.02478   0.00000  Uiso   1.00
C745   C     0.96019   0.89485   0.00817   0.00000  Uiso   1.00
C746   C     0.80973   0.84633   0.46055   0.00000  Uiso   1.00
C747   C     0.99744   0.87542   0.48862   0.00000  Uiso   1.00
C748   C     0.72708   0.88616   0.40162   0.00000  Uiso   1.00
C749   C     0.72598   0.92816   0.39736   0.00000  Uiso   1.00
C750   C     0.69716   0.93853   0.37899   0.00000  Uiso   1.00
C751   C     0.66920   0.90713   0.36505   0.00000  Uiso   1.00
C752   C     0.66999   0.86528   0.36946   0.00000  Uiso   1.00
C753   C     0.69891   0.85474   0.38761   0.00000  Uiso   1.00
C754   C     0.77066   0.86316   0.48237   0.00000  Uiso   1.00
C755   C     0.83404   0.82894   0.48034   0.00000  Uiso   1.00
C756   C     0.82138   0.83272   0.02212   0.00000  Uiso   1.00
C757   C     0.78124   0.84726   0.04242   0.00000  Uiso   1.00
C758   C     0.75680   0.86266   0.02317   0.00000  Uiso   1.00
H759   H     0.72618   0.87316   0.04072   0.00000  Uiso   1.00
H760   H     0.76657   0.84452   0.07322   0.00000  Uiso   1.00
H761   H     0.87869   0.79882   0.42826   0.00000  Uiso   1.00
H762   H     0.87049   0.90732   0.06442   0.00000  Uiso   1.00
H763   H     0.84552   0.97349   0.10151   0.00000  Uiso   1.00
H764   H     0.78597   0.97239   0.16349   0.00000  Uiso   1.00
H765   H     0.75064   0.90474   0.18777   0.00000  Uiso   1.00
H766   H     0.77431   0.83824   0.15050   0.00000  Uiso   1.00
H767   H     0.74021   0.95718   0.49995   0.00000  Uiso   1.00
H768   H     0.67410   0.99105   0.03488   0.00000  Uiso   1.00
H769   H     0.93508   0.95178   0.03965   0.00000  Uiso   1.00
H770   H     0.92287   0.74889   0.02306   0.00000  Uiso   1.00
H771   H     0.92857   0.87767   0.01015   0.00000  Uiso   1.00
H772   H     0.99432   0.84322   0.47561   0.00000  Uiso   1.00
H773   H     0.74741   0.95269   0.40820   0.00000  Uiso   1.00
H774   H     0.69645   0.97093   0.37563   0.00000  Uiso   1.00
H775   H     0.98023   0.91520   0.35087   0.00000  Uiso   1.00
H776   H     0.98157   0.84102   0.35879   0.00000  Uiso   1.00
H777   H     0.69928   0.82225   0.39093   0.00000  Uiso   1.00
H778   H     0.68365   0.85901   0.21416   0.00000  Uiso   1.00
H779   H     0.98444   0.80840   0.28567   0.00000  Uiso   1.00
H780   H     0.87437   0.66924   0.21586   0.00000  Uiso   1.00
H781   H     0.79022   0.99902   0.28418   0.00000  Uiso   1.00
H782   H     0.90534   0.75831   0.09465   0.00000  Uiso   1.00
H783   H     0.91434   0.76616   0.46271   0.00000  Uiso   1.00
H784   H     0.85401   0.83774   0.40206   0.00000  Uiso   1.00
O785   O     0.83333   0.83333   0.25000   0.00000  Uiso   1.00
O786   O     0.82360   0.79060   0.16625   0.00000  Uiso   1.00
O787   O     0.79354   0.87313   0.33749   0.00000  Uiso   1.00
O788   O     0.87755   0.84159   0.15877   0.00000  Uiso   1.00
O789   O     0.83865   0.82802   0.33749   0.00000  Uiso   1.00
O790   O     0.84515   0.74768   0.27821   0.00000  Uiso   1.00
O791   O     0.81247   0.92803   0.26767   0.00000  Uiso   1.00
O792   O     0.74119   0.79917   0.23607   0.00000  Uiso   1.00
O793   O     0.93452   0.85845   0.21805   0.00000  Uiso   1.00
O794   O     0.73656   0.85627   0.27820   0.00000  Uiso   1.00
O795   O     0.92106   0.81944   0.26767   0.00000  Uiso   1.00
O796   O     0.80467   0.73570   0.23607   0.00000  Uiso   1.00
O797   O     0.87104   0.92193   0.21806   0.00000  Uiso   1.00
Zn798  Zn    0.85910   0.80756   0.28278   0.00000  Uiso   1.00
Zn799  Zn    0.80125   0.79044   0.22258   0.00000  Uiso   1.00
Zn800  Zn    0.87833   0.86331   0.21188   0.00000  Uiso   1.00
Zn801  Zn    0.79465   0.87202   0.28277   0.00000  Uiso   1.00
C802   C     0.05246   0.16009   0.75864   0.00000  Uiso   1.00
C803   C     0.20200   0.13866   0.95977   0.00000  Uiso   1.00
C804   C     0.22279   0.11905   0.97958   0.00000  Uiso   1.00
C805   C     0.28104   0.17357   0.74114   0.00000  Uiso   1.00
C806   C     0.21204   0.12455   0.52041   0.00000  Uiso   1.00
C807   C     0.18031   0.15119   0.54225   0.00000  Uiso   1.00
C808   C     0.23282   0.10347   0.53954   0.00000  Uiso   1.00
C809   C     0.22307   0.10894   0.58017   0.00000  Uiso   1.00
C810   C     0.17564   0.16157   0.58325   0.00000  Uiso   1.00
C811   C     0.32712   0.17599   0.73730   0.00000  Uiso   1.00
C812   C     0.00704   0.15796   0.76213   0.00000  Uiso   1.00
C813   C     0.09053   0.20827   0.92149   0.00000  Uiso   1.00
C814   C     0.18055   0.32207   0.73798   0.00000  Uiso   1.00
C815   C     0.15109   0.01208   0.76198   0.00000  Uiso   1.00
C816   C     0.15572   0.05615   0.75891   0.00000  Uiso   1.00
C817   C     0.17671   0.27766   0.74131   0.00000  Uiso   1.00
C818   C     0.18841   0.14502   0.64413   0.00000  Uiso   1.00
C819   C     0.14439   0.18726   0.85629   0.00000  Uiso   1.00
C820   C     0.13020   0.19271   0.89976   0.00000  Uiso   1.00
C821   C     0.19530   0.13816   0.60190   0.00000  Uiso   1.00
C822   C     0.07833   0.21165   0.96287   0.00000  Uiso   1.00
C823   C     0.15844   0.20117   0.60504   0.00000  Uiso   1.00
C824   C     0.15633   0.18019   0.91958   0.00000  Uiso   1.00
C825   C     0.17771   0.23973   0.59127   0.00000  Uiso   1.00
C826   C     0.16359   0.27725   0.61223   0.00000  Uiso   1.00
C827   C     0.13000   0.27664   0.64713   0.00000  Uiso   1.00
C828   C     0.11010   0.23847   0.66082   0.00000  Uiso   1.00
C829   C     0.12394   0.20086   0.63980   0.00000  Uiso   1.00
C830   C     0.03855   0.23116   0.98540   0.00000  Uiso   1.00
C831   C     0.04200   0.27287   0.50237   0.00000  Uiso   1.00
C832   C     0.00469   0.29212   0.52203   0.00000  Uiso   1.00
C833   C     0.29716   0.26987   0.52478   0.00000  Uiso   1.00
C834   C     0.29352   0.22818   0.50817   0.00000  Uiso   1.00
C835   C     0.14306   0.17966   0.96055   0.00000  Uiso   1.00
C836   C     0.33077   0.20875   0.98862   0.00000  Uiso   1.00
C837   C     0.06042   0.21949   0.90162   0.00000  Uiso   1.00
C838   C     0.05931   0.26149   0.89736   0.00000  Uiso   1.00
C839   C     0.03049   0.27187   0.87899   0.00000  Uiso   1.00
C840   C     0.00253   0.24046   0.86505   0.00000  Uiso   1.00
C841   C     0.00333   0.19861   0.86946   0.00000  Uiso   1.00
C842   C     0.03224   0.18808   0.88761   0.00000  Uiso   1.00
C843   C     0.10400   0.19649   0.98237   0.00000  Uiso   1.00
C844   C     0.16737   0.16227   0.98034   0.00000  Uiso   1.00
C845   C     0.15471   0.16606   0.52212   0.00000  Uiso   1.00
C846   C     0.11457   0.18059   0.54242   0.00000  Uiso   1.00
C847   C     0.09014   0.19599   0.52317   0.00000  Uiso   1.00
H848   H     0.05951   0.20649   0.54072   0.00000  Uiso   1.00
H849   H     0.09990   0.17785   0.57322   0.00000  Uiso   1.00
H850   H     0.21203   0.13215   0.92826   0.00000  Uiso   1.00
H851   H     0.20382   0.24065   0.56442   0.00000  Uiso   1.00
H852   H     0.17885   0.30682   0.60151   0.00000  Uiso   1.00
H853   H     0.11930   0.30572   0.66349   0.00000  Uiso   1.00
H854   H     0.08397   0.23808   0.68777   0.00000  Uiso   1.00
H855   H     0.10764   0.17158   0.65050   0.00000  Uiso   1.00
H856   H     0.07354   0.29051   0.99995   0.00000  Uiso   1.00
H857   H     0.00744   0.32438   0.53488   0.00000  Uiso   1.00
H858   H     0.26842   0.28511   0.53965   0.00000  Uiso   1.00
H859   H     0.25620   0.08222   0.52306   0.00000  Uiso   1.00
H860   H     0.26190   0.21100   0.51015   0.00000  Uiso   1.00
H861   H     0.32765   0.17655   0.97561   0.00000  Uiso   1.00
H862   H     0.08074   0.28602   0.90820   0.00000  Uiso   1.00
H863   H     0.02979   0.30426   0.87563   0.00000  Uiso   1.00
H864   H     0.31356   0.24854   0.85087   0.00000  Uiso   1.00
H865   H     0.31490   0.17435   0.85879   0.00000  Uiso   1.00
H866   H     0.03261   0.15558   0.89093   0.00000  Uiso   1.00
H867   H     0.01699   0.19235   0.71416   0.00000  Uiso   1.00
H868   H     0.31777   0.14174   0.78567   0.00000  Uiso   1.00
H869   H     0.20770   0.00257   0.71586   0.00000  Uiso   1.00
H870   H     0.12355   0.33235   0.78418   0.00000  Uiso   1.00
H871   H     0.23867   0.09164   0.59465   0.00000  Uiso   1.00
H872   H     0.24768   0.09949   0.96271   0.00000  Uiso   1.00
H873   H     0.18734   0.17107   0.90206   0.00000  Uiso   1.00
O874   O     0.16667   0.16667   0.75000   0.00000  Uiso   1.00
O875   O     0.15693   0.12393   0.66625   0.00000  Uiso   1.00
O876   O     0.12687   0.20646   0.83749   0.00000  Uiso   1.00
O877   O     0.21088   0.17493   0.65877   0.00000  Uiso   1.00
O878   O     0.17198   0.16135   0.83749   0.00000  Uiso   1.00
O879   O     0.17849   0.08101   0.77821   0.00000  Uiso   1.00
O880   O     0.14581   0.26136   0.76767   0.00000  Uiso   1.00
O881   O     0.07452   0.13251   0.73607   0.00000  Uiso   1.00
O882   O     0.26785   0.19179   0.71805   0.00000  Uiso   1.00
O883   O     0.06990   0.18960   0.77820   0.00000  Uiso   1.00
O884   O     0.25440   0.15277   0.76767   0.00000  Uiso   1.00
O885   O     0.13800   0.06903   0.73607   0.00000  Uiso   1.00
O886   O     0.20437   0.25527   0.71806   0.00000  Uiso   1.00
Zn887  Zn    0.19244   0.14090   0.78278   0.00000  Uiso   1.00
Zn888  Zn    0.13459   0.12378   0.72258   0.00000  Uiso   1.00
Zn889  Zn    0.21166   0.19664   0.71188   0.00000  Uiso   1.00
Zn890  Zn    0.12798   0.20535   0.78277   0.00000  Uiso   1.00
C891   C     0.38579   0.16009   0.75864   0.00000  Uiso   1.00
C892   C     0.53533   0.13866   0.95977   0.00000  Uiso   1.00
C893   C     0.55612   0.11905   0.97958   0.00000  Uiso   1.00
C894   C     0.61437   0.17357   0.74114   0.00000  Uiso   1.00
C895   C     0.54537   0.12455   0.52041   0.00000  Uiso   1.00
C896   C     0.51365   0.15119   0.54225   0.00000  Uiso   1.00
C897   C     0.56616   0.10347   0.53954   0.00000  Uiso   1.00
C898   C     0.55640   0.10894   0.58017   0.00000  Uiso   1.00
C899   C     0.50898   0.16157   0.58325   0.00000  Uiso   1.00
C900   C     0.66046   0.17599   0.73730   0.00000  Uiso   1.00
C901   C     0.34037   0.15796   0.76213   0.00000  Uiso   1.00
C902   C     0.42386   0.20827   0.92149   0.00000  Uiso   1.00
C903   C     0.51388   0.32207   0.73798   0.00000  Uiso   1.00
C904   C     0.48443   0.01208   0.76198   0.00000  Uiso   1.00
C905   C     0.48906   0.05615   0.75891   0.00000  Uiso   1.00
C906   C     0.51005   0.27766   0.74131   0.00000  Uiso   1.00
C907   C     0.52175   0.14502   0.64413   0.00000  Uiso   1.00
C908   C     0.47772   0.18726   0.85629   0.00000  Uiso   1.00
C909   C     0.46353   0.19271   0.89976   0.00000  Uiso   1.00
C910   C     0.52864   0.13816   0.60190   0.00000  Uiso   1.00
C911   C     0.41167   0.21165   0.96287   0.00000  Uiso   1.00
C912   C     0.49177   0.20117   0.60504   0.00000  Uiso   1.00
C913   C     0.48966   0.18019   0.91958   0.00000  Uiso   1.00
C914   C     0.51104   0.23973   0.59127   0.00000  Uiso   1.00
C915   C     0.49692   0.27725   0.61223   0.00000  Uiso   1.00
C916   C     0.46334   0.27664   0.64713   0.00000  Uiso   1.00
C917   C     0.44343   0.23847   0.66082   0.00000  Uiso   1.00
C918   C     0.45727   0.20086   0.63980   0.00000  Uiso   1.00
C919   C     0.37189   0.23116   0.98540   0.00000  Uiso   1.00
C920   C     0.37534   0.27287   0.50237   0.00000  Uiso   1.00
C921   C     0.33802   0.29212   0.52203   0.00000  Uiso   1.00
C922   C     0.63049   0.26987   0.52478   0.00000  Uiso   1.00
C923   C     0.62686   0.22818   0.50817   0.00000  Uiso   1.00
C924   C     0.47640   0.17966   0.96055   0.00000  Uiso   1.00
C925   C     0.66411   0.20875   0.98862   0.00000  Uiso   1.00
C926   C     0.39375   0.21949   0.90162   0.00000  Uiso   1.00
C927   C     0.39264   0.26149   0.89736   0.00000  Uiso   1.00
C928   C     0.36383   0.27187   0.87899   0.00000  Uiso   1.00
C929   C     0.33587   0.24046   0.86505   0.00000  Uiso   1.00
C930   C     0.33666   0.19861   0.86946   0.00000  Uiso   1.00
C931   C     0.36557   0.18808   0.88761   0.00000  Uiso   1.00
C932   C     0.43733   0.19649   0.98237   0.00000  Uiso   1.00
C933   C     0.50070   0.16227   0.98034   0.00000  Uiso   1.00
C934   C     0.48804   0.16606   0.52212   0.00000  Uiso   1.00
C935   C     0.44790   0.18059   0.54242   0.00000  Uiso   1.00
C936   C     0.42347   0.19599   0.52317   0.00000  Uiso   1.00
H937   H     0.39285   0.20649   0.54072   0.00000  Uiso   1.00
H938   H     0.43323   0.17785   0.57322   0.00000  Uiso   1.00
H939   H     0.54536   0.13215   0.92826   0.00000  Uiso   1.00
H940   H     0.53715   0.24065   0.56442   0.00000  Uiso   1.00
H941   H     0.51218   0.30682   0.60151   0.00000  Uiso   1.00
H942   H     0.45264   0.30572   0.66349   0.00000  Uiso   1.00
H943   H     0.41730   0.23808   0.68777   0.00000  Uiso   1.00
H944   H     0.44098   0.17158   0.65050   0.00000  Uiso   1.00
H945   H     0.40687   0.29051   0.99995   0.00000  Uiso   1.00
H946   H     0.34077   0.32438   0.53488   0.00000  Uiso   1.00
H947   H     0.60175   0.28511   0.53965   0.00000  Uiso   1.00
H948   H     0.58953   0.08222   0.52306   0.00000  Uiso   1.00
H949   H     0.59523   0.21100   0.51015   0.00000  Uiso   1.00
H950   H     0.66098   0.17655   0.97561   0.00000  Uiso   1.00
H951   H     0.41407   0.28602   0.90820   0.00000  Uiso   1.00
H952   H     0.36312   0.30426   0.87563   0.00000  Uiso   1.00
H953   H     0.64689   0.24854   0.85087   0.00000  Uiso   1.00
H954   H     0.64823   0.17435   0.85879   0.00000  Uiso   1.00
H955   H     0.36594   0.15558   0.89093   0.00000  Uiso   1.00
H956   H     0.35032   0.19235   0.71416   0.00000  Uiso   1.00
H957   H     0.65110   0.14174   0.78567   0.00000  Uiso   1.00
H958   H     0.54104   0.00257   0.71586   0.00000  Uiso   1.00
H959   H     0.45689   0.33235   0.78418   0.00000  Uiso   1.00
H960   H     0.57200   0.09164   0.59465   0.00000  Uiso   1.00
H961   H     0.58101   0.09949   0.96271   0.00000  Uiso   1.00
H962   H     0.52067   0.17107   0.90206   0.00000  Uiso   1.00
O963   O     0.50000   0.16667   0.75000   0.00000  Uiso   1.00
O964   O     0.49027   0.12393   0.66625   0.00000  Uiso   1.00
O965   O     0.46020   0.20646   0.83749   0.00000  Uiso   1.00
O966   O     0.54421   0.17493   0.65877   0.00000  Uiso   1.00
O967   O     0.50532   0.16135   0.83749   0.00000  Uiso   1.00
O968   O     0.51182   0.08101   0.77821   0.00000  Uiso   1.00
O969   O     0.47914   0.26136   0.76767   0.00000  Uiso   1.00
O970   O     0.40785   0.13251   0.73607   0.00000  Uiso   1.00
O971   O     0.60119   0.19179   0.71805   0.00000  Uiso   1.00
O972   O     0.40323   0.18960   0.77820   0.00000  Uiso   1.00
O973   O     0.58773   0.15277   0.76767   0.00000  Uiso   1.00
O974   O     0.47133   0.06903   0.73607   0.00000  Uiso   1.00
O975   O     0.53771   0.25527   0.71806   0.00000  Uiso   1.00
Zn976  Zn    0.52577   0.14090   0.78278   0.00000  Uiso   1.00
Zn977  Zn    0.46792   0.12378   0.72258   0.00000  Uiso   1.00
Zn978  Zn    0.54500   0.19664   0.71188   0.00000  Uiso   1.00
Zn979  Zn    0.46131   0.20535   0.78277   0.00000  Uiso   1.00
C980   C     0.71913   0.16009   0.75864   0.00000  Uiso   1.00
C981   C     0.86867   0.13866   0.95977   0.00000  Uiso   1.00
C982   C     0.88946   0.11905   0.97958   0.00000  Uiso   1.00
C983   C     0.94770   0.17357   0.74114   0.00000  Uiso   1.00
C984   C     0.87870   0.12455   0.52041   0.00000  Uiso   1.00
C985   C     0.84698   0.15119   0.54225   0.00000  Uiso   1.00
C986   C     0.89949   0.10347   0.53954   0.00000  Uiso   1.00
C987   C     0.88974   0.10894   0.58017   0.00000  Uiso   1.00
C988   C     0.84231   0.16157   0.58325   0.00000  Uiso   1.00
C989   C     0.99379   0.17599   0.73730   0.00000  Uiso   1.00
C990   C     0.67370   0.15796   0.76213   0.00000  Uiso   1.00
C991   C     0.75719   0.20827   0.92149   0.00000  Uiso   1.00
C992   C     0.84721   0.32207   0.73798   0.00000  Uiso   1.00
C993   C     0.81776   0.01208   0.76198   0.00000  Uiso   1.00
C994   C     0.82239   0.05615   0.75891   0.00000  Uiso   1.00
C995   C     0.84338   0.27766   0.74131   0.00000  Uiso   1.00
C996   C     0.85508   0.14502   0.64413   0.00000  Uiso   1.00
C997   C     0.81105   0.18726   0.85629   0.00000  Uiso   1.00
C998   C     0.79686   0.19271   0.89976   0.00000  Uiso   1.00
C999   C     0.86197   0.13816   0.60190   0.00000  Uiso   1.00
C1000  C     0.74500   0.21165   0.96287   0.00000  Uiso   1.00
C1001  C     0.82511   0.20117   0.60504   0.00000  Uiso   1.00
C1002  C     0.82299   0.18019   0.91958   0.00000  Uiso   1.00
C1003  C     0.84438   0.23973   0.59127   0.00000  Uiso   1.00
C1004  C     0.83026   0.27725   0.61223   0.00000  Uiso   1.00
C1005  C     0.79667   0.27664   0.64713   0.00000  Uiso   1.00
C1006  C     0.77677   0.23847   0.66082   0.00000  Uiso   1.00
C1007  C     0.79060   0.20086   0.63980   0.00000  Uiso   1.00
C1008  C     0.70522   0.23116   0.98540   0.00000  Uiso   1.00
C1009  C     0.70867   0.27287   0.50237   0.00000  Uiso   1.00
C1010  C     0.67136   0.29212   0.52203   0.00000  Uiso   1.00
C1011  C     0.96383   0.26987   0.52478   0.00000  Uiso   1.00
C1012  C     0.96019   0.22818   0.50817   0.00000  Uiso   1.00
C1013  C     0.80973   0.17966   0.96055   0.00000  Uiso   1.00
C1014  C     0.99744   0.20875   0.98862   0.00000  Uiso   1.00
C1015  C     0.72708   0.21949   0.90162   0.00000  Uiso   1.00
C1016  C     0.72598   0.26149   0.89736   0.00000  Uiso   1.00
C1017  C     0.69716   0.27187   0.87899   0.00000  Uiso   1.00
C1018  C     0.66920   0.24046   0.86505   0.00000  Uiso   1.00
C1019  C     0.66999   0.19861   0.86946   0.00000  Uiso   1.00
C1020  C     0.69891   0.18808   0.88761   0.00000  Uiso   1.00
C1021  C     0.77066   0.19649   0.98237   0.00000  Uiso   1.00
C1022  C     0.83404   0.16227   0.98034   0.00000  Uiso   1.00
C1023  C     0.82138   0.16606   0.52212   0.00000  Uiso   1.00
C1024  C     0.78124   0.18059   0.54242   0.00000  Uiso   1.00
C1025  C     0.75680   0.19599   0.52317   0.00000  Uiso   1.00
H1026  H     0.72618   0.20649   0.54072   0.00000  Uiso   1.00
H1027  H     0.76657   0.17785   0.57322   0.00000  Uiso   1.00
H1028  H     0.87869   0.13215   0.92826   0.00000  Uiso   1.00
H1029  H     0.87049   0.24065   0.56442   0.00000  Uiso   1.00
H1030  H     0.84552   0.30682   0.60151   0.00000  Uiso   1.00
H1031  H     0.78597   0.30572   0.66349   0.00000  Uiso   1.00
H1032  H     0.75064   0.23808   0.68777   0.00000  Uiso   1.00
H1033  H     0.77431   0.17158   0.65050   0.00000  Uiso   1.00
H1034  H     0.74021   0.29051   0.99995   0.00000  Uiso   1.00
H1035  H     0.67410   0.32438   0.53488   0.00000  Uiso   1.00
H1036  H     0.93508   0.28511   0.53965   0.00000  Uiso   1.00
H1037  H     0.92287   0.08222   0.52306   0.00000  Uiso   1.00
H1038  H     0.92857   0.21100   0.51015   0.00000  Uiso   1.00
H1039  H     0.99432   0.17655   0.97561   0.00000  Uiso   1.00
H1040  H     0.74741   0.28602   0.90820   0.00000  Uiso   1.00
H1041  H     0.69645   0.30426   0.87563   0.00000  Uiso   1.00
H1042  H     0.98023   0.24854   0.85087   0.00000  Uiso   1.00
H1043  H     0.98157   0.17435   0.85879   0.00000  Uiso   1.00
H1044  H     0.69928   0.15558   0.89093   0.00000  Uiso   1.00
H1045  H     0.68365   0.19235   0.71416   0.00000  Uiso   1.00
H1046  H     0.98444   0.14174   0.78567   0.00000  Uiso   1.00
H1047  H     0.87437   0.00257   0.71586   0.00000  Uiso   1.00
H1048  H     0.79022   0.33235   0.78418   0.00000  Uiso   1.00
H1049  H     0.90534   0.09164   0.59465   0.00000  Uiso   1.00
H1050  H     0.91434   0.09949   0.96271   0.00000  Uiso   1.00
H1051  H     0.85401   0.17107   0.90206   0.00000  Uiso   1.00
O1052  O     0.83333   0.16667   0.75000   0.00000  Uiso   1.00
O1053  O     0.82360   0.12393   0.66625   0.00000  Uiso   1.00
O1054  O     0.79354   0.20646   0.83749   0.00000  Uiso   1.00
O1055  O     0.87755   0.17493   0.65877   0.00000  Uiso   1.00
O1056  O     0.83865   0.16135   0.83749   0.00000  Uiso   1.00
O1057  O     0.84515   0.08101   0.77821   0.00000  Uiso   1.00
O1058  O     0.81247   0.26136   0.76767   0.00000  Uiso   1.00
O1059  O     0.74119   0.13251   0.73607   0.00000  Uiso   1.00
O1060  O     0.93452   0.19179   0.71805   0.00000  Uiso   1.00
O1061  O     0.73656   0.18960   0.77820   0.00000  Uiso   1.00
O1062  O     0.92106   0.15277   0.76767   0.00000  Uiso   1.00
O1063  O     0.80467   0.06903   0.73607   0.00000  Uiso   1.00
O1064  O     0.87104   0.25527   0.71806   0.00000  Uiso   1.00
Zn1065 Zn    0.85910   0.14090   0.78278   0.00000  Uiso   1.00
Zn1066 Zn    0.80125   0.12378   0.72258   0.00000  Uiso   1.00
Zn1067 Zn    0.87833   0.19664   0.71188   0.00000  Uiso   1.00
Zn1068 Zn    0.79465   0.20535   0.78277   0.00000  Uiso   1.00
C1069  C     0.05246   0.49342   0.75864   0.00000  Uiso   1.00
C1070  C     0.20200   0.47199   0.95977   0.00000  Uiso   1.00
C1071  C     0.22279   0.45238   0.97958   0.00000  Uiso   1.00
C1072  C     0.28104   0.50691   0.74114   0.00000  Uiso   1.00
C1073  C     0.21204   0.45788   0.52041   0.00000  Uiso   1.00
C1074  C     0.18031   0.48452   0.54225   0.00000  Uiso   1.00
C1075  C     0.23282   0.43680   0.53954   0.00000  Uiso   1.00
C1076  C     0.22307   0.44227   0.58017   0.00000  Uiso   1.00
C1077  C     0.17564   0.49490   0.58325   0.00000  Uiso   1.00
C1078  C     0.32712   0.50932   0.73730   0.00000  Uiso   1.00
C1079  C     0.00704   0.49129   0.76213   0.00000  Uiso   1.00
C1080  C     0.09053   0.54160   0.92149   0.00000  Uiso   1.00
C1081  C     0.18055   0.65540   0.73798   0.00000  Uiso   1.00
C1082  C     0.15109   0.34542   0.76198   0.00000  Uiso   1.00
C1083  C     0.15572   0.38948   0.75891   0.00000  Uiso   1.00
C1084  C     0.17671   0.61099   0.74131   0.00000  Uiso   1.00
C1085  C     0.18841   0.47836   0.64413   0.00000  Uiso   1.00
C1086  C     0.14439   0.52059   0.85629   0.00000  Uiso   1.00
C1087  C     0.13020   0.52604   0.89976   0.00000  Uiso   1.00
C1088  C     0.19530   0.47149   0.60190   0.00000  Uiso   1.00
C1089  C     0.07833   0.54498   0.96287   0.00000  Uiso   1.00
C1090  C     0.15844   0.53450   0.60504   0.00000  Uiso   1.00
C1091  C     0.15633   0.51352   0.91958   0.00000  Uiso   1.00
C1092  C     0.17771   0.57306   0.59127   0.00000  Uiso   1.00
C1093  C     0.16359   0.61059   0.61223   0.00000  Uiso   1.00
C1094  C     0.13000   0.60997   0.64713   0.00000  Uiso   1.00
C1095  C     0.11010   0.57181   0.66082   0.00000  Uiso   1.00
C1096  C     0.12394   0.53419   0.63980   0.00000  Uiso   1.00
C1097  C     0.03855   0.56449   0.98540   0.00000  Uiso   1.00
C1098  C     0.04200   0.60620   0.50237   0.00000  Uiso   1.00
C1099  C     0.00469   0.62545   0.52203   0.00000  Uiso   1.00
C1100  C     0.29716   0.60321   0.52478   0.00000  Uiso   1.00
C1101  C     0.29352   0.56151   0.50817   0.00000  Uiso   1.00
C1102  C     0.14306   0.51300   0.96055   0.00000  Uiso   1.00
C1103  C     0.33077   0.54209   0.98862   0.00000  Uiso   1.00
C1104  C     0.06042   0.55282   0.90162   0.00000  Uiso   1.00
C1105  C     0.05931   0.59482   0.89736   0.00000  Uiso   1.00
C1106  C     0.03049   0.60520   0.87899   0.00000  Uiso   1.00
C1107  C     0.00253   0.57379   0.86505   0.00000  Uiso   1.00
C1108  C     0.00333   0.53195   0.86946   0.00000  Uiso   1.00
C1109  C     0.03224   0.52141   0.88761   0.00000  Uiso   1.00
C1110  C     0.10400   0.52983   0.98237   0.00000  Uiso   1.00
C1111  C     0.16737   0.49560   0.98034   0.00000  Uiso   1.00
C1112  C     0.15471   0.49939   0.52212   0.00000  Uiso   1.00
C1113  C     0.11457   0.51392   0.54242   0.00000  Uiso   1.00
C1114  C     0.09014   0.52932   0.52317   0.00000  Uiso   1.00
H1115  H     0.05951   0.53983   0.54072   0.00000  Uiso   1.00
H1116  H     0.09990   0.51118   0.57322   0.00000  Uiso   1.00
H1117  H     0.21203   0.46548   0.92826   0.00000  Uiso   1.00
H1118  H     0.20382   0.57398   0.56442   0.00000  Uiso   1.00
H1119  H     0.17885   0.64015   0.60151   0.00000  Uiso   1.00
H1120  H     0.11930   0.63906   0.66349   0.00000  Uiso   1.00
H1121  H     0.08397   0.57141   0.68777   0.00000  Uiso   1.00
H1122  H     0.10764   0.50491   0.65050   0.00000  Uiso   1.00
H1123  H     0.07354   0.62385   0.99995   0.00000  Uiso   1.00
H1124  H     0.00744   0.65771   0.53488   0.00000  Uiso   1.00
H1125  H     0.26842   0.61844   0.53965   0.00000  Uiso   1.00
H1126  H     0.25620   0.41555   0.52306   0.00000  Uiso   1.00
H1127  H     0.26190   0.54434   0.51015   0.00000  Uiso   1.00
H1128  H     0.32765   0.50988   0.97561   0.00000  Uiso   1.00
H1129  H     0.08074   0.61935   0.90820   0.00000  Uiso   1.00
H1130  H     0.02979   0.63759   0.87563   0.00000  Uiso   1.00
H1131  H     0.31356   0.58187   0.85087   0.00000  Uiso   1.00
H1132  H     0.31490   0.50768   0.85879   0.00000  Uiso   1.00
H1133  H     0.03261   0.48891   0.89093   0.00000  Uiso   1.00
H1134  H     0.01699   0.52568   0.71416   0.00000  Uiso   1.00
H1135  H     0.31777   0.47507   0.78567   0.00000  Uiso   1.00
H1136  H     0.20770   0.33591   0.71586   0.00000  Uiso   1.00
H1137  H     0.12355   0.66569   0.78418   0.00000  Uiso   1.00
H1138  H     0.23867   0.42497   0.59465   0.00000  Uiso   1.00
H1139  H     0.24768   0.43282   0.96271   0.00000  Uiso   1.00
H1140  H     0.18734   0.50440   0.90206   0.00000  Uiso   1.00
O1141  O     0.16667   0.50000   0.75000   0.00000  Uiso   1.00
O1142  O     0.15693   0.45726   0.66625   0.00000  Uiso   1.00
O1143  O     0.12687   0.53979   0.83749   0.00000  Uiso   1.00
O1144  O     0.21088   0.50826   0.65877   0.00000  Uiso   1.00
O1145  O     0.17198   0.49468   0.83749   0.00000  Uiso   1.00
O1146  O     0.17849   0.41434   0.77821   0.00000  Uiso   1.00
O1147  O     0.14581   0.59469   0.76767   0.00000  Uiso   1.00
O1148  O     0.07452   0.46584   0.73607   0.00000  Uiso   1.00
O1149  O     0.26785   0.52512   0.71805   0.00000  Uiso   1.00
O1150  O     0.06990   0.52293   0.77820   0.00000  Uiso   1.00
O1151  O     0.25440   0.48610   0.76767   0.00000  Uiso   1.00
O1152  O     0.13800   0.40236   0.73607   0.00000  Uiso   1.00
O1153  O     0.20437   0.58860   0.71806   0.00000  Uiso   1.00
Zn1154 Zn    0.19244   0.47423   0.78278   0.00000  Uiso   1.00
Zn1155 Zn    0.13459   0.45711   0.72258   0.00000  Uiso   1.00
Zn1156 Zn    0.21166   0.52997   0.71188   0.00000  Uiso   1.00
Zn1157 Zn    0.12798   0.53868   0.78277   0.00000  Uiso   1.00
C1158  C     0.38579   0.49342   0.75864   0.00000  Uiso   1.00
C1159  C     0.53533   0.47199   0.95977   0.00000  Uiso   1.00
C1160  C     0.55612   0.45238   0.97958   0.00000  Uiso   1.00
C1161  C     0.61437   0.50691   0.74114   0.00000  Uiso   1.00
C1162  C     0.54537   0.45788   0.52041   0.00000  Uiso   1.00
C1163  C     0.51365   0.48452   0.54225   0.00000  Uiso   1.00
C1164  C     0.56616   0.43680   0.53954   0.00000  Uiso   1.00
C1165  C     0.55640   0.44227   0.58017   0.00000  Uiso   1.00
C1166  C     0.50898   0.49490   0.58325   0.00000  Uiso   1.00
C1167  C     0.66046   0.50932   0.73730   0.00000  Uiso   1.00
C1168  C     0.34037   0.49129   0.76213   0.00000  Uiso   1.00
C1169  C     0.42386   0.54160   0.92149   0.00000  Uiso   1.00
C1170  C     0.51388   0.65540   0.73798   0.00000  Uiso   1.00
C1171  C     0.48443   0.34542   0.76198   0.00000  Uiso   1.00
C1172  C     0.48906   0.38948   0.75891   0.00000  Uiso   1.00
C1173  C     0.51005   0.61099   0.74131   0.00000  Uiso   1.00
C1174  C     0.52175   0.47836   0.64413   0.00000  Uiso   1.00
C1175  C     0.47772   0.52059   0.85629   0.00000  Uiso   1.00
C1176  C     0.46353   0.52604   0.89976   0.00000  Uiso   1.00
C1177  C     0.52864   0.47149   0.60190   0.00000  Uiso   1.00
C1178  C     0.41167   0.54498   0.96287   0.00000  Uiso   1.00
C1179  C     0.49177   0.53450   0.60504   0.00000  Uiso   1.00
C1180  C     0.48966   0.51352   0.91958   0.00000  Uiso   1.00
C1181  C     0.51104   0.57306   0.59127   0.00000  Uiso   1.00
C1182  C     0.49692   0.61059   0.61223   0.00000  Uiso   1.00
C1183  C     0.46334   0.60997   0.64713   0.00000  Uiso   1.00
C1184  C     0.44343   0.57181   0.66082   0.00000  Uiso   1.00
C1185  C     0.45727   0.53419   0.63980   0.00000  Uiso   1.00
C1186  C     0.37189   0.56449   0.98540   0.00000  Uiso   1.00
C1187  C     0.37534   0.60620   0.50237   0.00000  Uiso   1.00
C1188  C     0.33802   0.62545   0.52203   0.00000  Uiso   1.00
C1189  C     0.63049   0.60321   0.52478   0.00000  Uiso   1.00
C1190  C     0.62686   0.56151   0.50817   0.00000  Uiso   1.00
C1191  C     0.47640   0.51300   0.96055   0.00000  Uiso   1.00
C1192  C     0.66411   0.54209   0.98862   0.00000  Uiso   1.00
C1193  C     0.39375   0.55282   0.90162   0.00000  Uiso   1.00
C1194  C     0.39264   0.59482   0.89736   0.00000  Uiso   1.00
C1195  C     0.36383   0.60520   0.87899   0.00000  Uiso   1.00
C1196  C     0.33587   0.57379   0.86505   0.00000  Uiso   1.00
C1197  C     0.33666   0.53195   0.86946   0.00000  Uiso   1.00
C1198  C     0.36557   0.52141   0.88761   0.00000  Uiso   1.00
C1199  C     0.43733   0.52983   0.98237   0.00000  Uiso   1.00
C1200  C     0.50070   0.49560   0.98034   0.00000  Uiso   1.00
C1201  C     0.48804   0.49939   0.52212   0.00000  Uiso   1.00
C1202  C     0.44790   0.51392   0.54242   0.00000  Uiso   1.00
C1203  C     0.42347   0.52932   0.52317   0.00000  Uiso   1.00
H1204  H     0.39285   0.53983   0.54072   0.00000  Uiso   1.00
H1205  H     0.43323   0.51118   0.57322   0.00000  Uiso   1.00
H1206  H     0.54536   0.46548   0.92826   0.00000  Uiso   1.00
H1207  H     0.53715   0.57398   0.56442   0.00000  Uiso   1.00
H1208  H     0.51218   0.64015   0.60151   0.00000  Uiso   1.00
H1209  H     0.45264   0.63906   0.66349   0.00000  Uiso   1.00
H1210  H     0.41730   0.57141   0.68777   0.00000  Uiso   1.00
H1211  H     0.44098   0.50491   0.65050   0.00000  Uiso   1.00
H1212  H     0.40687   0.62385   0.99995   0.00000  Uiso   1.00
H1213  H     0.34077   0.65771   0.53488   0.00000  Uiso   1.00
H1214  H     0.60175   0.61844   0.53965   0.00000  Uiso   1.00
H1215  H     0.58953   0.41555   0.52306   0.00000  Uiso   1.00
H1216  H     0.59523   0.54434   0.51015   0.00000  Uiso   1.00
H1217  H     0.66098   0.50988   0.97561   0.00000  Uiso   1.00
H1218  H     0.41407   0.61935   0.90820   0.00000  Uiso   1.00
H1219  H     0.36312   0.63759   0.87563   0.00000  Uiso   1.00
H1220  H     0.64689   0.58187   0.85087   0.00000  Uiso   1.00
H1221  H     0.64823   0.50768   0.85879   0.00000  Uiso   1.00
H1222  H     0.36594   0.48891   0.89093   0.00000  Uiso   1.00
H1223  H     0.35032   0.52568   0.71416   0.00000  Uiso   1.00
H1224  H     0.65110   0.47507   0.78567   0.00000  Uiso   1.00
H1225  H     0.54104   0.33591   0.71586   0.00000  Uiso   1.00
H1226  H     0.45689   0.66569   0.78418   0.00000  Uiso   1.00
H1227  H     0.57200   0.42497   0.59465   0.00000  Uiso   1.00
H1228  H     0.58101   0.43282   0.96271   0.00000  Uiso   1.00
H1229  H     0.52067   0.50440   0.90206   0.00000  Uiso   1.00
O1230  O     0.50000   0.50000   0.75000   0.00000  Uiso   1.00
O1231  O     0.49027   0.45726   0.66625   0.00000  Uiso   1.00
O1232  O     0.46020   0.53979   0.83749   0.00000  Uiso   1.00
O1233  O     0.54421   0.50826   0.65877   0.00000  Uiso   1.00
O1234  O     0.50532   0.49468   0.83749   0.00000  Uiso   1.00
O1235  O     0.51182   0.41434   0.77821   0.00000  Uiso   1.00
O1236  O     0.47914   0.59469   0.76767   0.00000  Uiso   1.00
O1237  O     0.40785   0.46584   0.73607   0.00000  Uiso   1.00
O1238  O     0.60119   0.52512   0.71805   0.00000  Uiso   1.00
O1239  O     0.40323   0.52293   0.77820   0.00000  Uiso   1.00
O1240  O     0.58773   0.48610   0.76767   0.00000  Uiso   1.00
O1241  O     0.47133   0.40236   0.73607   0.00000  Uiso   1.00
O1242  O     0.53771   0.58860   0.71806   0.00000  Uiso   1.00
Zn1243 Zn    0.52577   0.47423   0.78278   0.00000  Uiso   1.00
Zn1244 Zn    0.46792   0.45711   0.72258   0.00000  Uiso   1.00
Zn1245 Zn    0.54500   0.52997   0.71188   0.00000  Uiso   1.00
Zn1246 Zn    0.46131   0.53868   0.78277   0.00000  Uiso   1.00
C1247  C     0.71913   0.49342   0.75864   0.00000  Uiso   1.00
C1248  C     0.86867   0.47199   0.95977   0.00000  Uiso   1.00
C1249  C     0.88946   0.45238   0.97958   0.00000  Uiso   1.00
C1250  C     0.94770   0.50691   0.74114   0.00000  Uiso   1.00
C1251  C     0.87870   0.45788   0.52041   0.00000  Uiso   1.00
C1252  C     0.84698   0.48452   0.54225   0.00000  Uiso   1.00
C1253  C     0.89949   0.43680   0.53954   0.00000  Uiso   1.00
C1254  C     0.88974   0.44227   0.58017   0.00000  Uiso   1.00
C1255  C     0.84231   0.49490   0.58325   0.00000  Uiso   1.00
C1256  C     0.99379   0.50932   0.73730   0.00000  Uiso   1.00
C1257  C     0.67370   0.49129   0.76213   0.00000  Uiso   1.00
C1258  C     0.75719   0.54160   0.92149   0.00000  Uiso   1.00
C1259  C     0.84721   0.65540   0.73798   0.00000  Uiso   1.00
C1260  C     0.81776   0.34542   0.76198   0.00000  Uiso   1.00
C1261  C     0.82239   0.38948   0.75891   0.00000  Uiso   1.00
C1262  C     0.84338   0.61099   0.74131   0.00000  Uiso   1.00
C1263  C     0.85508   0.47836   0.64413   0.00000  Uiso   1.00
C1264  C     0.81105   0.52059   0.85629   0.00000  Uiso   1.00
C1265  C     0.79686   0.52604   0.89976   0.00000  Uiso   1.00
C1266  C     0.86197   0.47149   0.60190   0.00000  Uiso   1.00
C1267  C     0.74500   0.54498   0.96287   0.00000  Uiso   1.00
C1268  C     0.82511   0.53450   0.60504   0.00000  Uiso   1.00
C1269  C     0.82299   0.51352   0.91958   0.00000  Uiso   1.00
C1270  C     0.84438   0.57306   0.59127   0.00000  Uiso   1.00
C1271  C     0.83026   0.61059   0.61223   0.00000  Uiso   1.00
C1272  C     0.79667   0.60997   0.64713   0.00000  Uiso   1.00
C1273  C     0.77677   0.57181   0.66082   0.00000  Uiso   1.00
C1274  C     0.79060   0.53419   0.63980   0.00000  Uiso   1.00
C1275  C     0.70522   0.56449   0.98540   0.00000  Uiso   1.00
C1276  C     0.70867   0.60620   0.50237   0.00000  Uiso   1.00
C1277  C     0.67136   0.62545   0.52203   0.00000  Uiso   1.00
C1278  C     0.96383   0.60321   0.52478   0.00000  Uiso   1.00
C1279  C     0.96019   0.56151   0.50817   0.00000  Uiso   1.00
C1280  C     0.80973   0.51300   0.96055   0.00000  Uiso   1.00
C1281  C     0.99744   0.54209   0.98862   0.00000  Uiso   1.00
C1282  C     0.72708   0.55282   0.90162   0.00000  Uiso   1.00
C1283  C     0.72598   0.59482   0.89736   0.00000  Uiso   1.00
C1284  C     0.69716   0.60520   0.87899   0.00000  Uiso   1.00
C1285  C     0.66920   0.57379   0.86505   0.00000  Uiso   1.00
C1286  C     0.66999   0.53195   0.86946   0.00000  Uiso   1.00
C1287  C     0.69891   0.52141   0.88761   0.00000  Uiso   1.00
C1288  C     0.77066   0.52983   0.98237   0.00000  Uiso   1.00
C1289  C     0.83404   0.49560   0.98034   0.00000  Uiso   1.00
C1290  C     0.82138   0.49939   0.52212   0.00000  Uiso   1.00
C1291  C     0.78124   0.51392   0.54242   0.00000  Uiso   1.00
C1292  C     0.75680   0.52932   0.52317   0.00000  Uiso   1.00
H1293  H     0.72618   0.53983   0.54072   0.00000  Uiso   1.00
H1294  H     0.76657   0.51118   0.57322   0.00000  Uiso   1.00
H1295  H     0.87869   0.46548   0.92826   0.00000  Uiso   1.00
H1296  H     0.87049   0.57398   0.56442   0.00000  Uiso   1.00
H1297  H     0.84552   0.64015   0.60151   0.00000  Uiso   1.00
H1298  H     0.78597   0.63906   0.66349   0.00000  Uiso   1.00
H1299  H     0.75064   0.57141   0.68777   0.00000  Uiso   1.00
H1300  H     0.77431   0.50491   0.65050   0.00000  Uiso   1.00
H1301  H     0.74021   0.62385   0.99995   0.00000  Uiso   1.00
H1302  H     0.67410   0.65771   0.53488   0.00000  Uiso   1.00
H1303  H     0.93508   0.61844   0.53965   0.00000  Uiso   1.00
H1304  H     0.92287   0.41555   0.52306   0.00000  Uiso   1.00
H1305  H     0.92857   0.54434   0.51015   0.00000  Uiso   1.00
H1306  H     0.99432   0.50988   0.97561   0.00000  Uiso   1.00
H1307  H     0.74741   0.61935   0.90820   0.00000  Uiso   1.00
H1308  H     0.69645   0.63759   0.87563   0.00000  Uiso   1.00
H1309  H     0.98023   0.58187   0.85087   0.00000  Uiso   1.00
H1310  H     0.98157   0.50768   0.85879   0.00000  Uiso   1.00
H1311  H     0.69928   0.48891   0.89093   0.00000  Uiso   1.00
H1312  H     0.68365   0.52568   0.71416   0.00000  Uiso   1.00
H1313  H     0.98444   0.47507   0.78567   0.00000  Uiso   1.00
H1314  H     0.87437   0.33591   0.71586   0.00000  Uiso   1.00
H1315  H     0.79022   0.66569   0.78418   0.00000  Uiso   1.00
H1316  H     0.90534   0.42497   0.59465   0.00000  Uiso   1.00
H1317  H     0.91434   0.43282   0.96271   0.00000  Uiso   1.00
H1318  H     0.85401   0.50440   0.90206   0.00000  Uiso   1.00
O1319  O     0.83333   0.50000   0.75000   0.00000  Uiso   1.00
O1320  O     0.82360   0.45726   0.66625   0.00000  Uiso   1.00
O1321  O     0.79354   0.53979   0.83749   0.00000  Uiso   1.00
O1322  O     0.87755   0.50826   0.65877   0.00000  Uiso   1.00
O1323  O     0.83865   0.49468   0.83749   0.00000  Uiso   1.00
O1324  O     0.84515   0.41434   0.77821   0.00000  Uiso   1.00
O1325  O     0.81247   0.59469   0.76767   0.00000  Uiso   1.00
O1326  O     0.74119   0.46584   0.73607   0.00000  Uiso   1.00
O1327  O     0.93452   0.52512   0.71805   0.00000  Uiso   1.00
O1328  O     0.73656   0.52293   0.77820   0.00000  Uiso   1.00
O1329  O     0.92106   0.48610   0.76767   0.00000  Uiso   1.00
O1330  O     0.80467   0.40236   0.73607   0.00000  Uiso   1.00
O1331  O     0.87104   0.58860   0.71806   0.00000  Uiso   1.00
Zn1332 Zn    0.85910   0.47423   0.78278   0.00000  Uiso   1.00
Zn1333 Zn    0.80125   0.45711   0.72258   0.00000  Uiso   1.00
Zn1334 Zn    0.87833   0.52997   0.71188   0.00000  Uiso   1.00
Zn1335 Zn    0.79465   0.53868   0.78277   0.00000  Uiso   1.00
C1336  C     0.05246   0.82676   0.75864   0.00000  Uiso   1.00
C1337  C     0.20200   0.80533   0.95977   0.00000  Uiso   1.00
C1338  C     0.22279   0.78572   0.97958   0.00000  Uiso   1.00
C1339  C     0.28104   0.84024   0.74114   0.00000  Uiso   1.00
C1340  C     0.21204   0.79121   0.52041   0.00000  Uiso   1.00
C1341  C     0.18031   0.81786   0.54225   0.00000  Uiso   1.00
C1342  C     0.23282   0.77014   0.53954   0.00000  Uiso   1.00
C1343  C     0.22307   0.77561   0.58017   0.00000  Uiso   1.00
C1344  C     0.17564   0.82824   0.58325   0.00000  Uiso   1.00
C1345  C     0.32712   0.84265   0.73730   0.00000  Uiso   1.00
C1346  C     0.00704   0.82463   0.76213   0.00000  Uiso   1.00
C1347  C     0.09053   0.87494   0.92149   0.00000  Uiso   1.00
C1348  C     0.18055   0.98873   0.73798   0.00000  Uiso   1.00
C1349  C     0.15109   0.67875   0.76198   0.00000  Uiso   1.00
C1350  C     0.15572   0.72282   0.75891   0.00000  Uiso   1.00
C1351  C     0.17671   0.94433   0.74131   0.00000  Uiso   1.00
C1352  C     0.18841   0.81169   0.64413   0.00000  Uiso   1.00
C1353  C     0.14439   0.85392   0.85629   0.00000  Uiso   1.00
C1354  C     0.13020   0.85938   0.89976   0.00000  Uiso   1.00
C1355  C     0.19530   0.80482   0.60190   0.00000  Uiso   1.00
C1356  C     0.07833   0.87832   0.96287   0.00000  Uiso   1.00
C1357  C     0.15844   0.86784   0.60504   0.00000  Uiso   1.00
C1358  C     0.15633   0.84685   0.91958   0.00000  Uiso   1.00
C1359  C     0.17771   0.90640   0.59127   0.00000  Uiso   1.00
C1360  C     0.16359   0.94392   0.61223   0.00000  Uiso   1.00
C1361  C     0.13000   0.94331   0.64713   0.00000  Uiso   1.00
C1362  C     0.11010   0.90514   0.66082   0.00000  Uiso   1.00
C1363  C     0.12394   0.86752   0.63980   0.00000  Uiso   1.00
C1364  C     0.03855   0.89782   0.98540   0.00000  Uiso   1.00
C1365  C     0.04200   0.93954   0.50237   0.00000  Uiso   1.00
C1366  C     0.00469   0.95878   0.52203   0.00000  Uiso   1.00
C1367  C     0.29716   0.93654   0.52478   0.00000  Uiso   1.00
C1368  C     0.29352   0.89485   0.50817   0.00000  Uiso   1.00
C1369  C     0.14306   0.84633   0.96055   0.00000  Uiso   1.00
C1370  C     0.33077   0.87542   0.98862   0.00000  Uiso   1.00
C1371  C     0.06042   0.88616   0.90162   0.00000  Uiso   1.00
C1372  C     0.05931   0.92816   0.89736   0.00000  Uiso   1.00
C1373  C     0.03049   0.93853   0.87899   0.00000  Uiso   1.00
C1374  C     0.00253   0.90713   0.86505   0.00000  Uiso   1.00
C1375  C     0.00333   0.86528   0.86946   0.00000  Uiso   1.00
C1376  C     0.03224   0.85474   0.88761   0.00000  Uiso   1.00
C1377  C     0.10400   0.86316   0.98237   0.00000  Uiso   1.00
C1378  C     0.16737   0.82894   0.98034   0.00000  Uiso   1.00
C1379  C     0.15471   0.83272   0.52212   0.00000  Uiso   1.00
C1380  C     0.11457   0.84726   0.54242   0.00000  Uiso   1.00
C1381  C     0.09014   0.86266   0.52317   0.00000  Uiso   1.00
H1382  H     0.05951   0.87316   0.54072   0.00000  Uiso   1.00
H1383  H     0.09990   0.84452   0.57322   0.00000  Uiso   1.00
H1384  H     0.21203   0.79882   0.92826   0.00000  Uiso   1.00
H1385  H     0.20382   0.90732   0.56442   0.00000  Uiso   1.00
H1386  H     0.17885   0.97349   0.60151   0.00000  Uiso   1.00
H1387  H     0.11930   0.97239   0.66349   0.00000  Uiso   1.00
H1388  H     0.08397   0.90474   0.68777   0.00000  Uiso   1.00
H1389  H     0.10764   0.83824   0.65050   0.00000  Uiso   1.00
H1390  H     0.07354   0.95718   0.99995   0.00000  Uiso   1.00
H1391  H     0.00744   0.99105   0.53488   0.00000  Uiso   1.00
H1392  H     0.26842   0.95178   0.53965   0.00000  Uiso   1.00
H1393  H     0.25620   0.74889   0.52306   0.00000  Uiso   1.00
H1394  H     0.26190   0.87767   0.51015   0.00000  Uiso   1.00
H1395  H     0.32765   0.84322   0.97561   0.00000  Uiso   1.00
H1396  H     0.08074   0.95269   0.90820   0.00000  Uiso   1.00
H1397  H     0.02979   0.97093   0.87563   0.00000  Uiso   1.00
H1398  H     0.31356   0.91520   0.85087   0.00000  Uiso   1.00
H1399  H     0.31490   0.84102   0.85879   0.00000  Uiso   1.00
H1400  H     0.03261   0.82225   0.89093   0.00000  Uiso   1.00
H1401  H     0.01699   0.85901   0.71416   0.00000  Uiso   1.00
H1402  H     0.31777   0.80840   0.78567   0.00000  Uiso   1.00
H1403  H     0.20770   0.66924   0.71586   0.00000  Uiso   1.00
H1404  H     0.12355   0.99902   0.78418   0.00000  Uiso   1.00
H1405  H     0.23867   0.75831   0.59465   0.00000  Uiso   1.00
H1406  H     0.24768   0.76616   0.96271   0.00000  Uiso   1.00
H1407  H     0.18734   0.83774   0.90206   0.00000  Uiso   1.00
O1408  O     0.16667   0.83333   0.75000   0.00000  Uiso   1.00
O1409  O     0.15693   0.79060   0.66625   0.00000  Uiso   1.00
O1410  O     0.12687   0.87313   0.83749   0.00000  Uiso   1.00
O1411  O     0.21088   0.84159   0.65877   0.00000  Uiso   1.00
O1412  O     0.17198   0.82802   0.83749   0.00000  Uiso   1.00
O1413  O     0.17849   0.74768   0.77821   0.00000  Uiso   1.00
O1414  O     0.14581   0.92803   0.76767   0.00000  Uiso   1.00
O1415  O     0.07452   0.79917   0.73607   0.00000  Uiso   1.00
O1416  O     0.26785   0.85845   0.71805   0.00000  Uiso   1.00
O1417  O     0.06990   0.85627   0.77820   0.00000  Uiso   1.00
O1418  O     0.25440   0.81944   0.76767   0.00000  Uiso   1.00
O1419  O     0.13800   0.73570   0.73607   0.00000  Uiso   1.00
O1420  O     0.20437   0.92193   0.71806   0.00000  Uiso   1.00
Zn1421 Zn    0.19244   0.80756   0.78278   0.00000  Uiso   1.00
Zn1422 Zn    0.13459   0.79044   0.72258   0.00000  Uiso   1.00
Zn1423 Zn    0.21166   0.86331   0.71188   0.00000  Uiso   1.00
Zn1424 Zn    0.12798   0.87202   0.78277   0.00000  Uiso   1.00
C1425  C     0.38579   0.82676   0.75864   0.00000  Uiso   1.00
C1426  C     0.53533   0.80533   0.95977   0.00000  Uiso   1.00
C1427  C     0.55612   0.78572   0.97958   0.00000  Uiso   1.00
C1428  C     0.61437   0.84024   0.74114   0.00000  Uiso   1.00
C1429  C     0.54537   0.79121   0.52041   0.00000  Uiso   1.00
C1430  C     0.51365   0.81786   0.54225   0.00000  Uiso   1.00
C1431  C     0.56616   0.77014   0.53954   0.00000  Uiso   1.00
C1432  C     0.55640   0.77561   0.58017   0.00000  Uiso   1.00
C1433  C     0.50898   0.82824   0.58325   0.00000  Uiso   1.00
C1434  C     0.66046   0.84265   0.73730   0.00000  Uiso   1.00
C1435  C     0.34037   0.82463   0.76213   0.00000  Uiso   1.00
C1436  C     0.42386   0.87494   0.92149   0.00000  Uiso   1.00
C1437  C     0.51388   0.98873   0.73798   0.00000  Uiso   1.00
C1438  C     0.48443   0.67875   0.76198   0.00000  Uiso   1.00
C1439  C     0.48906   0.72282   0.75891   0.00000  Uiso   1.00
C1440  C     0.51005   0.94433   0.74131   0.00000  Uiso   1.00
C1441  C     0.52175   0.81169   0.64413   0.00000  Uiso   1.00
C1442  C     0.47772   0.85392   0.85629   0.00000  Uiso   1.00
C1443  C     0.46353   0.85938   0.89976   0.00000  Uiso   1.00
C1444  C     0.52864   0.80482   0.60190   0.00000  Uiso   1.00
C1445  C     0.41167   0.87832   0.96287   0.00000  Uiso   1.00
C1446  C     0.49177   0.86784   0.60504   0.00000  Uiso   1.00
C1447  C     0.48966   0.84685   0.91958   0.00000  Uiso   1.00
C1448  C     0.51104   0.90640   0.59127   0.00000  Uiso   1.00
C1449  C     0.49692   0.94392   0.61223   0.00000  Uiso   1.00
C1450  C     0.46334   0.94331   0.64713   0.00000  Uiso   1.00
C1451  C     0.44343   0.90514   0.66082   0.00000  Uiso   1.00
C1452  C     0.45727   0.86752   0.63980   0.00000  Uiso   1.00
C1453  C     0.37189   0.89782   0.98540   0.00000  Uiso   1.00
C1454  C     0.37534   0.93954   0.50237   0.00000  Uiso   1.00
C1455  C     0.33802   0.95878   0.52203   0.00000  Uiso   1.00
C1456  C     0.63049   0.93654   0.52478   0.00000  Uiso   1.00
C1457  C     0.62686   0.89485   0.50817   0.00000  Uiso   1.00
C1458  C     0.47640   0.84633   0.96055   0.00000  Uiso   1.00
C1459  C     0.66411   0.87542   0.98862   0.00000  Uiso   1.00
C1460  C     0.39375   0.88616   0.90162   0.00000  Uiso   1.00
C1461  C     0.39264   0.92816   0.89736   0.00000  Uiso   1.00
C1462  C     0.36383   0.93853   0.87899   0.00000  Uiso   1.00
C1463  C     0.33587   0.90713   0.86505   0.00000  Uiso   1.00
C1464  C     0.33666   0.86528   0.86946   0.00000  Uiso   1.00
C1465  C     0.36557   0.85474   0.88761   0.00000  Uiso   1.00
C1466  C     0.43733   0.86316   0.98237   0.00000  Uiso   1.00
C1467  C     0.50070   0.82894   0.98034   0.00000  Uiso   1.00
C1468  C     0.48804   0.83272   0.52212   0.00000  Uiso   1.00
C1469  C     0.44790   0.84726   0.54242   0.00000  Uiso   1.00
C1470  C     0.42347   0.86266   0.52317   0.00000  Uiso   1.00
H1471  H     0.39285   0.87316   0.54072   0.00000  Uiso   1.00
H1472  H     0.43323   0.84452   0.57322   0.00000  Uiso   1.00
H1473  H     0.54536   0.79882   0.92826   0.00000  Uiso   1.00
H1474  H     0.53715   0.90732   0.56442   0.00000  Uiso   1.00
H1475  H     0.51218   0.97349   0.60151   0.00000  Uiso   1.00
H1476  H     0.45264   0.97239   0.66349   0.00000  Uiso   1.00
H1477  H     0.41730   0.90474   0.68777   0.00000  Uiso   1.00
H1478  H     0.44098   0.83824   0.65050   0.00000  Uiso   1.00
H1479  H     0.40687   0.95718   0.99995   0.00000  Uiso   1.00
H1480  H     0.34077   0.99105   0.53488   0.00000  Uiso   1.00
H1481  H     0.60175   0.95178   0.53965   0.00000  Uiso   1.00
H1482  H     0.58953   0.74889   0.52306   0.00000  Uiso   1.00
H1483  H     0.59523   0.87767   0.51015   0.00000  Uiso   1.00
H1484  H     0.66098   0.84322   0.97561   0.00000  Uiso   1.00
H1485  H     0.41407   0.95269   0.90820   0.00000  Uiso   1.00
H1486  H     0.36312   0.97093   0.87563   0.00000  Uiso   1.00
H1487  H     0.64689   0.91520   0.85087   0.00000  Uiso   1.00
H1488  H     0.64823   0.84102   0.85879   0.00000  Uiso   1.00
H1489  H     0.36594   0.82225   0.89093   0.00000  Uiso   1.00
H1490  H     0.35032   0.85901   0.71416   0.00000  Uiso   1.00
H1491  H     0.65110   0.80840   0.78567   0.00000  Uiso   1.00
H1492  H     0.54104   0.66924   0.71586   0.00000  Uiso   1.00
H1493  H     0.45689   0.99902   0.78418   0.00000  Uiso   1.00
H1494  H     0.57200   0.75831   0.59465   0.00000  Uiso   1.00
H1495  H     0.58101   0.76616   0.96271   0.00000  Uiso   1.00
H1496  H     0.52067   0.83774   0.90206   0.00000  Uiso   1.00
O1497  O     0.50000   0.83333   0.75000   0.00000  Uiso   1.00
O1498  O     0.49027   0.79060   0.66625   0.00000  Uiso   1.00
O1499  O     0.46020   0.87313   0.83749   0.00000  Uiso   1.00
O1500  O     0.54421   0.84159   0.65877   0.00000  Uiso   1.00
O1501  O     0.50532   0.82802   0.83749   0.00000  Uiso   1.00
O1502  O     0.51182   0.74768   0.77821   0.00000  Uiso   1.00
O1503  O     0.47914   0.92803   0.76767   0.00000  Uiso   1.00
O1504  O     0.40785   0.79917   0.73607   0.00000  Uiso   1.00
O1505  O     0.60119   0.85845   0.71805   0.00000  Uiso   1.00
O1506  O     0.40323   0.85627   0.77820   0.00000  Uiso   1.00
O1507  O     0.58773   0.81944   0.76767   0.00000  Uiso   1.00
O1508  O     0.47133   0.73570   0.73607   0.00000  Uiso   1.00
O1509  O     0.53771   0.92193   0.71806   0.00000  Uiso   1.00
Zn1510 Zn    0.52577   0.80756   0.78278   0.00000  Uiso   1.00
Zn1511 Zn    0.46792   0.79044   0.72258   0.00000  Uiso   1.00
Zn1512 Zn    0.54500   0.86331   0.71188   0.00000  Uiso   1.00
Zn1513 Zn    0.46131   0.87202   0.78277   0.00000  Uiso   1.00
C1514  C     0.71913   0.82676   0.75864   0.00000  Uiso   1.00
C1515  C     0.86867   0.80533   0.95977   0.00000  Uiso   1.00
C1516  C     0.88946   0.78572   0.97958   0.00000  Uiso   1.00
C1517  C     0.94770   0.84024   0.74114   0.00000  Uiso   1.00
C1518  C     0.87870   0.79121   0.52041   0.00000  Uiso   1.00
C1519  C     0.84698   0.81786   0.54225   0.00000  Uiso   1.00
C1520  C     0.89949   0.77014   0.53954   0.00000  Uiso   1.00
C1521  C     0.88974   0.77561   0.58017   0.00000  Uiso   1.00
C1522  C     0.84231   0.82824   0.58325   0.00000  Uiso   1.00
C1523  C     0.99379   0.84265   0.73730   0.00000  Uiso   1.00
C1524  C     0.67370   0.82463   0.76213   0.00000  Uiso   1.00
C1525  C     0.75719   0.87494   0.92149   0.00000  Uiso   1.00
C1526  C     0.84721   0.98873   0.73798   0.00000  Uiso   1.00
C1527  C     0.81776   0.67875   0.76198   0.00000  Uiso   1.00
C1528  C     0.82239   0.72282   0.75891   0.00000  Uiso   1.00
C1529  C     0.84338   0.94433   0.74131   0.00000  Uiso   1.00
C1530  C     0.85508   0.81169   0.64413   0.00000  Uiso   1.00
C1531  C     0.81105   0.85392   0.85629   0.00000  Uiso   1.00
C1532  C     0.79686   0.85938   0.89976   0.00000  Uiso   1.00
C1533  C     0.86197   0.80482   0.60190   0.00000  Uiso   1.00
C1534  C     0.74500   0.87832   0.96287   0.00000  Uiso   1.00
C1535  C     0.82511   0.86784   0.60504   0.00000  Uiso   1.00
C1536  C     0.82299   0.84685   0.91958   0.00000  Uiso   1.00
C1537  C     0.84438   0.90640   0.59127   0.00000  Uiso   1.00
C1538  C     0.83026   0.94392   0.61223   0.00000  Uiso   1.00
C1539  C     0.79667   0.94331   0.64713   0.00000  Uiso   1.00
C1540  C     0.77677   0.90514   0.66082   0.00000  Uiso   1.00
C1541  C     0.79060   0.86752   0.63980   0.00000  Uiso   1.00
C1542  C     0.70522   0.89782   0.98540   0.00000  Uiso   1.00
C1543  C     0.70867   0.93954   0.50237   0.00000  Uiso   1.00
C1544  C     0.67136   0.95878   0.52203   0.00000  Uiso   1.00
C1545  C     0.96383   0.93654   0.52478   0.00000  Uiso   1.00
C1546  C     0.96019   0.89485   0.50817   0.00000  Uiso   1.00
C1547  C     0.80973   0.84633   0.96055   0.00000  Uiso   1.00
C1548  C     0.99744   0.87542   0.98862   0.00000  Uiso   1.00
C1549  C     0.72708   0.88616   0.90162   0.00000  Uiso   1.00
C1550  C     0.72598   0.92816   0.89736   0.00000  Uiso   1.00
C1551  C     0.69716   0.93853   0.87899   0.00000  Uiso   1.00
C1552  C     0.66920   0.90713   0.86505   0.00000  Uiso   1.00
C1553  C     0.66999   0.86528   0.86946   0.00000  Uiso   1.00
C1554  C     0.69891   0.85474   0.88761   0.00000  Uiso   1.00
C1555  C     0.77066   0.86316   0.98237   0.00000  Uiso   1.00
C1556  C     0.83404   0.82894   0.98034   0.00000  Uiso   1.00
C1557  C     0.82138   0.83272   0.52212   0.00000  Uiso   1.00
C1558  C     0.78124   0.84726   0.54242   0.00000  Uiso   1.00
C1559  C     0.75680   0.86266   0.52317   0.00000  Uiso   1.00
H1560  H     0.72618   0.87316   0.54072   0.00000  Uiso   1.00
H1561  H     0.76657   0.84452   0.57322   0.00000  Uiso   1.00
H1562  H     0.87869   0.79882   0.92826   0.00000  Uiso   1.00
H1563  H     0.87049   0.90732   0.56442   0.00000  Uiso   1.00
H1564  H     0.84552   0.97349   0.60151   0.00000  Uiso   1.00
H1565  H     0.78597   0.97239   0.66349   0.00000  Uiso   1.00
H1566  H     0.75064   0.90474   0.68777   0.00000  Uiso   1.00
H1567  H     0.77431   0.83824   0.65050   0.00000  Uiso   1.00
H1568  H     0.74021   0.95718   0.99995   0.00000  Uiso   1.00
H1569  H     0.67410   0.99105   0.53488   0.00000  Uiso   1.00
H1570  H     0.93508   0.95178   0.53965   0.00000  Uiso   1.00
H1571  H     0.92287   0.74889   0.52306   0.00000  Uiso   1.00
H1572  H     0.92857   0.87767   0.51015   0.00000  Uiso   1.00
H1573  H     0.99432   0.84322   0.97561   0.00000  Uiso   1.00
H1574  H     0.74741   0.95269   0.90820   0.00000  Uiso   1.00
H1575  H     0.69645   0.97093   0.87563   0.00000  Uiso   1.00
H1576  H     0.98023   0.91520   0.85087   0.00000  Uiso   1.00
H1577  H     0.98157   0.84102   0.85879   0.00000  Uiso   1.00
H1578  H     0.69928   0.82225   0.89093   0.00000  Uiso   1.00
H1579  H     0.68365   0.85901   0.71416   0.00000  Uiso   1.00
H1580  H     0.98444   0.80840   0.78567   0.00000  Uiso   1.00
H1581  H     0.87437   0.66924   0.71586   0.00000  Uiso   1.00
H1582  H     0.79022   0.99902   0.78418   0.00000  Uiso   1.00
H1583  H     0.90534   0.75831   0.59465   0.00000  Uiso   1.00
H1584  H     0.91434   0.76616   0.96271   0.00000  Uiso   1.00
H1585  H     0.85401   0.83774   0.90206   0.00000  Uiso   1.00
O1586  O     0.83333   0.83333   0.75000   0.00000  Uiso   1.00
O1587  O     0.82360   0.79060   0.66625   0.00000  Uiso   1.00
O1588  O     0.79354   0.87313   0.83749   0.00000  Uiso   1.00
O1589  O     0.87755   0.84159   0.65877   0.00000  Uiso   1.00
O1590  O     0.83865   0.82802   0.83749   0.00000  Uiso   1.00
O1591  O     0.84515   0.74768   0.77821   0.00000  Uiso   1.00
O1592  O     0.81247   0.92803   0.76767   0.00000  Uiso   1.00
O1593  O     0.74119   0.79917   0.73607   0.00000  Uiso   1.00
O1594  O     0.93452   0.85845   0.71805   0.00000  Uiso   1.00
O1595  O     0.73656   0.85627   0.77820   0.00000  Uiso   1.00
O1596  O     0.92106   0.81944   0.76767   0.00000  Uiso   1.00
O1597  O     0.80467   0.73570   0.73607   0.00000  Uiso   1.00
O1598  O     0.87104   0.92193   0.71806   0.00000  Uiso   1.00
Zn1599 Zn    0.85910   0.80756   0.78278   0.00000  Uiso   1.00
Zn1600 Zn    0.80125   0.79044   0.72258   0.00000  Uiso   1.00
Zn1601 Zn    0.87833   0.86331   0.71188   0.00000  Uiso   1.00
Zn1602 Zn    0.79465   0.87202   0.78277   0.00000  Uiso   1.00
loop_
_geom_bond_atom_site_label_1
_geom_bond_atom_site_label_2
_geom_bond_distance
_geom_bond_site_symmetry_2
_ccdc_geom_bond_type
C1     C11     1.438   .     S
C1     O82     1.266   .     A
C1     O80     1.268   .     A
C2     H49     1.077   .     S
C2     C43     1.415   .     A
C2     C3      1.386   .     A
C3     H71     1.084   .     S
C3     C806    1.391   .     S
C4     O81     1.286   .     A
C4     C10     1.456   .     S
C4     O83     1.281   .     A
C5     C6      1.420   .     A
C5     C7      1.398   .     A
C5     C804    1.391   1_554 S
C6     C9      1.426   .     A
C6     C44     1.426   .     A
C7     C8      1.386   .     A
C7     H58     1.084   .     S
C8     C20     1.395   .     A
C8     H70     1.084   .     S
C9     C22     1.496   .     S
C9     C20     1.411   .     A
C10    C100    1.336   .     S
C10    H155    1.087   .     S
C11    C188    1.336   1_455 S
C11    H245    1.086   1_455 S
C12    C36     1.484   .     S
C12    C21     1.410   .     A
C12    C19     1.418   .     A
C13    C16     1.450   .     S
C13    C281    1.331   .     S
C13    H335    1.088   .     S
C14    C15     1.435   .     S
C14    C547    1.331   1_545 S
C14    H603    1.087   1_545 S
C15    O78     1.279   .     A
C15    O84     1.279   .     A
C16    O85     1.267   .     A
C16    O79     1.269   .     A
C17    C20     1.452   .     S
C17    O76     1.271   .     A
C17    O74     1.272   .     A
C18    O75     1.277   .     A
C18    C19     1.480   .     S
C18    O77     1.292   .     A
C19    C23     1.394   .     A
C21    C29     1.485   .     S
C21    C42     1.415   .     A
C22    C28     1.409   .     A
C22    C24     1.405   .     A
C23    C34     1.406   .     A
C23    H72     1.077   .     S
C24    H50     1.080   .     S
C24    C25     1.398   .     A
C25    H51     1.082   .     S
C25    C26     1.397   .     A
C26    C27     1.397   .     A
C26    H52     1.082   .     S
C27    H53     1.082   .     S
C27    C28     1.398   .     A
C28    H54     1.082   .     S
C29    C831    1.403   .     S
C29    C213    1.404   1_455 S
C30    C31     1.397   .     A
C30    C830    1.403   1_554 S
C30    H856    1.083   1_554 S
C31    H56     1.082   .     S
C31    C210    1.397   1_455 S
C32    H57     1.081   .     S
C32    C33     1.399   .     A
C32    C120    1.397   .     S
C33    H59     1.082   .     S
C33    C836    1.398   1_554 S
C34    C42     1.421   .     A
C34    C43     1.428   .     A
C35    H60     1.083   .     S
C35    C834    1.398   .     S
C35    C118    1.404   .     S
C36    C37     1.404   .     A
C36    C41     1.404   .     A
C37    C38     1.399   .     A
C37    H61     1.083   .     S
C38    C39     1.398   .     A
C38    H62     1.082   .     S
C39    C40     1.398   .     A
C39    H241    1.082   1_455 S
C40    C41     1.398   .     A
C40    H242    1.082   1_455 S
C41    H65     1.083   .     S
C42    C847    1.400   .     S
C43    C845    1.423   .     S
C44    C45     1.407   .     A
C44    C844    1.423   1_554 S
C45    C46     1.382   .     A
C45    H48     1.077   .     S
C46    H47     1.083   .     S
C46    C843    1.400   1_554 S
H55    C831    1.083   .     S
H63    C128    1.082   .     S
H64    C129    1.082   .     S
H66    C188    1.087   1_455 S
H67    C100    1.086   .     S
H68    C547    1.088   1_545 S
H69    C281    1.087   .     S
O73    Zn87    1.939   .     S
O73    Zn88    1.935   .     S
O73    Zn89    1.925   .     S
O73    Zn86    1.970   .     S
O74    Zn87    1.934   .     S
O75    Zn89    1.948   .     S
O76    Zn88    1.936   .     S
O77    Zn86    1.925   .     S
O78    Zn86    1.925   .     S
O79    Zn89    1.933   .     S
O80    Zn87    1.923   .     S
O81    Zn88    1.938   .     S
O82    Zn89    1.930   .     S
O83    Zn86    1.920   .     S
O84    Zn87    1.940   .     S
O85    Zn88    1.928   .     S
C90    C100    1.438   .     S
C90    O171    1.266   .     A
C90    O169    1.268   .     A
C91    H138    1.077   .     S
C91    C132    1.415   .     A
C91    C92     1.386   .     A
C92    H160    1.084   .     S
C92    C895    1.391   .     S
C93    O170    1.286   .     A
C93    C99     1.456   .     S
C93    O172    1.281   .     A
C94    C95     1.420   .     A
C94    C96     1.398   .     A
C94    C893    1.391   1_554 S
C95    C98     1.426   .     A
C95    C133    1.426   .     A
C96    C97     1.386   .     A
C96    H147    1.084   .     S
C97    C109    1.395   .     A
C97    H159    1.084   .     S
C98    C111    1.496   .     S
C98    C109    1.411   .     A
C99    C189    1.336   .     S
C99    H244    1.087   .     S
C101   C125    1.484   .     S
C101   C110    1.410   .     A
C101   C108    1.418   .     A
C102   C105    1.450   .     S
C102   C370    1.331   .     S
C102   H424    1.088   .     S
C103   C104    1.435   .     S
C103   C636    1.331   1_545 S
C103   H692    1.087   1_545 S
C104   O167    1.279   .     A
C104   O173    1.279   .     A
C105   O174    1.267   .     A
C105   O168    1.269   .     A
C106   C109    1.452   .     S
C106   O165    1.271   .     A
C106   O163    1.272   .     A
C107   O164    1.277   .     A
C107   C108    1.480   .     S
C107   O166    1.292   .     A
C108   C112    1.394   .     A
C110   C118    1.485   .     S
C110   C131    1.415   .     A
C111   C117    1.409   .     A
C111   C113    1.405   .     A
C112   C123    1.406   .     A
C112   H161    1.077   .     S
C113   H139    1.080   .     S
C113   C114    1.398   .     A
C114   H140    1.082   .     S
C114   C115    1.397   .     A
C115   C116    1.397   .     A
C115   H141    1.082   .     S
C116   H142    1.082   .     S
C116   C117    1.398   .     A
C117   H143    1.082   .     S
C118   C920    1.403   .     S
C119   C120    1.397   .     A
C119   C919    1.403   1_554 S
C119   H945    1.083   1_554 S
C120   H145    1.082   .     S
C121   H146    1.081   .     S
C121   C122    1.399   .     A
C121   C209    1.397   .     S
C122   H148    1.082   .     S
C122   C925    1.398   1_554 S
C123   C131    1.421   .     A
C123   C132    1.428   .     A
C124   H149    1.083   .     S
C124   C923    1.398   .     S
C124   C207    1.404   .     S
C125   C126    1.404   .     A
C125   C130    1.404   .     A
C126   C127    1.399   .     A
C126   H150    1.083   .     S
C127   C128    1.398   .     A
C127   H151    1.082   .     S
C128   C129    1.398   .     A
C129   C130    1.398   .     A
C130   H154    1.083   .     S
C131   C936    1.400   .     S
C132   C934    1.423   .     S
C133   C134    1.407   .     A
C133   C933    1.423   1_554 S
C134   C135    1.382   .     A
C134   H137    1.077   .     S
C135   H136    1.083   .     S
C135   C932    1.400   1_554 S
H144   C920    1.083   .     S
H152   C217    1.082   .     S
H153   C218    1.082   .     S
H156   C189    1.086   .     S
H157   C636    1.088   1_545 S
H158   C370    1.087   .     S
O162   Zn176   1.939   .     S
O162   Zn177   1.935   .     S
O162   Zn178   1.925   .     S
O162   Zn175   1.970   .     S
O163   Zn176   1.934   .     S
O164   Zn178   1.948   .     S
O165   Zn177   1.936   .     S
O166   Zn175   1.925   .     S
O167   Zn175   1.925   .     S
O168   Zn178   1.933   .     S
O169   Zn176   1.923   .     S
O170   Zn177   1.938   .     S
O171   Zn178   1.930   .     S
O172   Zn175   1.920   .     S
O173   Zn176   1.940   .     S
O174   Zn177   1.928   .     S
C179   C189    1.438   .     S
C179   O260    1.266   .     A
C179   O258    1.268   .     A
C180   H227    1.077   .     S
C180   C221    1.415   .     A
C180   C181    1.386   .     A
C181   H249    1.084   .     S
C181   C984    1.391   .     S
C182   O259    1.286   .     A
C182   C188    1.456   .     S
C182   O261    1.281   .     A
C183   C184    1.420   .     A
C183   C185    1.398   .     A
C183   C982    1.391   1_554 S
C184   C187    1.426   .     A
C184   C222    1.426   .     A
C185   C186    1.386   .     A
C185   H236    1.084   .     S
C186   C198    1.395   .     A
C186   H248    1.084   .     S
C187   C200    1.496   .     S
C187   C198    1.411   .     A
C188   C11     1.336   1_655 S
C188   H66     1.087   1_655 S
C190   C214    1.484   .     S
C190   C199    1.410   .     A
C190   C197    1.418   .     A
C191   C194    1.450   .     S
C191   C459    1.331   .     S
C191   H513    1.088   .     S
C192   C193    1.435   .     S
C192   C725    1.331   1_545 S
C192   H781    1.087   1_545 S
C193   O256    1.279   .     A
C193   O262    1.279   .     A
C194   O263    1.267   .     A
C194   O257    1.269   .     A
C195   C198    1.452   .     S
C195   O254    1.271   .     A
C195   O252    1.272   .     A
C196   O253    1.277   .     A
C196   C197    1.480   .     S
C196   O255    1.292   .     A
C197   C201    1.394   .     A
C199   C207    1.485   .     S
C199   C220    1.415   .     A
C200   C206    1.409   .     A
C200   C202    1.405   .     A
C201   C212    1.406   .     A
C201   H250    1.077   .     S
C202   H228    1.080   .     S
C202   C203    1.398   .     A
C203   H229    1.082   .     S
C203   C204    1.397   .     A
C204   C205    1.397   .     A
C204   H230    1.082   .     S
C205   H231    1.082   .     S
C205   C206    1.398   .     A
C206   H232    1.082   .     S
C207   C1009   1.403   .     S
C208   C209    1.397   .     A
C208   C1008   1.403   1_554 S
C208   H1034   1.083   1_554 S
C209   H234    1.082   .     S
C210   H235    1.081   .     S
C210   C211    1.399   .     A
C210   C31     1.397   1_655 S
C211   H237    1.082   .     S
C211   C1014   1.398   1_554 S
C212   C220    1.421   .     A
C212   C221    1.428   .     A
C213   H238    1.083   .     S
C213   C1012   1.398   .     S
C213   C29     1.404   1_655 S
C214   C215    1.404   .     A
C214   C219    1.404   .     A
C215   C216    1.399   .     A
C215   H239    1.083   .     S
C216   C217    1.398   .     A
C216   H240    1.082   .     S
C217   C218    1.398   .     A
C218   C219    1.398   .     A
C219   H243    1.083   .     S
C220   C1025   1.400   .     S
C221   C1023   1.423   .     S
C222   C223    1.407   .     A
C222   C1022   1.423   1_554 S
C223   C224    1.382   .     A
C223   H226    1.077   .     S
C224   H225    1.083   .     S
C224   C1021   1.400   1_554 S
H233   C1009   1.083   .     S
H241   C39     1.082   1_655 S
H242   C40     1.082   1_655 S
H245   C11     1.086   1_655 S
H246   C725    1.088   1_545 S
H247   C459    1.087   .     S
O251   Zn265   1.939   .     S
O251   Zn266   1.935   .     S
O251   Zn267   1.925   .     S
O251   Zn264   1.970   .     S
O252   Zn265   1.934   .     S
O253   Zn267   1.948   .     S
O254   Zn266   1.936   .     S
O255   Zn264   1.925   .     S
O256   Zn264   1.925   .     S
O257   Zn267   1.933   .     S
O258   Zn265   1.923   .     S
O259   Zn266   1.938   .     S
O260   Zn267   1.930   .     S
O261   Zn264   1.920   .     S
O262   Zn265   1.940   .     S
O263   Zn266   1.928   .     S
C268   C278    1.438   .     S
C268   O349    1.266   .     A
C268   O347    1.268   .     A
C269   H316    1.077   .     S
C269   C310    1.415   .     A
C269   C270    1.386   .     A
C270   H338    1.084   .     S
C270   C1073   1.391   .     S
C271   O348    1.286   .     A
C271   C277    1.456   .     S
C271   O350    1.281   .     A
C272   C273    1.420   .     A
C272   C274    1.398   .     A
C272   C1071   1.391   1_554 S
C273   C276    1.426   .     A
C273   C311    1.426   .     A
C274   C275    1.386   .     A
C274   H325    1.084   .     S
C275   C287    1.395   .     A
C275   H337    1.084   .     S
C276   C289    1.496   .     S
C276   C287    1.411   .     A
C277   C367    1.336   .     S
C277   H422    1.087   .     S
C278   C455    1.336   1_455 S
C278   H512    1.086   1_455 S
C279   C303    1.484   .     S
C279   C288    1.410   .     A
C279   C286    1.418   .     A
C280   C283    1.450   .     S
C280   C548    1.331   .     S
C280   H602    1.088   .     S
C281   C282    1.435   .     S
C282   O345    1.279   .     A
C282   O351    1.279   .     A
C283   O352    1.267   .     A
C283   O346    1.269   .     A
C284   C287    1.452   .     S
C284   O343    1.271   .     A
C284   O341    1.272   .     A
C285   O342    1.277   .     A
C285   C286    1.480   .     S
C285   O344    1.292   .     A
C286   C290    1.394   .     A
C288   C296    1.485   .     S
C288   C309    1.415   .     A
C289   C295    1.409   .     A
C289   C291    1.405   .     A
C290   C301    1.406   .     A
C290   H339    1.077   .     S
C291   H317    1.080   .     S
C291   C292    1.398   .     A
C292   H318    1.082   .     S
C292   C293    1.397   .     A
C293   C294    1.397   .     A
C293   H319    1.082   .     S
C294   H320    1.082   .     S
C294   C295    1.398   .     A
C295   H321    1.082   .     S
C296   C1098   1.403   .     S
C296   C480    1.404   1_455 S
C297   C298    1.397   .     A
C297   C1097   1.403   1_554 S
C297   H1123   1.083   1_554 S
C298   H323    1.082   .     S
C298   C477    1.397   1_455 S
C299   H324    1.081   .     S
C299   C300    1.399   .     A
C299   C387    1.397   .     S
C300   H326    1.082   .     S
C300   C1103   1.398   1_554 S
C301   C309    1.421   .     A
C301   C310    1.428   .     A
C302   H327    1.083   .     S
C302   C1101   1.398   .     S
C302   C385    1.404   .     S
C303   C304    1.404   .     A
C303   C308    1.404   .     A
C304   C305    1.399   .     A
C304   H328    1.083   .     S
C305   C306    1.398   .     A
C305   H329    1.082   .     S
C306   C307    1.398   .     A
C306   H508    1.082   1_455 S
C307   C308    1.398   .     A
C307   H509    1.082   1_455 S
C308   H332    1.083   .     S
C309   C1114   1.400   .     S
C310   C1112   1.423   .     S
C311   C312    1.407   .     A
C311   C1111   1.423   1_554 S
C312   C313    1.382   .     A
C312   H315    1.077   .     S
C313   H314    1.083   .     S
C313   C1110   1.400   1_554 S
H322   C1098   1.083   .     S
H330   C395    1.082   .     S
H331   C396    1.082   .     S
H333   C455    1.087   1_455 S
H334   C367    1.086   .     S
H336   C548    1.087   .     S
O340   Zn354   1.939   .     S
O340   Zn355   1.935   .     S
O340   Zn356   1.925   .     S
O340   Zn353   1.970   .     S
O341   Zn354   1.934   .     S
O342   Zn356   1.948   .     S
O343   Zn355   1.936   .     S
O344   Zn353   1.925   .     S
O345   Zn353   1.925   .     S
O346   Zn356   1.933   .     S
O347   Zn354   1.923   .     S
O348   Zn355   1.938   .     S
O349   Zn356   1.930   .     S
O350   Zn353   1.920   .     S
O351   Zn354   1.940   .     S
O352   Zn355   1.928   .     S
C357   C367    1.438   .     S
C357   O438    1.266   .     A
C357   O436    1.268   .     A
C358   H405    1.077   .     S
C358   C399    1.415   .     A
C358   C359    1.386   .     A
C359   H427    1.084   .     S
C359   C1162   1.391   .     S
C360   O437    1.286   .     A
C360   C366    1.456   .     S
C360   O439    1.281   .     A
C361   C362    1.420   .     A
C361   C363    1.398   .     A
C361   C1160   1.391   1_554 S
C362   C365    1.426   .     A
C362   C400    1.426   .     A
C363   C364    1.386   .     A
C363   H414    1.084   .     S
C364   C376    1.395   .     A
C364   H426    1.084   .     S
C365   C378    1.496   .     S
C365   C376    1.411   .     A
C366   C456    1.336   .     S
C366   H511    1.087   .     S
C368   C392    1.484   .     S
C368   C377    1.410   .     A
C368   C375    1.418   .     A
C369   C372    1.450   .     S
C369   C637    1.331   .     S
C369   H691    1.088   .     S
C370   C371    1.435   .     S
C371   O434    1.279   .     A
C371   O440    1.279   .     A
C372   O441    1.267   .     A
C372   O435    1.269   .     A
C373   C376    1.452   .     S
C373   O432    1.271   .     A
C373   O430    1.272   .     A
C374   O431    1.277   .     A
C374   C375    1.480   .     S
C374   O433    1.292   .     A
C375   C379    1.394   .     A
C377   C385    1.485   .     S
C377   C398    1.415   .     A
C378   C384    1.409   .     A
C378   C380    1.405   .     A
C379   C390    1.406   .     A
C379   H428    1.077   .     S
C380   H406    1.080   .     S
C380   C381    1.398   .     A
C381   H407    1.082   .     S
C381   C382    1.397   .     A
C382   C383    1.397   .     A
C382   H408    1.082   .     S
C383   H409    1.082   .     S
C383   C384    1.398   .     A
C384   H410    1.082   .     S
C385   C1187   1.403   .     S
C386   C387    1.397   .     A
C386   C1186   1.403   1_554 S
C386   H1212   1.083   1_554 S
C387   H412    1.082   .     S
C388   H413    1.081   .     S
C388   C389    1.399   .     A
C388   C476    1.397   .     S
C389   H415    1.082   .     S
C389   C1192   1.398   1_554 S
C390   C398    1.421   .     A
C390   C399    1.428   .     A
C391   H416    1.083   .     S
C391   C1190   1.398   .     S
C391   C474    1.404   .     S
C392   C393    1.404   .     A
C392   C397    1.404   .     A
C393   C394    1.399   .     A
C393   H417    1.083   .     S
C394   C395    1.398   .     A
C394   H418    1.082   .     S
C395   C396    1.398   .     A
C396   C397    1.398   .     A
C397   H421    1.083   .     S
C398   C1203   1.400   .     S
C399   C1201   1.423   .     S
C400   C401    1.407   .     A
C400   C1200   1.423   1_554 S
C401   C402    1.382   .     A
C401   H404    1.077   .     S
C402   H403    1.083   .     S
C402   C1199   1.400   1_554 S
H411   C1187   1.083   .     S
H419   C484    1.082   .     S
H420   C485    1.082   .     S
H423   C456    1.086   .     S
H425   C637    1.087   .     S
O429   Zn443   1.939   .     S
O429   Zn444   1.935   .     S
O429   Zn445   1.925   .     S
O429   Zn442   1.970   .     S
O430   Zn443   1.934   .     S
O431   Zn445   1.948   .     S
O432   Zn444   1.936   .     S
O433   Zn442   1.925   .     S
O434   Zn442   1.925   .     S
O435   Zn445   1.933   .     S
O436   Zn443   1.923   .     S
O437   Zn444   1.938   .     S
O438   Zn445   1.930   .     S
O439   Zn442   1.920   .     S
O440   Zn443   1.940   .     S
O441   Zn444   1.928   .     S
C446   C456    1.438   .     S
C446   O527    1.266   .     A
C446   O525    1.268   .     A
C447   H494    1.077   .     S
C447   C488    1.415   .     A
C447   C448    1.386   .     A
C448   H516    1.084   .     S
C448   C1251   1.391   .     S
C449   O526    1.286   .     A
C449   C455    1.456   .     S
C449   O528    1.281   .     A
C450   C451    1.420   .     A
C450   C452    1.398   .     A
C450   C1249   1.391   1_554 S
C451   C454    1.426   .     A
C451   C489    1.426   .     A
C452   C453    1.386   .     A
C452   H503    1.084   .     S
C453   C465    1.395   .     A
C453   H515    1.084   .     S
C454   C467    1.496   .     S
C454   C465    1.411   .     A
C455   C278    1.336   1_655 S
C455   H333    1.087   1_655 S
C457   C481    1.484   .     S
C457   C466    1.410   .     A
C457   C464    1.418   .     A
C458   C461    1.450   .     S
C458   C726    1.331   .     S
C458   H780    1.088   .     S
C459   C460    1.435   .     S
C460   O523    1.279   .     A
C460   O529    1.279   .     A
C461   O530    1.267   .     A
C461   O524    1.269   .     A
C462   C465    1.452   .     S
C462   O521    1.271   .     A
C462   O519    1.272   .     A
C463   O520    1.277   .     A
C463   C464    1.480   .     S
C463   O522    1.292   .     A
C464   C468    1.394   .     A
C466   C474    1.485   .     S
C466   C487    1.415   .     A
C467   C473    1.409   .     A
C467   C469    1.405   .     A
C468   C479    1.406   .     A
C468   H517    1.077   .     S
C469   H495    1.080   .     S
C469   C470    1.398   .     A
C470   H496    1.082   .     S
C470   C471    1.397   .     A
C471   C472    1.397   .     A
C471   H497    1.082   .     S
C472   H498    1.082   .     S
C472   C473    1.398   .     A
C473   H499    1.082   .     S
C474   C1276   1.403   .     S
C475   C476    1.397   .     A
C475   C1275   1.403   1_554 S
C475   H1301   1.083   1_554 S
C476   H501    1.082   .     S
C477   H502    1.081   .     S
C477   C478    1.399   .     A
C477   C298    1.397   1_655 S
C478   H504    1.082   .     S
C478   C1281   1.398   1_554 S
C479   C487    1.421   .     A
C479   C488    1.428   .     A
C480   H505    1.083   .     S
C480   C1279   1.398   .     S
C480   C296    1.404   1_655 S
C481   C482    1.404   .     A
C481   C486    1.404   .     A
C482   C483    1.399   .     A
C482   H506    1.083   .     S
C483   C484    1.398   .     A
C483   H507    1.082   .     S
C484   C485    1.398   .     A
C485   C486    1.398   .     A
C486   H510    1.083   .     S
C487   C1292   1.400   .     S
C488   C1290   1.423   .     S
C489   C490    1.407   .     A
C489   C1289   1.423   1_554 S
C490   C491    1.382   .     A
C490   H493    1.077   .     S
C491   H492    1.083   .     S
C491   C1288   1.400   1_554 S
H500   C1276   1.083   .     S
H508   C306    1.082   1_655 S
H509   C307    1.082   1_655 S
H512   C278    1.086   1_655 S
H514   C726    1.087   .     S
O518   Zn532   1.939   .     S
O518   Zn533   1.935   .     S
O518   Zn534   1.925   .     S
O518   Zn531   1.970   .     S
O519   Zn532   1.934   .     S
O520   Zn534   1.948   .     S
O521   Zn533   1.936   .     S
O522   Zn531   1.925   .     S
O523   Zn531   1.925   .     S
O524   Zn534   1.933   .     S
O525   Zn532   1.923   .     S
O526   Zn533   1.938   .     S
O527   Zn534   1.930   .     S
O528   Zn531   1.920   .     S
O529   Zn532   1.940   .     S
O530   Zn533   1.928   .     S
C535   C545    1.438   .     S
C535   O616    1.266   .     A
C535   O614    1.268   .     A
C536   H583    1.077   .     S
C536   C577    1.415   .     A
C536   C537    1.386   .     A
C537   H605    1.084   .     S
C537   C1340   1.391   .     S
C538   O615    1.286   .     A
C538   C544    1.456   .     S
C538   O617    1.281   .     A
C539   C540    1.420   .     A
C539   C541    1.398   .     A
C539   C1338   1.391   1_554 S
C540   C543    1.426   .     A
C540   C578    1.426   .     A
C541   C542    1.386   .     A
C541   H592    1.084   .     S
C542   C554    1.395   .     A
C542   H604    1.084   .     S
C543   C556    1.496   .     S
C543   C554    1.411   .     A
C544   C634    1.336   .     S
C544   H689    1.087   .     S
C545   C722    1.336   1_455 S
C545   H779    1.086   1_455 S
C546   C570    1.484   .     S
C546   C555    1.410   .     A
C546   C553    1.418   .     A
C547   C550    1.450   .     S
C547   C14     1.331   1_565 S
C547   H68     1.088   1_565 S
C548   C549    1.435   .     S
C549   O612    1.279   .     A
C549   O618    1.279   .     A
C550   O619    1.267   .     A
C550   O613    1.269   .     A
C551   C554    1.452   .     S
C551   O610    1.271   .     A
C551   O608    1.272   .     A
C552   O609    1.277   .     A
C552   C553    1.480   .     S
C552   O611    1.292   .     A
C553   C557    1.394   .     A
C555   C563    1.485   .     S
C555   C576    1.415   .     A
C556   C562    1.409   .     A
C556   C558    1.405   .     A
C557   C568    1.406   .     A
C557   H606    1.077   .     S
C558   H584    1.080   .     S
C558   C559    1.398   .     A
C559   H585    1.082   .     S
C559   C560    1.397   .     A
C560   C561    1.397   .     A
C560   H586    1.082   .     S
C561   H587    1.082   .     S
C561   C562    1.398   .     A
C562   H588    1.082   .     S
C563   C1365   1.403   .     S
C563   C747    1.404   1_455 S
C564   C565    1.397   .     A
C564   C1364   1.403   1_554 S
C564   H1390   1.083   1_554 S
C565   H590    1.082   .     S
C565   C744    1.397   1_455 S
C566   H591    1.081   .     S
C566   C567    1.399   .     A
C566   C654    1.397   .     S
C567   H593    1.082   .     S
C567   C1370   1.398   1_554 S
C568   C576    1.421   .     A
C568   C577    1.428   .     A
C569   H594    1.083   .     S
C569   C1368   1.398   .     S
C569   C652    1.404   .     S
C570   C571    1.404   .     A
C570   C575    1.404   .     A
C571   C572    1.399   .     A
C571   H595    1.083   .     S
C572   C573    1.398   .     A
C572   H596    1.082   .     S
C573   C574    1.398   .     A
C573   H775    1.082   1_455 S
C574   C575    1.398   .     A
C574   H776    1.082   1_455 S
C575   H599    1.083   .     S
C576   C1381   1.400   .     S
C577   C1379   1.423   .     S
C578   C579    1.407   .     A
C578   C1378   1.423   1_554 S
C579   C580    1.382   .     A
C579   H582    1.077   .     S
C580   H581    1.083   .     S
C580   C1377   1.400   1_554 S
H589   C1365   1.083   .     S
H597   C662    1.082   .     S
H598   C663    1.082   .     S
H600   C722    1.087   1_455 S
H601   C634    1.086   .     S
H603   C14     1.087   1_565 S
O607   Zn621   1.939   .     S
O607   Zn622   1.935   .     S
O607   Zn623   1.925   .     S
O607   Zn620   1.970   .     S
O608   Zn621   1.934   .     S
O609   Zn623   1.948   .     S
O610   Zn622   1.936   .     S
O611   Zn620   1.925   .     S
O612   Zn620   1.925   .     S
O613   Zn623   1.933   .     S
O614   Zn621   1.923   .     S
O615   Zn622   1.938   .     S
O616   Zn623   1.930   .     S
O617   Zn620   1.920   .     S
O618   Zn621   1.940   .     S
O619   Zn622   1.928   .     S
C624   C634    1.438   .     S
C624   O705    1.266   .     A
C624   O703    1.268   .     A
C625   H672    1.077   .     S
C625   C666    1.415   .     A
C625   C626    1.386   .     A
C626   H694    1.084   .     S
C626   C1429   1.391   .     S
C627   O704    1.286   .     A
C627   C633    1.456   .     S
C627   O706    1.281   .     A
C628   C629    1.420   .     A
C628   C630    1.398   .     A
C628   C1427   1.391   1_554 S
C629   C632    1.426   .     A
C629   C667    1.426   .     A
C630   C631    1.386   .     A
C630   H681    1.084   .     S
C631   C643    1.395   .     A
C631   H693    1.084   .     S
C632   C645    1.496   .     S
C632   C643    1.411   .     A
C633   C723    1.336   .     S
C633   H778    1.087   .     S
C635   C659    1.484   .     S
C635   C644    1.410   .     A
C635   C642    1.418   .     A
C636   C639    1.450   .     S
C636   C103    1.331   1_565 S
C636   H157    1.088   1_565 S
C637   C638    1.435   .     S
C638   O701    1.279   .     A
C638   O707    1.279   .     A
C639   O708    1.267   .     A
C639   O702    1.269   .     A
C640   C643    1.452   .     S
C640   O699    1.271   .     A
C640   O697    1.272   .     A
C641   O698    1.277   .     A
C641   C642    1.480   .     S
C641   O700    1.292   .     A
C642   C646    1.394   .     A
C644   C652    1.485   .     S
C644   C665    1.415   .     A
C645   C651    1.409   .     A
C645   C647    1.405   .     A
C646   C657    1.406   .     A
C646   H695    1.077   .     S
C647   H673    1.080   .     S
C647   C648    1.398   .     A
C648   H674    1.082   .     S
C648   C649    1.397   .     A
C649   C650    1.397   .     A
C649   H675    1.082   .     S
C650   H676    1.082   .     S
C650   C651    1.398   .     A
C651   H677    1.082   .     S
C652   C1454   1.403   .     S
C653   C654    1.397   .     A
C653   C1453   1.403   1_554 S
C653   H1479   1.083   1_554 S
C654   H679    1.082   .     S
C655   H680    1.081   .     S
C655   C656    1.399   .     A
C655   C743    1.397   .     S
C656   H682    1.082   .     S
C656   C1459   1.398   1_554 S
C657   C665    1.421   .     A
C657   C666    1.428   .     A
C658   H683    1.083   .     S
C658   C1457   1.398   .     S
C658   C741    1.404   .     S
C659   C660    1.404   .     A
C659   C664    1.404   .     A
C660   C661    1.399   .     A
C660   H684    1.083   .     S
C661   C662    1.398   .     A
C661   H685    1.082   .     S
C662   C663    1.398   .     A
C663   C664    1.398   .     A
C664   H688    1.083   .     S
C665   C1470   1.400   .     S
C666   C1468   1.423   .     S
C667   C668    1.407   .     A
C667   C1467   1.423   1_554 S
C668   C669    1.382   .     A
C668   H671    1.077   .     S
C669   H670    1.083   .     S
C669   C1466   1.400   1_554 S
H678   C1454   1.083   .     S
H686   C751    1.082   .     S
H687   C752    1.082   .     S
H690   C723    1.086   .     S
H692   C103    1.087   1_565 S
O696   Zn710   1.939   .     S
O696   Zn711   1.935   .     S
O696   Zn712   1.925   .     S
O696   Zn709   1.970   .     S
O697   Zn710   1.934   .     S
O698   Zn712   1.948   .     S
O699   Zn711   1.936   .     S
O700   Zn709   1.925   .     S
O701   Zn709   1.925   .     S
O702   Zn712   1.933   .     S
O703   Zn710   1.923   .     S
O704   Zn711   1.938   .     S
O705   Zn712   1.930   .     S
O706   Zn709   1.920   .     S
O707   Zn710   1.940   .     S
O708   Zn711   1.928   .     S
C713   C723    1.438   .     S
C713   O794    1.266   .     A
C713   O792    1.268   .     A
C714   H761    1.077   .     S
C714   C755    1.415   .     A
C714   C715    1.386   .     A
C715   H783    1.084   .     S
C715   C1518   1.391   .     S
C716   O793    1.286   .     A
C716   C722    1.456   .     S
C716   O795    1.281   .     A
C717   C718    1.420   .     A
C717   C719    1.398   .     A
C717   C1516   1.391   1_554 S
C718   C721    1.426   .     A
C718   C756    1.426   .     A
C719   C720    1.386   .     A
C719   H770    1.084   .     S
C720   C732    1.395   .     A
C720   H782    1.084   .     S
C721   C734    1.496   .     S
C721   C732    1.411   .     A
C722   C545    1.336   1_655 S
C722   H600    1.087   1_655 S
C724   C748    1.484   .     S
C724   C733    1.410   .     A
C724   C731    1.418   .     A
C725   C728    1.450   .     S
C725   C192    1.331   1_565 S
C725   H246    1.088   1_565 S
C726   C727    1.435   .     S
C727   O790    1.279   .     A
C727   O796    1.279   .     A
C728   O797    1.267   .     A
C728   O791    1.269   .     A
C729   C732    1.452   .     S
C729   O788    1.271   .     A
C729   O786    1.272   .     A
C730   O787    1.277   .     A
C730   C731    1.480   .     S
C730   O789    1.292   .     A
C731   C735    1.394   .     A
C733   C741    1.485   .     S
C733   C754    1.415   .     A
C734   C740    1.409   .     A
C734   C736    1.405   .     A
C735   C746    1.406   .     A
C735   H784    1.077   .     S
C736   H762    1.080   .     S
C736   C737    1.398   .     A
C737   H763    1.082   .     S
C737   C738    1.397   .     A
C738   C739    1.397   .     A
C738   H764    1.082   .     S
C739   H765    1.082   .     S
C739   C740    1.398   .     A
C740   H766    1.082   .     S
C741   C1543   1.403   .     S
C742   C743    1.397   .     A
C742   C1542   1.403   1_554 S
C742   H1568   1.083   1_554 S
C743   H768    1.082   .     S
C744   H769    1.081   .     S
C744   C745    1.399   .     A
C744   C565    1.397   1_655 S
C745   H771    1.082   .     S
C745   C1548   1.398   1_554 S
C746   C754    1.421   .     A
C746   C755    1.428   .     A
C747   H772    1.083   .     S
C747   C1546   1.398   .     S
C747   C563    1.404   1_655 S
C748   C749    1.404   .     A
C748   C753    1.404   .     A
C749   C750    1.399   .     A
C749   H773    1.083   .     S
C750   C751    1.398   .     A
C750   H774    1.082   .     S
C751   C752    1.398   .     A
C752   C753    1.398   .     A
C753   H777    1.083   .     S
C754   C1559   1.400   .     S
C755   C1557   1.423   .     S
C756   C757    1.407   .     A
C756   C1556   1.423   1_554 S
C757   C758    1.382   .     A
C757   H760    1.077   .     S
C758   H759    1.083   .     S
C758   C1555   1.400   1_554 S
H767   C1543   1.083   .     S
H775   C573    1.082   1_655 S
H776   C574    1.082   1_655 S
H779   C545    1.086   1_655 S
H781   C192    1.087   1_565 S
O785   Zn799   1.939   .     S
O785   Zn800   1.935   .     S
O785   Zn801   1.925   .     S
O785   Zn798   1.970   .     S
O786   Zn799   1.934   .     S
O787   Zn801   1.948   .     S
O788   Zn800   1.936   .     S
O789   Zn798   1.925   .     S
O790   Zn798   1.925   .     S
O791   Zn801   1.933   .     S
O792   Zn799   1.923   .     S
O793   Zn800   1.938   .     S
O794   Zn801   1.930   .     S
O795   Zn798   1.920   .     S
O796   Zn799   1.940   .     S
O797   Zn800   1.928   .     S
C802   C812    1.438   .     S
C802   O883    1.266   .     A
C802   O881    1.268   .     A
C803   H850    1.077   .     S
C803   C844    1.415   .     A
C803   C804    1.386   .     A
C804   H872    1.084   .     S
C804   C5      1.391   1_556 S
C805   O882    1.286   .     A
C805   C811    1.456   .     S
C805   O884    1.281   .     A
C806   C807    1.420   .     A
C806   C808    1.398   .     A
C807   C810    1.426   .     A
C807   C845    1.426   .     A
C808   C809    1.386   .     A
C808   H859    1.084   .     S
C809   C821    1.395   .     A
C809   H871    1.084   .     S
C810   C823    1.496   .     S
C810   C821    1.411   .     A
C811   C901    1.336   .     S
C811   H956    1.087   .     S
C812   C989    1.336   1_455 S
C812   H1046   1.086   1_455 S
C813   C837    1.484   .     S
C813   C822    1.410   .     A
C813   C820    1.418   .     A
C814   C817    1.450   .     S
C814   C1082   1.331   .     S
C814   H1136   1.088   .     S
C815   C816    1.435   .     S
C815   C1348   1.331   1_545 S
C815   H1404   1.087   1_545 S
C816   O879    1.279   .     A
C816   O885    1.279   .     A
C817   O886    1.267   .     A
C817   O880    1.269   .     A
C818   C821    1.452   .     S
C818   O877    1.271   .     A
C818   O875    1.272   .     A
C819   O876    1.277   .     A
C819   C820    1.480   .     S
C819   O878    1.292   .     A
C820   C824    1.394   .     A
C822   C830    1.485   .     S
C822   C843    1.415   .     A
C823   C829    1.409   .     A
C823   C825    1.405   .     A
C824   C835    1.406   .     A
C824   H873    1.077   .     S
C825   H851    1.080   .     S
C825   C826    1.398   .     A
C826   H852    1.082   .     S
C826   C827    1.397   .     A
C827   C828    1.397   .     A
C827   H853    1.082   .     S
C828   H854    1.082   .     S
C828   C829    1.398   .     A
C829   H855    1.082   .     S
C830   C30     1.403   1_556 S
C830   C1014   1.404   1_455 S
C831   C832    1.397   .     A
C832   H857    1.082   .     S
C832   C1011   1.397   1_455 S
C833   H858    1.081   .     S
C833   C834    1.399   .     A
C833   C921    1.397   .     S
C834   H860    1.082   .     S
C835   C843    1.421   .     A
C835   C844    1.428   .     A
C836   H861    1.083   .     S
C836   C33     1.398   1_556 S
C836   C919    1.404   .     S
C837   C838    1.404   .     A
C837   C842    1.404   .     A
C838   C839    1.399   .     A
C838   H862    1.083   .     S
C839   C840    1.398   .     A
C839   H863    1.082   .     S
C840   C841    1.398   .     A
C840   H1042   1.082   1_455 S
C841   C842    1.398   .     A
C841   H1043   1.082   1_455 S
C842   H866    1.083   .     S
C843   C46     1.400   1_556 S
C844   C44     1.423   1_556 S
C845   C846    1.407   .     A
C846   C847    1.382   .     A
C846   H849    1.077   .     S
C847   H848    1.083   .     S
H856   C30     1.083   1_556 S
H864   C929    1.082   .     S
H865   C930    1.082   .     S
H867   C989    1.087   1_455 S
H868   C901    1.086   .     S
H869   C1348   1.088   1_545 S
H870   C1082   1.087   .     S
O874   Zn888   1.939   .     S
O874   Zn889   1.935   .     S
O874   Zn890   1.925   .     S
O874   Zn887   1.970   .     S
O875   Zn888   1.934   .     S
O876   Zn890   1.948   .     S
O877   Zn889   1.936   .     S
O878   Zn887   1.925   .     S
O879   Zn887   1.925   .     S
O880   Zn890   1.933   .     S
O881   Zn888   1.923   .     S
O882   Zn889   1.938   .     S
O883   Zn890   1.930   .     S
O884   Zn887   1.920   .     S
O885   Zn888   1.940   .     S
O886   Zn889   1.928   .     S
C891   C901    1.438   .     S
C891   O972    1.266   .     A
C891   O970    1.268   .     A
C892   H939    1.077   .     S
C892   C933    1.415   .     A
C892   C893    1.386   .     A
C893   H961    1.084   .     S
C893   C94     1.391   1_556 S
C894   O971    1.286   .     A
C894   C900    1.456   .     S
C894   O973    1.281   .     A
C895   C896    1.420   .     A
C895   C897    1.398   .     A
C896   C899    1.426   .     A
C896   C934    1.426   .     A
C897   C898    1.386   .     A
C897   H948    1.084   .     S
C898   C910    1.395   .     A
C898   H960    1.084   .     S
C899   C912    1.496   .     S
C899   C910    1.411   .     A
C900   C990    1.336   .     S
C900   H1045   1.087   .     S
C902   C926    1.484   .     S
C902   C911    1.410   .     A
C902   C909    1.418   .     A
C903   C906    1.450   .     S
C903   C1171   1.331   .     S
C903   H1225   1.088   .     S
C904   C905    1.435   .     S
C904   C1437   1.331   1_545 S
C904   H1493   1.087   1_545 S
C905   O968    1.279   .     A
C905   O974    1.279   .     A
C906   O975    1.267   .     A
C906   O969    1.269   .     A
C907   C910    1.452   .     S
C907   O966    1.271   .     A
C907   O964    1.272   .     A
C908   O965    1.277   .     A
C908   C909    1.480   .     S
C908   O967    1.292   .     A
C909   C913    1.394   .     A
C911   C919    1.485   .     S
C911   C932    1.415   .     A
C912   C918    1.409   .     A
C912   C914    1.405   .     A
C913   C924    1.406   .     A
C913   H962    1.077   .     S
C914   H940    1.080   .     S
C914   C915    1.398   .     A
C915   H941    1.082   .     S
C915   C916    1.397   .     A
C916   C917    1.397   .     A
C916   H942    1.082   .     S
C917   H943    1.082   .     S
C917   C918    1.398   .     A
C918   H944    1.082   .     S
C919   C119    1.403   1_556 S
C920   C921    1.397   .     A
C921   H946    1.082   .     S
C922   H947    1.081   .     S
C922   C923    1.399   .     A
C922   C1010   1.397   .     S
C923   H949    1.082   .     S
C924   C932    1.421   .     A
C924   C933    1.428   .     A
C925   H950    1.083   .     S
C925   C122    1.398   1_556 S
C925   C1008   1.404   .     S
C926   C927    1.404   .     A
C926   C931    1.404   .     A
C927   C928    1.399   .     A
C927   H951    1.083   .     S
C928   C929    1.398   .     A
C928   H952    1.082   .     S
C929   C930    1.398   .     A
C930   C931    1.398   .     A
C931   H955    1.083   .     S
C932   C135    1.400   1_556 S
C933   C133    1.423   1_556 S
C934   C935    1.407   .     A
C935   C936    1.382   .     A
C935   H938    1.077   .     S
C936   H937    1.083   .     S
H945   C119    1.083   1_556 S
H953   C1018   1.082   .     S
H954   C1019   1.082   .     S
H957   C990    1.086   .     S
H958   C1437   1.088   1_545 S
H959   C1171   1.087   .     S
O963   Zn977   1.939   .     S
O963   Zn978   1.935   .     S
O963   Zn979   1.925   .     S
O963   Zn976   1.970   .     S
O964   Zn977   1.934   .     S
O965   Zn979   1.948   .     S
O966   Zn978   1.936   .     S
O967   Zn976   1.925   .     S
O968   Zn976   1.925   .     S
O969   Zn979   1.933   .     S
O970   Zn977   1.923   .     S
O971   Zn978   1.938   .     S
O972   Zn979   1.930   .     S
O973   Zn976   1.920   .     S
O974   Zn977   1.940   .     S
O975   Zn978   1.928   .     S
C980   C990    1.438   .     S
C980   O1061   1.266   .     A
C980   O1059   1.268   .     A
C981   H1028   1.077   .     S
C981   C1022   1.415   .     A
C981   C982    1.386   .     A
C982   H1050   1.084   .     S
C982   C183    1.391   1_556 S
C983   O1060   1.286   .     A
C983   C989    1.456   .     S
C983   O1062   1.281   .     A
C984   C985    1.420   .     A
C984   C986    1.398   .     A
C985   C988    1.426   .     A
C985   C1023   1.426   .     A
C986   C987    1.386   .     A
C986   H1037   1.084   .     S
C987   C999    1.395   .     A
C987   H1049   1.084   .     S
C988   C1001   1.496   .     S
C988   C999    1.411   .     A
C989   C812    1.336   1_655 S
C989   H867    1.087   1_655 S
C991   C1015   1.484   .     S
C991   C1000   1.410   .     A
C991   C998    1.418   .     A
C992   C995    1.450   .     S
C992   C1260   1.331   .     S
C992   H1314   1.088   .     S
C993   C994    1.435   .     S
C993   C1526   1.331   1_545 S
C993   H1582   1.087   1_545 S
C994   O1057   1.279   .     A
C994   O1063   1.279   .     A
C995   O1064   1.267   .     A
C995   O1058   1.269   .     A
C996   C999    1.452   .     S
C996   O1055   1.271   .     A
C996   O1053   1.272   .     A
C997   O1054   1.277   .     A
C997   C998    1.480   .     S
C997   O1056   1.292   .     A
C998   C1002   1.394   .     A
C1000  C1008   1.485   .     S
C1000  C1021   1.415   .     A
C1001  C1007   1.409   .     A
C1001  C1003   1.405   .     A
C1002  C1013   1.406   .     A
C1002  H1051   1.077   .     S
C1003  H1029   1.080   .     S
C1003  C1004   1.398   .     A
C1004  H1030   1.082   .     S
C1004  C1005   1.397   .     A
C1005  C1006   1.397   .     A
C1005  H1031   1.082   .     S
C1006  H1032   1.082   .     S
C1006  C1007   1.398   .     A
C1007  H1033   1.082   .     S
C1008  C208    1.403   1_556 S
C1009  C1010   1.397   .     A
C1010  H1035   1.082   .     S
C1011  H1036   1.081   .     S
C1011  C1012   1.399   .     A
C1011  C832    1.397   1_655 S
C1012  H1038   1.082   .     S
C1013  C1021   1.421   .     A
C1013  C1022   1.428   .     A
C1014  H1039   1.083   .     S
C1014  C211    1.398   1_556 S
C1014  C830    1.404   1_655 S
C1015  C1016   1.404   .     A
C1015  C1020   1.404   .     A
C1016  C1017   1.399   .     A
C1016  H1040   1.083   .     S
C1017  C1018   1.398   .     A
C1017  H1041   1.082   .     S
C1018  C1019   1.398   .     A
C1019  C1020   1.398   .     A
C1020  H1044   1.083   .     S
C1021  C224    1.400   1_556 S
C1022  C222    1.423   1_556 S
C1023  C1024   1.407   .     A
C1024  C1025   1.382   .     A
C1024  H1027   1.077   .     S
C1025  H1026   1.083   .     S
H1034  C208    1.083   1_556 S
H1042  C840    1.082   1_655 S
H1043  C841    1.082   1_655 S
H1046  C812    1.086   1_655 S
H1047  C1526   1.088   1_545 S
H1048  C1260   1.087   .     S
O1052  Zn1066  1.939   .     S
O1052  Zn1067  1.935   .     S
O1052  Zn1068  1.925   .     S
O1052  Zn1065  1.970   .     S
O1053  Zn1066  1.934   .     S
O1054  Zn1068  1.948   .     S
O1055  Zn1067  1.936   .     S
O1056  Zn1065  1.925   .     S
O1057  Zn1065  1.925   .     S
O1058  Zn1068  1.933   .     S
O1059  Zn1066  1.923   .     S
O1060  Zn1067  1.938   .     S
O1061  Zn1068  1.930   .     S
O1062  Zn1065  1.920   .     S
O1063  Zn1066  1.940   .     S
O1064  Zn1067  1.928   .     S
C1069  C1079   1.438   .     S
C1069  O1150   1.266   .     A
C1069  O1148   1.268   .     A
C1070  H1117   1.077   .     S
C1070  C1111   1.415   .     A
C1070  C1071   1.386   .     A
C1071  H1139   1.084   .     S
C1071  C272    1.391   1_556 S
C1072  O1149   1.286   .     A
C1072  C1078   1.456   .     S
C1072  O1151   1.281   .     A
C1073  C1074   1.420   .     A
C1073  C1075   1.398   .     A
C1074  C1077   1.426   .     A
C1074  C1112   1.426   .     A
C1075  C1076   1.386   .     A
C1075  H1126   1.084   .     S
C1076  C1088   1.395   .     A
C1076  H1138   1.084   .     S
C1077  C1090   1.496   .     S
C1077  C1088   1.411   .     A
C1078  C1168   1.336   .     S
C1078  H1223   1.087   .     S
C1079  C1256   1.336   1_455 S
C1079  H1313   1.086   1_455 S
C1080  C1104   1.484   .     S
C1080  C1089   1.410   .     A
C1080  C1087   1.418   .     A
C1081  C1084   1.450   .     S
C1081  C1349   1.331   .     S
C1081  H1403   1.088   .     S
C1082  C1083   1.435   .     S
C1083  O1146   1.279   .     A
C1083  O1152   1.279   .     A
C1084  O1153   1.267   .     A
C1084  O1147   1.269   .     A
C1085  C1088   1.452   .     S
C1085  O1144   1.271   .     A
C1085  O1142   1.272   .     A
C1086  O1143   1.277   .     A
C1086  C1087   1.480   .     S
C1086  O1145   1.292   .     A
C1087  C1091   1.394   .     A
C1089  C1097   1.485   .     S
C1089  C1110   1.415   .     A
C1090  C1096   1.409   .     A
C1090  C1092   1.405   .     A
C1091  C1102   1.406   .     A
C1091  H1140   1.077   .     S
C1092  H1118   1.080   .     S
C1092  C1093   1.398   .     A
C1093  H1119   1.082   .     S
C1093  C1094   1.397   .     A
C1094  C1095   1.397   .     A
C1094  H1120   1.082   .     S
C1095  H1121   1.082   .     S
C1095  C1096   1.398   .     A
C1096  H1122   1.082   .     S
C1097  C297    1.403   1_556 S
C1097  C1281   1.404   1_455 S
C1098  C1099   1.397   .     A
C1099  H1124   1.082   .     S
C1099  C1278   1.397   1_455 S
C1100  H1125   1.081   .     S
C1100  C1101   1.399   .     A
C1100  C1188   1.397   .     S
C1101  H1127   1.082   .     S
C1102  C1110   1.421   .     A
C1102  C1111   1.428   .     A
C1103  H1128   1.083   .     S
C1103  C300    1.398   1_556 S
C1103  C1186   1.404   .     S
C1104  C1105   1.404   .     A
C1104  C1109   1.404   .     A
C1105  C1106   1.399   .     A
C1105  H1129   1.083   .     S
C1106  C1107   1.398   .     A
C1106  H1130   1.082   .     S
C1107  C1108   1.398   .     A
C1107  H1309   1.082   1_455 S
C1108  C1109   1.398   .     A
C1108  H1310   1.082   1_455 S
C1109  H1133   1.083   .     S
C1110  C313    1.400   1_556 S
C1111  C311    1.423   1_556 S
C1112  C1113   1.407   .     A
C1113  C1114   1.382   .     A
C1113  H1116   1.077   .     S
C1114  H1115   1.083   .     S
H1123  C297    1.083   1_556 S
H1131  C1196   1.082   .     S
H1132  C1197   1.082   .     S
H1134  C1256   1.087   1_455 S
H1135  C1168   1.086   .     S
H1137  C1349   1.087   .     S
O1141  Zn1155  1.939   .     S
O1141  Zn1156  1.935   .     S
O1141  Zn1157  1.925   .     S
O1141  Zn1154  1.970   .     S
O1142  Zn1155  1.934   .     S
O1143  Zn1157  1.948   .     S
O1144  Zn1156  1.936   .     S
O1145  Zn1154  1.925   .     S
O1146  Zn1154  1.925   .     S
O1147  Zn1157  1.933   .     S
O1148  Zn1155  1.923   .     S
O1149  Zn1156  1.938   .     S
O1150  Zn1157  1.930   .     S
O1151  Zn1154  1.920   .     S
O1152  Zn1155  1.940   .     S
O1153  Zn1156  1.928   .     S
C1158  C1168   1.438   .     S
C1158  O1239   1.266   .     A
C1158  O1237   1.268   .     A
C1159  H1206   1.077   .     S
C1159  C1200   1.415   .     A
C1159  C1160   1.386   .     A
C1160  H1228   1.084   .     S
C1160  C361    1.391   1_556 S
C1161  O1238   1.286   .     A
C1161  C1167   1.456   .     S
C1161  O1240   1.281   .     A
C1162  C1163   1.420   .     A
C1162  C1164   1.398   .     A
C1163  C1166   1.426   .     A
C1163  C1201   1.426   .     A
C1164  C1165   1.386   .     A
C1164  H1215   1.084   .     S
C1165  C1177   1.395   .     A
C1165  H1227   1.084   .     S
C1166  C1179   1.496   .     S
C1166  C1177   1.411   .     A
C1167  C1257   1.336   .     S
C1167  H1312   1.087   .     S
C1169  C1193   1.484   .     S
C1169  C1178   1.410   .     A
C1169  C1176   1.418   .     A
C1170  C1173   1.450   .     S
C1170  C1438   1.331   .     S
C1170  H1492   1.088   .     S
C1171  C1172   1.435   .     S
C1172  O1235   1.279   .     A
C1172  O1241   1.279   .     A
C1173  O1242   1.267   .     A
C1173  O1236   1.269   .     A
C1174  C1177   1.452   .     S
C1174  O1233   1.271   .     A
C1174  O1231   1.272   .     A
C1175  O1232   1.277   .     A
C1175  C1176   1.480   .     S
C1175  O1234   1.292   .     A
C1176  C1180   1.394   .     A
C1178  C1186   1.485   .     S
C1178  C1199   1.415   .     A
C1179  C1185   1.409   .     A
C1179  C1181   1.405   .     A
C1180  C1191   1.406   .     A
C1180  H1229   1.077   .     S
C1181  H1207   1.080   .     S
C1181  C1182   1.398   .     A
C1182  H1208   1.082   .     S
C1182  C1183   1.397   .     A
C1183  C1184   1.397   .     A
C1183  H1209   1.082   .     S
C1184  H1210   1.082   .     S
C1184  C1185   1.398   .     A
C1185  H1211   1.082   .     S
C1186  C386    1.403   1_556 S
C1187  C1188   1.397   .     A
C1188  H1213   1.082   .     S
C1189  H1214   1.081   .     S
C1189  C1190   1.399   .     A
C1189  C1277   1.397   .     S
C1190  H1216   1.082   .     S
C1191  C1199   1.421   .     A
C1191  C1200   1.428   .     A
C1192  H1217   1.083   .     S
C1192  C389    1.398   1_556 S
C1192  C1275   1.404   .     S
C1193  C1194   1.404   .     A
C1193  C1198   1.404   .     A
C1194  C1195   1.399   .     A
C1194  H1218   1.083   .     S
C1195  C1196   1.398   .     A
C1195  H1219   1.082   .     S
C1196  C1197   1.398   .     A
C1197  C1198   1.398   .     A
C1198  H1222   1.083   .     S
C1199  C402    1.400   1_556 S
C1200  C400    1.423   1_556 S
C1201  C1202   1.407   .     A
C1202  C1203   1.382   .     A
C1202  H1205   1.077   .     S
C1203  H1204   1.083   .     S
H1212  C386    1.083   1_556 S
H1220  C1285   1.082   .     S
H1221  C1286   1.082   .     S
H1224  C1257   1.086   .     S
H1226  C1438   1.087   .     S
O1230  Zn1244  1.939   .     S
O1230  Zn1245  1.935   .     S
O1230  Zn1246  1.925   .     S
O1230  Zn1243  1.970   .     S
O1231  Zn1244  1.934   .     S
O1232  Zn1246  1.948   .     S
O1233  Zn1245  1.936   .     S
O1234  Zn1243  1.925   .     S
O1235  Zn1243  1.925   .     S
O1236  Zn1246  1.933   .     S
O1237  Zn1244  1.923   .     S
O1238  Zn1245  1.938   .     S
O1239  Zn1246  1.930   .     S
O1240  Zn1243  1.920   .     S
O1241  Zn1244  1.940   .     S
O1242  Zn1245  1.928   .     S
C1247  C1257   1.438   .     S
C1247  O1328   1.266   .     A
C1247  O1326   1.268   .     A
C1248  H1295   1.077   .     S
C1248  C1289   1.415   .     A
C1248  C1249   1.386   .     A
C1249  H1317   1.084   .     S
C1249  C450    1.391   1_556 S
C1250  O1327   1.286   .     A
C1250  C1256   1.456   .     S
C1250  O1329   1.281   .     A
C1251  C1252   1.420   .     A
C1251  C1253   1.398   .     A
C1252  C1255   1.426   .     A
C1252  C1290   1.426   .     A
C1253  C1254   1.386   .     A
C1253  H1304   1.084   .     S
C1254  C1266   1.395   .     A
C1254  H1316   1.084   .     S
C1255  C1268   1.496   .     S
C1255  C1266   1.411   .     A
C1256  C1079   1.336   1_655 S
C1256  H1134   1.087   1_655 S
C1258  C1282   1.484   .     S
C1258  C1267   1.410   .     A
C1258  C1265   1.418   .     A
C1259  C1262   1.450   .     S
C1259  C1527   1.331   .     S
C1259  H1581   1.088   .     S
C1260  C1261   1.435   .     S
C1261  O1324   1.279   .     A
C1261  O1330   1.279   .     A
C1262  O1331   1.267   .     A
C1262  O1325   1.269   .     A
C1263  C1266   1.452   .     S
C1263  O1322   1.271   .     A
C1263  O1320   1.272   .     A
C1264  O1321   1.277   .     A
C1264  C1265   1.480   .     S
C1264  O1323   1.292   .     A
C1265  C1269   1.394   .     A
C1267  C1275   1.485   .     S
C1267  C1288   1.415   .     A
C1268  C1274   1.409   .     A
C1268  C1270   1.405   .     A
C1269  C1280   1.406   .     A
C1269  H1318   1.077   .     S
C1270  H1296   1.080   .     S
C1270  C1271   1.398   .     A
C1271  H1297   1.082   .     S
C1271  C1272   1.397   .     A
C1272  C1273   1.397   .     A
C1272  H1298   1.082   .     S
C1273  H1299   1.082   .     S
C1273  C1274   1.398   .     A
C1274  H1300   1.082   .     S
C1275  C475    1.403   1_556 S
C1276  C1277   1.397   .     A
C1277  H1302   1.082   .     S
C1278  H1303   1.081   .     S
C1278  C1279   1.399   .     A
C1278  C1099   1.397   1_655 S
C1279  H1305   1.082   .     S
C1280  C1288   1.421   .     A
C1280  C1289   1.428   .     A
C1281  H1306   1.083   .     S
C1281  C478    1.398   1_556 S
C1281  C1097   1.404   1_655 S
C1282  C1283   1.404   .     A
C1282  C1287   1.404   .     A
C1283  C1284   1.399   .     A
C1283  H1307   1.083   .     S
C1284  C1285   1.398   .     A
C1284  H1308   1.082   .     S
C1285  C1286   1.398   .     A
C1286  C1287   1.398   .     A
C1287  H1311   1.083   .     S
C1288  C491    1.400   1_556 S
C1289  C489    1.423   1_556 S
C1290  C1291   1.407   .     A
C1291  C1292   1.382   .     A
C1291  H1294   1.077   .     S
C1292  H1293   1.083   .     S
H1301  C475    1.083   1_556 S
H1309  C1107   1.082   1_655 S
H1310  C1108   1.082   1_655 S
H1313  C1079   1.086   1_655 S
H1315  C1527   1.087   .     S
O1319  Zn1333  1.939   .     S
O1319  Zn1334  1.935   .     S
O1319  Zn1335  1.925   .     S
O1319  Zn1332  1.970   .     S
O1320  Zn1333  1.934   .     S
O1321  Zn1335  1.948   .     S
O1322  Zn1334  1.936   .     S
O1323  Zn1332  1.925   .     S
O1324  Zn1332  1.925   .     S
O1325  Zn1335  1.933   .     S
O1326  Zn1333  1.923   .     S
O1327  Zn1334  1.938   .     S
O1328  Zn1335  1.930   .     S
O1329  Zn1332  1.920   .     S
O1330  Zn1333  1.940   .     S
O1331  Zn1334  1.928   .     S
C1336  C1346   1.438   .     S
C1336  O1417   1.266   .     A
C1336  O1415   1.268   .     A
C1337  H1384   1.077   .     S
C1337  C1378   1.415   .     A
C1337  C1338   1.386   .     A
C1338  H1406   1.084   .     S
C1338  C539    1.391   1_556 S
C1339  O1416   1.286   .     A
C1339  C1345   1.456   .     S
C1339  O1418   1.281   .     A
C1340  C1341   1.420   .     A
C1340  C1342   1.398   .     A
C1341  C1344   1.426   .     A
C1341  C1379   1.426   .     A
C1342  C1343   1.386   .     A
C1342  H1393   1.084   .     S
C1343  C1355   1.395   .     A
C1343  H1405   1.084   .     S
C1344  C1357   1.496   .     S
C1344  C1355   1.411   .     A
C1345  C1435   1.336   .     S
C1345  H1490   1.087   .     S
C1346  C1523   1.336   1_455 S
C1346  H1580   1.086   1_455 S
C1347  C1371   1.484   .     S
C1347  C1356   1.410   .     A
C1347  C1354   1.418   .     A
C1348  C1351   1.450   .     S
C1348  C815    1.331   1_565 S
C1348  H869    1.088   1_565 S
C1349  C1350   1.435   .     S
C1350  O1413   1.279   .     A
C1350  O1419   1.279   .     A
C1351  O1420   1.267   .     A
C1351  O1414   1.269   .     A
C1352  C1355   1.452   .     S
C1352  O1411   1.271   .     A
C1352  O1409   1.272   .     A
C1353  O1410   1.277   .     A
C1353  C1354   1.480   .     S
C1353  O1412   1.292   .     A
C1354  C1358   1.394   .     A
C1356  C1364   1.485   .     S
C1356  C1377   1.415   .     A
C1357  C1363   1.409   .     A
C1357  C1359   1.405   .     A
C1358  C1369   1.406   .     A
C1358  H1407   1.077   .     S
C1359  H1385   1.080   .     S
C1359  C1360   1.398   .     A
C1360  H1386   1.082   .     S
C1360  C1361   1.397   .     A
C1361  C1362   1.397   .     A
C1361  H1387   1.082   .     S
C1362  H1388   1.082   .     S
C1362  C1363   1.398   .     A
C1363  H1389   1.082   .     S
C1364  C564    1.403   1_556 S
C1364  C1548   1.404   1_455 S
C1365  C1366   1.397   .     A
C1366  H1391   1.082   .     S
C1366  C1545   1.397   1_455 S
C1367  H1392   1.081   .     S
C1367  C1368   1.399   .     A
C1367  C1455   1.397   .     S
C1368  H1394   1.082   .     S
C1369  C1377   1.421   .     A
C1369  C1378   1.428   .     A
C1370  H1395   1.083   .     S
C1370  C567    1.398   1_556 S
C1370  C1453   1.404   .     S
C1371  C1372   1.404   .     A
C1371  C1376   1.404   .     A
C1372  C1373   1.399   .     A
C1372  H1396   1.083   .     S
C1373  C1374   1.398   .     A
C1373  H1397   1.082   .     S
C1374  C1375   1.398   .     A
C1374  H1576   1.082   1_455 S
C1375  C1376   1.398   .     A
C1375  H1577   1.082   1_455 S
C1376  H1400   1.083   .     S
C1377  C580    1.400   1_556 S
C1378  C578    1.423   1_556 S
C1379  C1380   1.407   .     A
C1380  C1381   1.382   .     A
C1380  H1383   1.077   .     S
C1381  H1382   1.083   .     S
H1390  C564    1.083   1_556 S
H1398  C1463   1.082   .     S
H1399  C1464   1.082   .     S
H1401  C1523   1.087   1_455 S
H1402  C1435   1.086   .     S
H1404  C815    1.087   1_565 S
O1408  Zn1422  1.939   .     S
O1408  Zn1423  1.935   .     S
O1408  Zn1424  1.925   .     S
O1408  Zn1421  1.970   .     S
O1409  Zn1422  1.934   .     S
O1410  Zn1424  1.948   .     S
O1411  Zn1423  1.936   .     S
O1412  Zn1421  1.925   .     S
O1413  Zn1421  1.925   .     S
O1414  Zn1424  1.933   .     S
O1415  Zn1422  1.923   .     S
O1416  Zn1423  1.938   .     S
O1417  Zn1424  1.930   .     S
O1418  Zn1421  1.920   .     S
O1419  Zn1422  1.940   .     S
O1420  Zn1423  1.928   .     S
C1425  C1435   1.438   .     S
C1425  O1506   1.266   .     A
C1425  O1504   1.268   .     A
C1426  H1473   1.077   .     S
C1426  C1467   1.415   .     A
C1426  C1427   1.386   .     A
C1427  H1495   1.084   .     S
C1427  C628    1.391   1_556 S
C1428  O1505   1.286   .     A
C1428  C1434   1.456   .     S
C1428  O1507   1.281   .     A
C1429  C1430   1.420   .     A
C1429  C1431   1.398   .     A
C1430  C1433   1.426   .     A
C1430  C1468   1.426   .     A
C1431  C1432   1.386   .     A
C1431  H1482   1.084   .     S
C1432  C1444   1.395   .     A
C1432  H1494   1.084   .     S
C1433  C1446   1.496   .     S
C1433  C1444   1.411   .     A
C1434  C1524   1.336   .     S
C1434  H1579   1.087   .     S
C1436  C1460   1.484   .     S
C1436  C1445   1.410   .     A
C1436  C1443   1.418   .     A
C1437  C1440   1.450   .     S
C1437  C904    1.331   1_565 S
C1437  H958    1.088   1_565 S
C1438  C1439   1.435   .     S
C1439  O1502   1.279   .     A
C1439  O1508   1.279   .     A
C1440  O1509   1.267   .     A
C1440  O1503   1.269   .     A
C1441  C1444   1.452   .     S
C1441  O1500   1.271   .     A
C1441  O1498   1.272   .     A
C1442  O1499   1.277   .     A
C1442  C1443   1.480   .     S
C1442  O1501   1.292   .     A
C1443  C1447   1.394   .     A
C1445  C1453   1.485   .     S
C1445  C1466   1.415   .     A
C1446  C1452   1.409   .     A
C1446  C1448   1.405   .     A
C1447  C1458   1.406   .     A
C1447  H1496   1.077   .     S
C1448  H1474   1.080   .     S
C1448  C1449   1.398   .     A
C1449  H1475   1.082   .     S
C1449  C1450   1.397   .     A
C1450  C1451   1.397   .     A
C1450  H1476   1.082   .     S
C1451  H1477   1.082   .     S
C1451  C1452   1.398   .     A
C1452  H1478   1.082   .     S
C1453  C653    1.403   1_556 S
C1454  C1455   1.397   .     A
C1455  H1480   1.082   .     S
C1456  H1481   1.081   .     S
C1456  C1457   1.399   .     A
C1456  C1544   1.397   .     S
C1457  H1483   1.082   .     S
C1458  C1466   1.421   .     A
C1458  C1467   1.428   .     A
C1459  H1484   1.083   .     S
C1459  C656    1.398   1_556 S
C1459  C1542   1.404   .     S
C1460  C1461   1.404   .     A
C1460  C1465   1.404   .     A
C1461  C1462   1.399   .     A
C1461  H1485   1.083   .     S
C1462  C1463   1.398   .     A
C1462  H1486   1.082   .     S
C1463  C1464   1.398   .     A
C1464  C1465   1.398   .     A
C1465  H1489   1.083   .     S
C1466  C669    1.400   1_556 S
C1467  C667    1.423   1_556 S
C1468  C1469   1.407   .     A
C1469  C1470   1.382   .     A
C1469  H1472   1.077   .     S
C1470  H1471   1.083   .     S
H1479  C653    1.083   1_556 S
H1487  C1552   1.082   .     S
H1488  C1553   1.082   .     S
H1491  C1524   1.086   .     S
H1493  C904    1.087   1_565 S
O1497  Zn1511  1.939   .     S
O1497  Zn1512  1.935   .     S
O1497  Zn1513  1.925   .     S
O1497  Zn1510  1.970   .     S
O1498  Zn1511  1.934   .     S
O1499  Zn1513  1.948   .     S
O1500  Zn1512  1.936   .     S
O1501  Zn1510  1.925   .     S
O1502  Zn1510  1.925   .     S
O1503  Zn1513  1.933   .     S
O1504  Zn1511  1.923   .     S
O1505  Zn1512  1.938   .     S
O1506  Zn1513  1.930   .     S
O1507  Zn1510  1.920   .     S
O1508  Zn1511  1.940   .     S
O1509  Zn1512  1.928   .     S
C1514  C1524   1.438   .     S
C1514  O1595   1.266   .     A
C1514  O1593   1.268   .     A
C1515  H1562   1.077   .     S
C1515  C1556   1.415   .     A
C1515  C1516   1.386   .     A
C1516  H1584   1.084   .     S
C1516  C717    1.391   1_556 S
C1517  O1594   1.286   .     A
C1517  C1523   1.456   .     S
C1517  O1596   1.281   .     A
C1518  C1519   1.420   .     A
C1518  C1520   1.398   .     A
C1519  C1522   1.426   .     A
C1519  C1557   1.426   .     A
C1520  C1521   1.386   .     A
C1520  H1571   1.084   .     S
C1521  C1533   1.395   .     A
C1521  H1583   1.084   .     S
C1522  C1535   1.496   .     S
C1522  C1533   1.411   .     A
C1523  C1346   1.336   1_655 S
C1523  H1401   1.087   1_655 S
C1525  C1549   1.484   .     S
C1525  C1534   1.410   .     A
C1525  C1532   1.418   .     A
C1526  C1529   1.450   .     S
C1526  C993    1.331   1_565 S
C1526  H1047   1.088   1_565 S
C1527  C1528   1.435   .     S
C1528  O1591   1.279   .     A
C1528  O1597   1.279   .     A
C1529  O1598   1.267   .     A
C1529  O1592   1.269   .     A
C1530  C1533   1.452   .     S
C1530  O1589   1.271   .     A
C1530  O1587   1.272   .     A
C1531  O1588   1.277   .     A
C1531  C1532   1.480   .     S
C1531  O1590   1.292   .     A
C1532  C1536   1.394   .     A
C1534  C1542   1.485   .     S
C1534  C1555   1.415   .     A
C1535  C1541   1.409   .     A
C1535  C1537   1.405   .     A
C1536  C1547   1.406   .     A
C1536  H1585   1.077   .     S
C1537  H1563   1.080   .     S
C1537  C1538   1.398   .     A
C1538  H1564   1.082   .     S
C1538  C1539   1.397   .     A
C1539  C1540   1.397   .     A
C1539  H1565   1.082   .     S
C1540  H1566   1.082   .     S
C1540  C1541   1.398   .     A
C1541  H1567   1.082   .     S
C1542  C742    1.403   1_556 S
C1543  C1544   1.397   .     A
C1544  H1569   1.082   .     S
C1545  H1570   1.081   .     S
C1545  C1546   1.399   .     A
C1545  C1366   1.397   1_655 S
C1546  H1572   1.082   .     S
C1547  C1555   1.421   .     A
C1547  C1556   1.428   .     A
C1548  H1573   1.083   .     S
C1548  C745    1.398   1_556 S
C1548  C1364   1.404   1_655 S
C1549  C1550   1.404   .     A
C1549  C1554   1.404   .     A
C1550  C1551   1.399   .     A
C1550  H1574   1.083   .     S
C1551  C1552   1.398   .     A
C1551  H1575   1.082   .     S
C1552  C1553   1.398   .     A
C1553  C1554   1.398   .     A
C1554  H1578   1.083   .     S
C1555  C758    1.400   1_556 S
C1556  C756    1.423   1_556 S
C1557  C1558   1.407   .     A
C1558  C1559   1.382   .     A
C1558  H1561   1.077   .     S
C1559  H1560   1.083   .     S
H1568  C742    1.083   1_556 S
H1576  C1374   1.082   1_655 S
H1577  C1375   1.082   1_655 S
H1580  C1346   1.086   1_655 S
H1582  C993    1.087   1_565 S
O1586  Zn1600  1.939   .     S
O1586  Zn1601  1.935   .     S
O1586  Zn1602  1.925   .     S
O1586  Zn1599  1.970   .     S
O1587  Zn1600  1.934   .     S
O1588  Zn1602  1.948   .     S
O1589  Zn1601  1.936   .     S
O1590  Zn1599  1.925   .     S
O1591  Zn1599  1.925   .     S
O1592  Zn1602  1.933   .     S
O1593  Zn1600  1.923   .     S
O1594  Zn1601  1.938   .     S
O1595  Zn1602  1.930   .     S
O1596  Zn1599  1.920   .     S
O1597  Zn1600  1.940   .     S
O1598  Zn1601  1.928   .     S
