data_str_m1_o10_o16_pcu_sym.188
_audit_creation_date              2020-01-03
_audit_creation_method            'Materials Studio'
_symmetry_space_group_name_H-M    'P1'
_symmetry_Int_Tables_number       1
_symmetry_cell_setting            triclinic
loop_
_symmetry_equiv_pos_as_xyz
  x,y,z
_cell_length_a                    32.5223
_cell_length_b                    32.5178
_cell_length_c                    31.0690
_cell_angle_alpha                 96.7122
_cell_angle_beta                  75.1191
_cell_angle_gamma                 98.6474
loop_
_atom_site_label
_atom_site_type_symbol
_atom_site_fract_x
_atom_site_fract_y
_atom_site_fract_z
_atom_site_U_iso_or_equiv
_atom_site_adp_type
_atom_site_occupancy
C1     C     0.05272   0.15950   0.25998   0.00000  Uiso   1.00
C2     C     0.18239   0.16720   0.05631   0.00000  Uiso   1.00
C3     C     0.19481   0.09721   0.06403   0.00000  Uiso   1.00
C4     C     0.28073   0.17377   0.24006   0.00000  Uiso   1.00
C5     C     0.14488   0.19531   0.41906   0.00000  Uiso   1.00
C6     C     0.32655   0.17651   0.23615   0.00000  Uiso   1.00
C7     C     0.00746   0.15682   0.26371   0.00000  Uiso   1.00
C8     C     0.18043   0.32245   0.23663   0.00000  Uiso   1.00
C9     C     0.15174   0.01167   0.26365   0.00000  Uiso   1.00
C10    C     0.15609   0.05581   0.26013   0.00000  Uiso   1.00
C11    C     0.17655   0.27786   0.24020   0.00000  Uiso   1.00
C12    C     0.14417   0.25068   0.47844   0.00000  Uiso   1.00
C13    C     0.18503   0.14787   0.12942   0.00000  Uiso   1.00
C14    C     0.14839   0.18439   0.37095   0.00000  Uiso   1.00
C15    C     0.18912   0.08411   0.02137   0.00000  Uiso   1.00
C16    C     0.19095   0.13834   0.08155   0.00000  Uiso   1.00
C17    C     0.13905   0.23645   0.43604   0.00000  Uiso   1.00
C18    C     0.23292   0.03452   0.49155   0.00000  Uiso   1.00
C19    C     0.15609   0.22452   0.00425   0.00000  Uiso   1.00
C20    C     0.16133   0.18238   0.48885   0.00000  Uiso   1.00
C21    C     0.15329   0.16729   0.44654   0.00000  Uiso   1.00
C22    C     0.17398   0.15464   0.01405   0.00000  Uiso   1.00
C23    C     0.17685   0.11217   0.49710   0.00000  Uiso   1.00
C24    C     0.16581   0.09773   0.45698   0.00000  Uiso   1.00
C25    C     0.15336   0.12451   0.43270   0.00000  Uiso   1.00
H26    H     0.20007   0.07460   0.08447   0.00000  Uiso   1.00
H27    H     0.16611   0.06525   0.44432   0.00000  Uiso   1.00
H28    H     0.25151   0.05498   0.46497   0.00000  Uiso   1.00
H29    H     0.23350   0.00172   0.47702   0.00000  Uiso   1.00
H30    H     0.24853   0.03814   0.01994   0.00000  Uiso   1.00
H31    H     0.16066   0.23837   0.03614   0.00000  Uiso   1.00
H32    H     0.31923   0.13854   0.28940   0.00000  Uiso   1.00
H33    H     0.20691   0.00372   0.21181   0.00000  Uiso   1.00
H34    H     0.12484   0.33117   0.28851   0.00000  Uiso   1.00
H35    H     0.17929   0.19822   0.07217   0.00000  Uiso   1.00
H36    H     0.13241   0.25832   0.41568   0.00000  Uiso   1.00
H37    H     0.14028   0.28275   0.49086   0.00000  Uiso   1.00
H38    H     0.14295   0.11082   0.40326   0.00000  Uiso   1.00
H39    H     0.01550   0.19465   0.21072   0.00000  Uiso   1.00
O40    O     0.16667   0.16667   0.25000   0.00000  Uiso   1.00
O41    O     0.15451   0.12637   0.15459   0.00000  Uiso   1.00
O42    O     0.12940   0.20391   0.34968   0.00000  Uiso   1.00
O43    O     0.20824   0.17759   0.14606   0.00000  Uiso   1.00
O44    O     0.17451   0.15880   0.34968   0.00000  Uiso   1.00
O45    O     0.18988   0.04247   0.00597   0.00000  Uiso   1.00
O46    O     0.17930   0.08019   0.28214   0.00000  Uiso   1.00
O47    O     0.14632   0.26085   0.27014   0.00000  Uiso   1.00
O48    O     0.07412   0.13291   0.23413   0.00000  Uiso   1.00
O49    O     0.26693   0.19272   0.21361   0.00000  Uiso   1.00
O50    O     0.07071   0.18878   0.28213   0.00000  Uiso   1.00
O51    O     0.25491   0.15226   0.27014   0.00000  Uiso   1.00
O52    O     0.13760   0.06944   0.23413   0.00000  Uiso   1.00
O53    O     0.20345   0.25620   0.21361   0.00000  Uiso   1.00
Zn54   Zn    0.19338   0.13994   0.28734   0.00000  Uiso   1.00
Zn55   Zn    0.13379   0.12458   0.21876   0.00000  Uiso   1.00
Zn56   Zn    0.21056   0.19775   0.20657   0.00000  Uiso   1.00
Zn57   Zn    0.12893   0.20439   0.28734   0.00000  Uiso   1.00
C58    C     0.38605   0.15950   0.25998   0.00000  Uiso   1.00
C59    C     0.51572   0.16720   0.05631   0.00000  Uiso   1.00
C60    C     0.52814   0.09721   0.06403   0.00000  Uiso   1.00
C61    C     0.61406   0.17377   0.24006   0.00000  Uiso   1.00
C62    C     0.47822   0.19531   0.41906   0.00000  Uiso   1.00
C63    C     0.65989   0.17651   0.23615   0.00000  Uiso   1.00
C64    C     0.34079   0.15682   0.26371   0.00000  Uiso   1.00
C65    C     0.51376   0.32245   0.23663   0.00000  Uiso   1.00
C66    C     0.48507   0.01167   0.26365   0.00000  Uiso   1.00
C67    C     0.48942   0.05581   0.26013   0.00000  Uiso   1.00
C68    C     0.50988   0.27786   0.24020   0.00000  Uiso   1.00
C69    C     0.47750   0.25068   0.47844   0.00000  Uiso   1.00
C70    C     0.51836   0.14787   0.12942   0.00000  Uiso   1.00
C71    C     0.48173   0.18439   0.37095   0.00000  Uiso   1.00
C72    C     0.52246   0.08411   0.02137   0.00000  Uiso   1.00
C73    C     0.52428   0.13834   0.08155   0.00000  Uiso   1.00
C74    C     0.47239   0.23645   0.43604   0.00000  Uiso   1.00
C75    C     0.56625   0.03452   0.49155   0.00000  Uiso   1.00
C76    C     0.48942   0.22452   0.00425   0.00000  Uiso   1.00
C77    C     0.49466   0.18238   0.48885   0.00000  Uiso   1.00
C78    C     0.48663   0.16729   0.44654   0.00000  Uiso   1.00
C79    C     0.50731   0.15464   0.01405   0.00000  Uiso   1.00
C80    C     0.51018   0.11217   0.49710   0.00000  Uiso   1.00
C81    C     0.49914   0.09773   0.45698   0.00000  Uiso   1.00
C82    C     0.48670   0.12451   0.43270   0.00000  Uiso   1.00
H83    H     0.53340   0.07460   0.08447   0.00000  Uiso   1.00
H84    H     0.49944   0.06525   0.44432   0.00000  Uiso   1.00
H85    H     0.58484   0.05498   0.46497   0.00000  Uiso   1.00
H86    H     0.56683   0.00172   0.47702   0.00000  Uiso   1.00
H87    H     0.58186   0.03814   0.01994   0.00000  Uiso   1.00
H88    H     0.49399   0.23837   0.03614   0.00000  Uiso   1.00
H89    H     0.65256   0.13854   0.28940   0.00000  Uiso   1.00
H90    H     0.54024   0.00372   0.21181   0.00000  Uiso   1.00
H91    H     0.45817   0.33117   0.28851   0.00000  Uiso   1.00
H92    H     0.51263   0.19822   0.07217   0.00000  Uiso   1.00
H93    H     0.46575   0.25832   0.41568   0.00000  Uiso   1.00
H94    H     0.47361   0.28275   0.49086   0.00000  Uiso   1.00
H95    H     0.47629   0.11082   0.40326   0.00000  Uiso   1.00
H96    H     0.34883   0.19465   0.21072   0.00000  Uiso   1.00
O97    O     0.50000   0.16667   0.25000   0.00000  Uiso   1.00
O98    O     0.48784   0.12637   0.15459   0.00000  Uiso   1.00
O99    O     0.46274   0.20391   0.34968   0.00000  Uiso   1.00
O100   O     0.54157   0.17759   0.14606   0.00000  Uiso   1.00
O101   O     0.50785   0.15880   0.34968   0.00000  Uiso   1.00
O102   O     0.52321   0.04247   0.00597   0.00000  Uiso   1.00
O103   O     0.51264   0.08019   0.28214   0.00000  Uiso   1.00
O104   O     0.47965   0.26085   0.27014   0.00000  Uiso   1.00
O105   O     0.40745   0.13291   0.23413   0.00000  Uiso   1.00
O106   O     0.60026   0.19272   0.21361   0.00000  Uiso   1.00
O107   O     0.40405   0.18878   0.28213   0.00000  Uiso   1.00
O108   O     0.58824   0.15226   0.27014   0.00000  Uiso   1.00
O109   O     0.47093   0.06944   0.23413   0.00000  Uiso   1.00
O110   O     0.53678   0.25620   0.21361   0.00000  Uiso   1.00
Zn111  Zn    0.52672   0.13994   0.28734   0.00000  Uiso   1.00
Zn112  Zn    0.46713   0.12458   0.21876   0.00000  Uiso   1.00
Zn113  Zn    0.54389   0.19775   0.20657   0.00000  Uiso   1.00
Zn114  Zn    0.46226   0.20439   0.28734   0.00000  Uiso   1.00
C115   C     0.71938   0.15950   0.25998   0.00000  Uiso   1.00
C116   C     0.84905   0.16720   0.05631   0.00000  Uiso   1.00
C117   C     0.86147   0.09721   0.06403   0.00000  Uiso   1.00
C118   C     0.94739   0.17377   0.24006   0.00000  Uiso   1.00
C119   C     0.81155   0.19531   0.41906   0.00000  Uiso   1.00
C120   C     0.99322   0.17651   0.23615   0.00000  Uiso   1.00
C121   C     0.67413   0.15682   0.26371   0.00000  Uiso   1.00
C122   C     0.84709   0.32245   0.23663   0.00000  Uiso   1.00
C123   C     0.81841   0.01167   0.26365   0.00000  Uiso   1.00
C124   C     0.82276   0.05581   0.26013   0.00000  Uiso   1.00
C125   C     0.84322   0.27786   0.24020   0.00000  Uiso   1.00
C126   C     0.81083   0.25068   0.47844   0.00000  Uiso   1.00
C127   C     0.85170   0.14787   0.12942   0.00000  Uiso   1.00
C128   C     0.81506   0.18439   0.37095   0.00000  Uiso   1.00
C129   C     0.85579   0.08411   0.02137   0.00000  Uiso   1.00
C130   C     0.85761   0.13834   0.08155   0.00000  Uiso   1.00
C131   C     0.80572   0.23645   0.43604   0.00000  Uiso   1.00
C132   C     0.89958   0.03452   0.49155   0.00000  Uiso   1.00
C133   C     0.82276   0.22452   0.00425   0.00000  Uiso   1.00
C134   C     0.82799   0.18238   0.48885   0.00000  Uiso   1.00
C135   C     0.81996   0.16729   0.44654   0.00000  Uiso   1.00
C136   C     0.84065   0.15464   0.01405   0.00000  Uiso   1.00
C137   C     0.84352   0.11217   0.49710   0.00000  Uiso   1.00
C138   C     0.83248   0.09773   0.45698   0.00000  Uiso   1.00
C139   C     0.82003   0.12451   0.43270   0.00000  Uiso   1.00
H140   H     0.86673   0.07460   0.08447   0.00000  Uiso   1.00
H141   H     0.83278   0.06525   0.44432   0.00000  Uiso   1.00
H142   H     0.91817   0.05498   0.46497   0.00000  Uiso   1.00
H143   H     0.90016   0.00172   0.47702   0.00000  Uiso   1.00
H144   H     0.91520   0.03814   0.01994   0.00000  Uiso   1.00
H145   H     0.82733   0.23837   0.03614   0.00000  Uiso   1.00
H146   H     0.98589   0.13854   0.28940   0.00000  Uiso   1.00
H147   H     0.87358   0.00372   0.21181   0.00000  Uiso   1.00
H148   H     0.79150   0.33117   0.28851   0.00000  Uiso   1.00
H149   H     0.84596   0.19822   0.07217   0.00000  Uiso   1.00
H150   H     0.79908   0.25832   0.41568   0.00000  Uiso   1.00
H151   H     0.80695   0.28275   0.49086   0.00000  Uiso   1.00
H152   H     0.80962   0.11082   0.40326   0.00000  Uiso   1.00
H153   H     0.68216   0.19465   0.21072   0.00000  Uiso   1.00
O154   O     0.83333   0.16667   0.25000   0.00000  Uiso   1.00
O155   O     0.82118   0.12637   0.15459   0.00000  Uiso   1.00
O156   O     0.79607   0.20391   0.34968   0.00000  Uiso   1.00
O157   O     0.87491   0.17759   0.14606   0.00000  Uiso   1.00
O158   O     0.84118   0.15880   0.34968   0.00000  Uiso   1.00
O159   O     0.85655   0.04247   0.00597   0.00000  Uiso   1.00
O160   O     0.84597   0.08019   0.28214   0.00000  Uiso   1.00
O161   O     0.81298   0.26085   0.27014   0.00000  Uiso   1.00
O162   O     0.74078   0.13291   0.23413   0.00000  Uiso   1.00
O163   O     0.93360   0.19272   0.21361   0.00000  Uiso   1.00
O164   O     0.73738   0.18878   0.28213   0.00000  Uiso   1.00
O165   O     0.92158   0.15226   0.27014   0.00000  Uiso   1.00
O166   O     0.80426   0.06944   0.23413   0.00000  Uiso   1.00
O167   O     0.87012   0.25620   0.21361   0.00000  Uiso   1.00
Zn168  Zn    0.86005   0.13994   0.28734   0.00000  Uiso   1.00
Zn169  Zn    0.80046   0.12458   0.21876   0.00000  Uiso   1.00
Zn170  Zn    0.87723   0.19775   0.20657   0.00000  Uiso   1.00
Zn171  Zn    0.79560   0.20439   0.28734   0.00000  Uiso   1.00
C172   C     0.05272   0.49284   0.25998   0.00000  Uiso   1.00
C173   C     0.18239   0.50053   0.05631   0.00000  Uiso   1.00
C174   C     0.19481   0.43054   0.06403   0.00000  Uiso   1.00
C175   C     0.28073   0.50710   0.24006   0.00000  Uiso   1.00
C176   C     0.14488   0.52864   0.41906   0.00000  Uiso   1.00
C177   C     0.32655   0.50985   0.23615   0.00000  Uiso   1.00
C178   C     0.00746   0.49015   0.26371   0.00000  Uiso   1.00
C179   C     0.18043   0.65578   0.23663   0.00000  Uiso   1.00
C180   C     0.15174   0.34500   0.26365   0.00000  Uiso   1.00
C181   C     0.15609   0.38915   0.26013   0.00000  Uiso   1.00
C182   C     0.17655   0.61120   0.24020   0.00000  Uiso   1.00
C183   C     0.14417   0.58402   0.47844   0.00000  Uiso   1.00
C184   C     0.18503   0.48120   0.12942   0.00000  Uiso   1.00
C185   C     0.14839   0.51772   0.37095   0.00000  Uiso   1.00
C186   C     0.18912   0.41744   0.02137   0.00000  Uiso   1.00
C187   C     0.19095   0.47167   0.08155   0.00000  Uiso   1.00
C188   C     0.13905   0.56978   0.43604   0.00000  Uiso   1.00
C189   C     0.23292   0.36785   0.49155   0.00000  Uiso   1.00
C190   C     0.15609   0.55785   0.00425   0.00000  Uiso   1.00
C191   C     0.16133   0.51571   0.48885   0.00000  Uiso   1.00
C192   C     0.15329   0.50063   0.44654   0.00000  Uiso   1.00
C193   C     0.17398   0.48797   0.01405   0.00000  Uiso   1.00
C194   C     0.17685   0.44551   0.49710   0.00000  Uiso   1.00
C195   C     0.16581   0.43106   0.45698   0.00000  Uiso   1.00
C196   C     0.15336   0.45784   0.43270   0.00000  Uiso   1.00
H197   H     0.20007   0.40794   0.08447   0.00000  Uiso   1.00
H198   H     0.16611   0.39858   0.44432   0.00000  Uiso   1.00
H199   H     0.25151   0.38831   0.46497   0.00000  Uiso   1.00
H200   H     0.23350   0.33505   0.47702   0.00000  Uiso   1.00
H201   H     0.24853   0.37147   0.01994   0.00000  Uiso   1.00
H202   H     0.16066   0.57170   0.03614   0.00000  Uiso   1.00
H203   H     0.31923   0.47187   0.28940   0.00000  Uiso   1.00
H204   H     0.20691   0.33706   0.21181   0.00000  Uiso   1.00
H205   H     0.12484   0.66450   0.28851   0.00000  Uiso   1.00
H206   H     0.17929   0.53155   0.07217   0.00000  Uiso   1.00
H207   H     0.13241   0.59165   0.41568   0.00000  Uiso   1.00
H208   H     0.14028   0.61608   0.49086   0.00000  Uiso   1.00
H209   H     0.14295   0.44416   0.40326   0.00000  Uiso   1.00
H210   H     0.01550   0.52798   0.21072   0.00000  Uiso   1.00
O211   O     0.16667   0.50000   0.25000   0.00000  Uiso   1.00
O212   O     0.15451   0.45970   0.15459   0.00000  Uiso   1.00
O213   O     0.12940   0.53724   0.34968   0.00000  Uiso   1.00
O214   O     0.20824   0.51092   0.14606   0.00000  Uiso   1.00
O215   O     0.17451   0.49213   0.34968   0.00000  Uiso   1.00
O216   O     0.18988   0.37581   0.00597   0.00000  Uiso   1.00
O217   O     0.17930   0.41352   0.28214   0.00000  Uiso   1.00
O218   O     0.14632   0.59418   0.27014   0.00000  Uiso   1.00
O219   O     0.07412   0.46625   0.23413   0.00000  Uiso   1.00
O220   O     0.26693   0.52605   0.21361   0.00000  Uiso   1.00
O221   O     0.07071   0.52211   0.28213   0.00000  Uiso   1.00
O222   O     0.25491   0.48559   0.27014   0.00000  Uiso   1.00
O223   O     0.13760   0.40277   0.23413   0.00000  Uiso   1.00
O224   O     0.20345   0.58953   0.21361   0.00000  Uiso   1.00
Zn225  Zn    0.19338   0.47327   0.28734   0.00000  Uiso   1.00
Zn226  Zn    0.13379   0.45791   0.21876   0.00000  Uiso   1.00
Zn227  Zn    0.21056   0.53109   0.20657   0.00000  Uiso   1.00
Zn228  Zn    0.12893   0.53773   0.28734   0.00000  Uiso   1.00
C229   C     0.38605   0.49284   0.25998   0.00000  Uiso   1.00
C230   C     0.51572   0.50053   0.05631   0.00000  Uiso   1.00
C231   C     0.52814   0.43054   0.06403   0.00000  Uiso   1.00
C232   C     0.61406   0.50710   0.24006   0.00000  Uiso   1.00
C233   C     0.47822   0.52864   0.41906   0.00000  Uiso   1.00
C234   C     0.65989   0.50985   0.23615   0.00000  Uiso   1.00
C235   C     0.34079   0.49015   0.26371   0.00000  Uiso   1.00
C236   C     0.51376   0.65578   0.23663   0.00000  Uiso   1.00
C237   C     0.48507   0.34500   0.26365   0.00000  Uiso   1.00
C238   C     0.48942   0.38915   0.26013   0.00000  Uiso   1.00
C239   C     0.50988   0.61120   0.24020   0.00000  Uiso   1.00
C240   C     0.47750   0.58402   0.47844   0.00000  Uiso   1.00
C241   C     0.51836   0.48120   0.12942   0.00000  Uiso   1.00
C242   C     0.48173   0.51772   0.37095   0.00000  Uiso   1.00
C243   C     0.52246   0.41744   0.02137   0.00000  Uiso   1.00
C244   C     0.52428   0.47167   0.08155   0.00000  Uiso   1.00
C245   C     0.47239   0.56978   0.43604   0.00000  Uiso   1.00
C246   C     0.56625   0.36785   0.49155   0.00000  Uiso   1.00
C247   C     0.48942   0.55785   0.00425   0.00000  Uiso   1.00
C248   C     0.49466   0.51571   0.48885   0.00000  Uiso   1.00
C249   C     0.48663   0.50063   0.44654   0.00000  Uiso   1.00
C250   C     0.50731   0.48797   0.01405   0.00000  Uiso   1.00
C251   C     0.51018   0.44551   0.49710   0.00000  Uiso   1.00
C252   C     0.49914   0.43106   0.45698   0.00000  Uiso   1.00
C253   C     0.48670   0.45784   0.43270   0.00000  Uiso   1.00
H254   H     0.53340   0.40794   0.08447   0.00000  Uiso   1.00
H255   H     0.49944   0.39858   0.44432   0.00000  Uiso   1.00
H256   H     0.58484   0.38831   0.46497   0.00000  Uiso   1.00
H257   H     0.56683   0.33505   0.47702   0.00000  Uiso   1.00
H258   H     0.58186   0.37147   0.01994   0.00000  Uiso   1.00
H259   H     0.49399   0.57170   0.03614   0.00000  Uiso   1.00
H260   H     0.65256   0.47187   0.28940   0.00000  Uiso   1.00
H261   H     0.54024   0.33706   0.21181   0.00000  Uiso   1.00
H262   H     0.45817   0.66450   0.28851   0.00000  Uiso   1.00
H263   H     0.51263   0.53155   0.07217   0.00000  Uiso   1.00
H264   H     0.46575   0.59165   0.41568   0.00000  Uiso   1.00
H265   H     0.47361   0.61608   0.49086   0.00000  Uiso   1.00
H266   H     0.47629   0.44416   0.40326   0.00000  Uiso   1.00
H267   H     0.34883   0.52798   0.21072   0.00000  Uiso   1.00
O268   O     0.50000   0.50000   0.25000   0.00000  Uiso   1.00
O269   O     0.48784   0.45970   0.15459   0.00000  Uiso   1.00
O270   O     0.46274   0.53724   0.34968   0.00000  Uiso   1.00
O271   O     0.54157   0.51092   0.14606   0.00000  Uiso   1.00
O272   O     0.50785   0.49213   0.34968   0.00000  Uiso   1.00
O273   O     0.52321   0.37581   0.00597   0.00000  Uiso   1.00
O274   O     0.51264   0.41352   0.28214   0.00000  Uiso   1.00
O275   O     0.47965   0.59418   0.27014   0.00000  Uiso   1.00
O276   O     0.40745   0.46625   0.23413   0.00000  Uiso   1.00
O277   O     0.60026   0.52605   0.21361   0.00000  Uiso   1.00
O278   O     0.40405   0.52211   0.28213   0.00000  Uiso   1.00
O279   O     0.58824   0.48559   0.27014   0.00000  Uiso   1.00
O280   O     0.47093   0.40277   0.23413   0.00000  Uiso   1.00
O281   O     0.53678   0.58953   0.21361   0.00000  Uiso   1.00
Zn282  Zn    0.52672   0.47327   0.28734   0.00000  Uiso   1.00
Zn283  Zn    0.46713   0.45791   0.21876   0.00000  Uiso   1.00
Zn284  Zn    0.54389   0.53109   0.20657   0.00000  Uiso   1.00
Zn285  Zn    0.46226   0.53773   0.28734   0.00000  Uiso   1.00
C286   C     0.71938   0.49284   0.25998   0.00000  Uiso   1.00
C287   C     0.84905   0.50053   0.05631   0.00000  Uiso   1.00
C288   C     0.86147   0.43054   0.06403   0.00000  Uiso   1.00
C289   C     0.94739   0.50710   0.24006   0.00000  Uiso   1.00
C290   C     0.81155   0.52864   0.41906   0.00000  Uiso   1.00
C291   C     0.99322   0.50985   0.23615   0.00000  Uiso   1.00
C292   C     0.67413   0.49015   0.26371   0.00000  Uiso   1.00
C293   C     0.84709   0.65578   0.23663   0.00000  Uiso   1.00
C294   C     0.81841   0.34500   0.26365   0.00000  Uiso   1.00
C295   C     0.82276   0.38915   0.26013   0.00000  Uiso   1.00
C296   C     0.84322   0.61120   0.24020   0.00000  Uiso   1.00
C297   C     0.81083   0.58402   0.47844   0.00000  Uiso   1.00
C298   C     0.85170   0.48120   0.12942   0.00000  Uiso   1.00
C299   C     0.81506   0.51772   0.37095   0.00000  Uiso   1.00
C300   C     0.85579   0.41744   0.02137   0.00000  Uiso   1.00
C301   C     0.85761   0.47167   0.08155   0.00000  Uiso   1.00
C302   C     0.80572   0.56978   0.43604   0.00000  Uiso   1.00
C303   C     0.89958   0.36785   0.49155   0.00000  Uiso   1.00
C304   C     0.82276   0.55785   0.00425   0.00000  Uiso   1.00
C305   C     0.82799   0.51571   0.48885   0.00000  Uiso   1.00
C306   C     0.81996   0.50063   0.44654   0.00000  Uiso   1.00
C307   C     0.84065   0.48797   0.01405   0.00000  Uiso   1.00
C308   C     0.84352   0.44551   0.49710   0.00000  Uiso   1.00
C309   C     0.83248   0.43106   0.45698   0.00000  Uiso   1.00
C310   C     0.82003   0.45784   0.43270   0.00000  Uiso   1.00
H311   H     0.86673   0.40794   0.08447   0.00000  Uiso   1.00
H312   H     0.83278   0.39858   0.44432   0.00000  Uiso   1.00
H313   H     0.91817   0.38831   0.46497   0.00000  Uiso   1.00
H314   H     0.90016   0.33505   0.47702   0.00000  Uiso   1.00
H315   H     0.91520   0.37147   0.01994   0.00000  Uiso   1.00
H316   H     0.82733   0.57170   0.03614   0.00000  Uiso   1.00
H317   H     0.98589   0.47187   0.28940   0.00000  Uiso   1.00
H318   H     0.87358   0.33706   0.21181   0.00000  Uiso   1.00
H319   H     0.79150   0.66450   0.28851   0.00000  Uiso   1.00
H320   H     0.84596   0.53155   0.07217   0.00000  Uiso   1.00
H321   H     0.79908   0.59165   0.41568   0.00000  Uiso   1.00
H322   H     0.80695   0.61608   0.49086   0.00000  Uiso   1.00
H323   H     0.80962   0.44416   0.40326   0.00000  Uiso   1.00
H324   H     0.68216   0.52798   0.21072   0.00000  Uiso   1.00
O325   O     0.83333   0.50000   0.25000   0.00000  Uiso   1.00
O326   O     0.82118   0.45970   0.15459   0.00000  Uiso   1.00
O327   O     0.79607   0.53724   0.34968   0.00000  Uiso   1.00
O328   O     0.87491   0.51092   0.14606   0.00000  Uiso   1.00
O329   O     0.84118   0.49213   0.34968   0.00000  Uiso   1.00
O330   O     0.85655   0.37581   0.00597   0.00000  Uiso   1.00
O331   O     0.84597   0.41352   0.28214   0.00000  Uiso   1.00
O332   O     0.81298   0.59418   0.27014   0.00000  Uiso   1.00
O333   O     0.74078   0.46625   0.23413   0.00000  Uiso   1.00
O334   O     0.93360   0.52605   0.21361   0.00000  Uiso   1.00
O335   O     0.73738   0.52211   0.28213   0.00000  Uiso   1.00
O336   O     0.92158   0.48559   0.27014   0.00000  Uiso   1.00
O337   O     0.80426   0.40277   0.23413   0.00000  Uiso   1.00
O338   O     0.87012   0.58953   0.21361   0.00000  Uiso   1.00
Zn339  Zn    0.86005   0.47327   0.28734   0.00000  Uiso   1.00
Zn340  Zn    0.80046   0.45791   0.21876   0.00000  Uiso   1.00
Zn341  Zn    0.87723   0.53109   0.20657   0.00000  Uiso   1.00
Zn342  Zn    0.79560   0.53773   0.28734   0.00000  Uiso   1.00
C343   C     0.05272   0.82617   0.25998   0.00000  Uiso   1.00
C344   C     0.18239   0.83386   0.05631   0.00000  Uiso   1.00
C345   C     0.19481   0.76387   0.06403   0.00000  Uiso   1.00
C346   C     0.28073   0.84044   0.24006   0.00000  Uiso   1.00
C347   C     0.14488   0.86198   0.41906   0.00000  Uiso   1.00
C348   C     0.32655   0.84318   0.23615   0.00000  Uiso   1.00
C349   C     0.00746   0.82348   0.26371   0.00000  Uiso   1.00
C350   C     0.18043   0.98912   0.23663   0.00000  Uiso   1.00
C351   C     0.15174   0.67834   0.26365   0.00000  Uiso   1.00
C352   C     0.15609   0.72248   0.26013   0.00000  Uiso   1.00
C353   C     0.17655   0.94453   0.24020   0.00000  Uiso   1.00
C354   C     0.14417   0.91735   0.47844   0.00000  Uiso   1.00
C355   C     0.18503   0.81454   0.12942   0.00000  Uiso   1.00
C356   C     0.14839   0.85106   0.37095   0.00000  Uiso   1.00
C357   C     0.18912   0.75078   0.02137   0.00000  Uiso   1.00
C358   C     0.19095   0.80501   0.08155   0.00000  Uiso   1.00
C359   C     0.13905   0.90312   0.43604   0.00000  Uiso   1.00
C360   C     0.23292   0.70118   0.49155   0.00000  Uiso   1.00
C361   C     0.15609   0.89118   0.00425   0.00000  Uiso   1.00
C362   C     0.16133   0.84904   0.48885   0.00000  Uiso   1.00
C363   C     0.15329   0.83396   0.44654   0.00000  Uiso   1.00
C364   C     0.17398   0.82130   0.01405   0.00000  Uiso   1.00
C365   C     0.17685   0.77884   0.49710   0.00000  Uiso   1.00
C366   C     0.16581   0.76439   0.45698   0.00000  Uiso   1.00
C367   C     0.15336   0.79117   0.43270   0.00000  Uiso   1.00
H368   H     0.20007   0.74127   0.08447   0.00000  Uiso   1.00
H369   H     0.16611   0.73192   0.44432   0.00000  Uiso   1.00
H370   H     0.25151   0.72165   0.46497   0.00000  Uiso   1.00
H371   H     0.23350   0.66838   0.47702   0.00000  Uiso   1.00
H372   H     0.24853   0.70480   0.01994   0.00000  Uiso   1.00
H373   H     0.16066   0.90503   0.03614   0.00000  Uiso   1.00
H374   H     0.31923   0.80521   0.28940   0.00000  Uiso   1.00
H375   H     0.20691   0.67039   0.21181   0.00000  Uiso   1.00
H376   H     0.12484   0.99784   0.28851   0.00000  Uiso   1.00
H377   H     0.17929   0.86489   0.07217   0.00000  Uiso   1.00
H378   H     0.13241   0.92498   0.41568   0.00000  Uiso   1.00
H379   H     0.14028   0.94942   0.49086   0.00000  Uiso   1.00
H380   H     0.14295   0.77749   0.40326   0.00000  Uiso   1.00
H381   H     0.01550   0.86132   0.21072   0.00000  Uiso   1.00
O382   O     0.16667   0.83333   0.25000   0.00000  Uiso   1.00
O383   O     0.15451   0.79304   0.15459   0.00000  Uiso   1.00
O384   O     0.12940   0.87058   0.34968   0.00000  Uiso   1.00
O385   O     0.20824   0.84425   0.14606   0.00000  Uiso   1.00
O386   O     0.17451   0.82546   0.34968   0.00000  Uiso   1.00
O387   O     0.18988   0.70914   0.00597   0.00000  Uiso   1.00
O388   O     0.17930   0.74686   0.28214   0.00000  Uiso   1.00
O389   O     0.14632   0.92751   0.27014   0.00000  Uiso   1.00
O390   O     0.07412   0.79958   0.23413   0.00000  Uiso   1.00
O391   O     0.26693   0.85939   0.21361   0.00000  Uiso   1.00
O392   O     0.07071   0.85544   0.28213   0.00000  Uiso   1.00
O393   O     0.25491   0.81892   0.27014   0.00000  Uiso   1.00
O394   O     0.13760   0.73610   0.23413   0.00000  Uiso   1.00
O395   O     0.20345   0.92286   0.21361   0.00000  Uiso   1.00
Zn396  Zn    0.19338   0.80661   0.28734   0.00000  Uiso   1.00
Zn397  Zn    0.13379   0.79124   0.21876   0.00000  Uiso   1.00
Zn398  Zn    0.21056   0.86442   0.20657   0.00000  Uiso   1.00
Zn399  Zn    0.12893   0.87106   0.28734   0.00000  Uiso   1.00
C400   C     0.38605   0.82617   0.25998   0.00000  Uiso   1.00
C401   C     0.51572   0.83386   0.05631   0.00000  Uiso   1.00
C402   C     0.52814   0.76387   0.06403   0.00000  Uiso   1.00
C403   C     0.61406   0.84044   0.24006   0.00000  Uiso   1.00
C404   C     0.47822   0.86198   0.41906   0.00000  Uiso   1.00
C405   C     0.65989   0.84318   0.23615   0.00000  Uiso   1.00
C406   C     0.34079   0.82348   0.26371   0.00000  Uiso   1.00
C407   C     0.51376   0.98912   0.23663   0.00000  Uiso   1.00
C408   C     0.48507   0.67834   0.26365   0.00000  Uiso   1.00
C409   C     0.48942   0.72248   0.26013   0.00000  Uiso   1.00
C410   C     0.50988   0.94453   0.24020   0.00000  Uiso   1.00
C411   C     0.47750   0.91735   0.47844   0.00000  Uiso   1.00
C412   C     0.51836   0.81454   0.12942   0.00000  Uiso   1.00
C413   C     0.48173   0.85106   0.37095   0.00000  Uiso   1.00
C414   C     0.52246   0.75078   0.02137   0.00000  Uiso   1.00
C415   C     0.52428   0.80501   0.08155   0.00000  Uiso   1.00
C416   C     0.47239   0.90312   0.43604   0.00000  Uiso   1.00
C417   C     0.56625   0.70118   0.49155   0.00000  Uiso   1.00
C418   C     0.48942   0.89118   0.00425   0.00000  Uiso   1.00
C419   C     0.49466   0.84904   0.48885   0.00000  Uiso   1.00
C420   C     0.48663   0.83396   0.44654   0.00000  Uiso   1.00
C421   C     0.50731   0.82130   0.01405   0.00000  Uiso   1.00
C422   C     0.51018   0.77884   0.49710   0.00000  Uiso   1.00
C423   C     0.49914   0.76439   0.45698   0.00000  Uiso   1.00
C424   C     0.48670   0.79117   0.43270   0.00000  Uiso   1.00
H425   H     0.53340   0.74127   0.08447   0.00000  Uiso   1.00
H426   H     0.49944   0.73192   0.44432   0.00000  Uiso   1.00
H427   H     0.58484   0.72165   0.46497   0.00000  Uiso   1.00
H428   H     0.56683   0.66838   0.47702   0.00000  Uiso   1.00
H429   H     0.58186   0.70480   0.01994   0.00000  Uiso   1.00
H430   H     0.49399   0.90503   0.03614   0.00000  Uiso   1.00
H431   H     0.65256   0.80521   0.28940   0.00000  Uiso   1.00
H432   H     0.54024   0.67039   0.21181   0.00000  Uiso   1.00
H433   H     0.45817   0.99784   0.28851   0.00000  Uiso   1.00
H434   H     0.51263   0.86489   0.07217   0.00000  Uiso   1.00
H435   H     0.46575   0.92498   0.41568   0.00000  Uiso   1.00
H436   H     0.47361   0.94942   0.49086   0.00000  Uiso   1.00
H437   H     0.47629   0.77749   0.40326   0.00000  Uiso   1.00
H438   H     0.34883   0.86132   0.21072   0.00000  Uiso   1.00
O439   O     0.50000   0.83333   0.25000   0.00000  Uiso   1.00
O440   O     0.48784   0.79304   0.15459   0.00000  Uiso   1.00
O441   O     0.46274   0.87058   0.34968   0.00000  Uiso   1.00
O442   O     0.54157   0.84425   0.14606   0.00000  Uiso   1.00
O443   O     0.50785   0.82546   0.34968   0.00000  Uiso   1.00
O444   O     0.52321   0.70914   0.00597   0.00000  Uiso   1.00
O445   O     0.51264   0.74686   0.28214   0.00000  Uiso   1.00
O446   O     0.47965   0.92751   0.27014   0.00000  Uiso   1.00
O447   O     0.40745   0.79958   0.23413   0.00000  Uiso   1.00
O448   O     0.60026   0.85939   0.21361   0.00000  Uiso   1.00
O449   O     0.40405   0.85544   0.28213   0.00000  Uiso   1.00
O450   O     0.58824   0.81892   0.27014   0.00000  Uiso   1.00
O451   O     0.47093   0.73610   0.23413   0.00000  Uiso   1.00
O452   O     0.53678   0.92286   0.21361   0.00000  Uiso   1.00
Zn453  Zn    0.52672   0.80661   0.28734   0.00000  Uiso   1.00
Zn454  Zn    0.46713   0.79124   0.21876   0.00000  Uiso   1.00
Zn455  Zn    0.54389   0.86442   0.20657   0.00000  Uiso   1.00
Zn456  Zn    0.46226   0.87106   0.28734   0.00000  Uiso   1.00
C457   C     0.71938   0.82617   0.25998   0.00000  Uiso   1.00
C458   C     0.84905   0.83386   0.05631   0.00000  Uiso   1.00
C459   C     0.86147   0.76387   0.06403   0.00000  Uiso   1.00
C460   C     0.94739   0.84044   0.24006   0.00000  Uiso   1.00
C461   C     0.81155   0.86198   0.41906   0.00000  Uiso   1.00
C462   C     0.99322   0.84318   0.23615   0.00000  Uiso   1.00
C463   C     0.67413   0.82348   0.26371   0.00000  Uiso   1.00
C464   C     0.84709   0.98912   0.23663   0.00000  Uiso   1.00
C465   C     0.81841   0.67834   0.26365   0.00000  Uiso   1.00
C466   C     0.82276   0.72248   0.26013   0.00000  Uiso   1.00
C467   C     0.84322   0.94453   0.24020   0.00000  Uiso   1.00
C468   C     0.81083   0.91735   0.47844   0.00000  Uiso   1.00
C469   C     0.85170   0.81454   0.12942   0.00000  Uiso   1.00
C470   C     0.81506   0.85106   0.37095   0.00000  Uiso   1.00
C471   C     0.85579   0.75078   0.02137   0.00000  Uiso   1.00
C472   C     0.85761   0.80501   0.08155   0.00000  Uiso   1.00
C473   C     0.80572   0.90312   0.43604   0.00000  Uiso   1.00
C474   C     0.89958   0.70118   0.49155   0.00000  Uiso   1.00
C475   C     0.82276   0.89118   0.00425   0.00000  Uiso   1.00
C476   C     0.82799   0.84904   0.48885   0.00000  Uiso   1.00
C477   C     0.81996   0.83396   0.44654   0.00000  Uiso   1.00
C478   C     0.84065   0.82130   0.01405   0.00000  Uiso   1.00
C479   C     0.84352   0.77884   0.49710   0.00000  Uiso   1.00
C480   C     0.83248   0.76439   0.45698   0.00000  Uiso   1.00
C481   C     0.82003   0.79117   0.43270   0.00000  Uiso   1.00
H482   H     0.86673   0.74127   0.08447   0.00000  Uiso   1.00
H483   H     0.83278   0.73192   0.44432   0.00000  Uiso   1.00
H484   H     0.91817   0.72165   0.46497   0.00000  Uiso   1.00
H485   H     0.90016   0.66838   0.47702   0.00000  Uiso   1.00
H486   H     0.91520   0.70480   0.01994   0.00000  Uiso   1.00
H487   H     0.82733   0.90503   0.03614   0.00000  Uiso   1.00
H488   H     0.98589   0.80521   0.28940   0.00000  Uiso   1.00
H489   H     0.87358   0.67039   0.21181   0.00000  Uiso   1.00
H490   H     0.79150   0.99784   0.28851   0.00000  Uiso   1.00
H491   H     0.84596   0.86489   0.07217   0.00000  Uiso   1.00
H492   H     0.79908   0.92498   0.41568   0.00000  Uiso   1.00
H493   H     0.80695   0.94942   0.49086   0.00000  Uiso   1.00
H494   H     0.80962   0.77749   0.40326   0.00000  Uiso   1.00
H495   H     0.68216   0.86132   0.21072   0.00000  Uiso   1.00
O496   O     0.83333   0.83333   0.25000   0.00000  Uiso   1.00
O497   O     0.82118   0.79304   0.15459   0.00000  Uiso   1.00
O498   O     0.79607   0.87058   0.34968   0.00000  Uiso   1.00
O499   O     0.87491   0.84425   0.14606   0.00000  Uiso   1.00
O500   O     0.84118   0.82546   0.34968   0.00000  Uiso   1.00
O501   O     0.85655   0.70914   0.00597   0.00000  Uiso   1.00
O502   O     0.84597   0.74686   0.28214   0.00000  Uiso   1.00
O503   O     0.81298   0.92751   0.27014   0.00000  Uiso   1.00
O504   O     0.74078   0.79958   0.23413   0.00000  Uiso   1.00
O505   O     0.93360   0.85939   0.21361   0.00000  Uiso   1.00
O506   O     0.73738   0.85544   0.28213   0.00000  Uiso   1.00
O507   O     0.92158   0.81892   0.27014   0.00000  Uiso   1.00
O508   O     0.80426   0.73610   0.23413   0.00000  Uiso   1.00
O509   O     0.87012   0.92286   0.21361   0.00000  Uiso   1.00
Zn510  Zn    0.86005   0.80661   0.28734   0.00000  Uiso   1.00
Zn511  Zn    0.80046   0.79124   0.21876   0.00000  Uiso   1.00
Zn512  Zn    0.87723   0.86442   0.20657   0.00000  Uiso   1.00
Zn513  Zn    0.79560   0.87106   0.28734   0.00000  Uiso   1.00
C514   C     0.05272   0.15950   0.75998   0.00000  Uiso   1.00
C515   C     0.18239   0.16720   0.55631   0.00000  Uiso   1.00
C516   C     0.19481   0.09721   0.56403   0.00000  Uiso   1.00
C517   C     0.28073   0.17377   0.74006   0.00000  Uiso   1.00
C518   C     0.14488   0.19531   0.91906   0.00000  Uiso   1.00
C519   C     0.32655   0.17651   0.73615   0.00000  Uiso   1.00
C520   C     0.00746   0.15682   0.76371   0.00000  Uiso   1.00
C521   C     0.18043   0.32245   0.73663   0.00000  Uiso   1.00
C522   C     0.15174   0.01167   0.76365   0.00000  Uiso   1.00
C523   C     0.15609   0.05581   0.76013   0.00000  Uiso   1.00
C524   C     0.17655   0.27786   0.74020   0.00000  Uiso   1.00
C525   C     0.14417   0.25068   0.97844   0.00000  Uiso   1.00
C526   C     0.18503   0.14787   0.62942   0.00000  Uiso   1.00
C527   C     0.14839   0.18439   0.87095   0.00000  Uiso   1.00
C528   C     0.18912   0.08411   0.52137   0.00000  Uiso   1.00
C529   C     0.19095   0.13834   0.58155   0.00000  Uiso   1.00
C530   C     0.13905   0.23645   0.93604   0.00000  Uiso   1.00
C531   C     0.23292   0.03452   0.99155   0.00000  Uiso   1.00
C532   C     0.15609   0.22452   0.50425   0.00000  Uiso   1.00
C533   C     0.16133   0.18238   0.98885   0.00000  Uiso   1.00
C534   C     0.15329   0.16729   0.94654   0.00000  Uiso   1.00
C535   C     0.17398   0.15464   0.51405   0.00000  Uiso   1.00
C536   C     0.17685   0.11217   0.99710   0.00000  Uiso   1.00
C537   C     0.16581   0.09773   0.95698   0.00000  Uiso   1.00
C538   C     0.15336   0.12451   0.93270   0.00000  Uiso   1.00
H539   H     0.20007   0.07460   0.58447   0.00000  Uiso   1.00
H540   H     0.16611   0.06525   0.94432   0.00000  Uiso   1.00
H541   H     0.25151   0.05498   0.96497   0.00000  Uiso   1.00
H542   H     0.23350   0.00172   0.97702   0.00000  Uiso   1.00
H543   H     0.24853   0.03814   0.51994   0.00000  Uiso   1.00
H544   H     0.16066   0.23837   0.53614   0.00000  Uiso   1.00
H545   H     0.31923   0.13854   0.78940   0.00000  Uiso   1.00
H546   H     0.20691   0.00372   0.71181   0.00000  Uiso   1.00
H547   H     0.12484   0.33117   0.78851   0.00000  Uiso   1.00
H548   H     0.17929   0.19822   0.57217   0.00000  Uiso   1.00
H549   H     0.13241   0.25832   0.91568   0.00000  Uiso   1.00
H550   H     0.14028   0.28275   0.99086   0.00000  Uiso   1.00
H551   H     0.14295   0.11082   0.90326   0.00000  Uiso   1.00
H552   H     0.01550   0.19465   0.71072   0.00000  Uiso   1.00
O553   O     0.16667   0.16667   0.75000   0.00000  Uiso   1.00
O554   O     0.15451   0.12637   0.65459   0.00000  Uiso   1.00
O555   O     0.12940   0.20391   0.84968   0.00000  Uiso   1.00
O556   O     0.20824   0.17759   0.64606   0.00000  Uiso   1.00
O557   O     0.17451   0.15880   0.84968   0.00000  Uiso   1.00
O558   O     0.18988   0.04247   0.50597   0.00000  Uiso   1.00
O559   O     0.17930   0.08019   0.78214   0.00000  Uiso   1.00
O560   O     0.14632   0.26085   0.77014   0.00000  Uiso   1.00
O561   O     0.07412   0.13291   0.73413   0.00000  Uiso   1.00
O562   O     0.26693   0.19272   0.71361   0.00000  Uiso   1.00
O563   O     0.07071   0.18878   0.78213   0.00000  Uiso   1.00
O564   O     0.25491   0.15226   0.77014   0.00000  Uiso   1.00
O565   O     0.13760   0.06944   0.73413   0.00000  Uiso   1.00
O566   O     0.20345   0.25620   0.71361   0.00000  Uiso   1.00
Zn567  Zn    0.19338   0.13994   0.78734   0.00000  Uiso   1.00
Zn568  Zn    0.13379   0.12458   0.71876   0.00000  Uiso   1.00
Zn569  Zn    0.21056   0.19775   0.70657   0.00000  Uiso   1.00
Zn570  Zn    0.12893   0.20439   0.78734   0.00000  Uiso   1.00
C571   C     0.38605   0.15950   0.75998   0.00000  Uiso   1.00
C572   C     0.51572   0.16720   0.55631   0.00000  Uiso   1.00
C573   C     0.52814   0.09721   0.56403   0.00000  Uiso   1.00
C574   C     0.61406   0.17377   0.74006   0.00000  Uiso   1.00
C575   C     0.47822   0.19531   0.91906   0.00000  Uiso   1.00
C576   C     0.65989   0.17651   0.73615   0.00000  Uiso   1.00
C577   C     0.34079   0.15682   0.76371   0.00000  Uiso   1.00
C578   C     0.51376   0.32245   0.73663   0.00000  Uiso   1.00
C579   C     0.48507   0.01167   0.76365   0.00000  Uiso   1.00
C580   C     0.48942   0.05581   0.76013   0.00000  Uiso   1.00
C581   C     0.50988   0.27786   0.74020   0.00000  Uiso   1.00
C582   C     0.47750   0.25068   0.97844   0.00000  Uiso   1.00
C583   C     0.51836   0.14787   0.62942   0.00000  Uiso   1.00
C584   C     0.48173   0.18439   0.87095   0.00000  Uiso   1.00
C585   C     0.52246   0.08411   0.52137   0.00000  Uiso   1.00
C586   C     0.52428   0.13834   0.58155   0.00000  Uiso   1.00
C587   C     0.47239   0.23645   0.93604   0.00000  Uiso   1.00
C588   C     0.56625   0.03452   0.99155   0.00000  Uiso   1.00
C589   C     0.48942   0.22452   0.50425   0.00000  Uiso   1.00
C590   C     0.49466   0.18238   0.98885   0.00000  Uiso   1.00
C591   C     0.48663   0.16729   0.94654   0.00000  Uiso   1.00
C592   C     0.50731   0.15464   0.51405   0.00000  Uiso   1.00
C593   C     0.51018   0.11217   0.99710   0.00000  Uiso   1.00
C594   C     0.49914   0.09773   0.95698   0.00000  Uiso   1.00
C595   C     0.48670   0.12451   0.93270   0.00000  Uiso   1.00
H596   H     0.53340   0.07460   0.58447   0.00000  Uiso   1.00
H597   H     0.49944   0.06525   0.94432   0.00000  Uiso   1.00
H598   H     0.58484   0.05498   0.96497   0.00000  Uiso   1.00
H599   H     0.56683   0.00172   0.97702   0.00000  Uiso   1.00
H600   H     0.58186   0.03814   0.51994   0.00000  Uiso   1.00
H601   H     0.49399   0.23837   0.53614   0.00000  Uiso   1.00
H602   H     0.65256   0.13854   0.78940   0.00000  Uiso   1.00
H603   H     0.54024   0.00372   0.71181   0.00000  Uiso   1.00
H604   H     0.45817   0.33117   0.78851   0.00000  Uiso   1.00
H605   H     0.51263   0.19822   0.57217   0.00000  Uiso   1.00
H606   H     0.46575   0.25832   0.91568   0.00000  Uiso   1.00
H607   H     0.47361   0.28275   0.99086   0.00000  Uiso   1.00
H608   H     0.47629   0.11082   0.90326   0.00000  Uiso   1.00
H609   H     0.34883   0.19465   0.71072   0.00000  Uiso   1.00
O610   O     0.50000   0.16667   0.75000   0.00000  Uiso   1.00
O611   O     0.48784   0.12637   0.65459   0.00000  Uiso   1.00
O612   O     0.46274   0.20391   0.84968   0.00000  Uiso   1.00
O613   O     0.54157   0.17759   0.64606   0.00000  Uiso   1.00
O614   O     0.50785   0.15880   0.84968   0.00000  Uiso   1.00
O615   O     0.52321   0.04247   0.50597   0.00000  Uiso   1.00
O616   O     0.51264   0.08019   0.78214   0.00000  Uiso   1.00
O617   O     0.47965   0.26085   0.77014   0.00000  Uiso   1.00
O618   O     0.40745   0.13291   0.73413   0.00000  Uiso   1.00
O619   O     0.60026   0.19272   0.71361   0.00000  Uiso   1.00
O620   O     0.40405   0.18878   0.78213   0.00000  Uiso   1.00
O621   O     0.58824   0.15226   0.77014   0.00000  Uiso   1.00
O622   O     0.47093   0.06944   0.73413   0.00000  Uiso   1.00
O623   O     0.53678   0.25620   0.71361   0.00000  Uiso   1.00
Zn624  Zn    0.52672   0.13994   0.78734   0.00000  Uiso   1.00
Zn625  Zn    0.46713   0.12458   0.71876   0.00000  Uiso   1.00
Zn626  Zn    0.54389   0.19775   0.70657   0.00000  Uiso   1.00
Zn627  Zn    0.46226   0.20439   0.78734   0.00000  Uiso   1.00
C628   C     0.71938   0.15950   0.75998   0.00000  Uiso   1.00
C629   C     0.84905   0.16720   0.55631   0.00000  Uiso   1.00
C630   C     0.86147   0.09721   0.56403   0.00000  Uiso   1.00
C631   C     0.94739   0.17377   0.74006   0.00000  Uiso   1.00
C632   C     0.81155   0.19531   0.91906   0.00000  Uiso   1.00
C633   C     0.99322   0.17651   0.73615   0.00000  Uiso   1.00
C634   C     0.67413   0.15682   0.76371   0.00000  Uiso   1.00
C635   C     0.84709   0.32245   0.73663   0.00000  Uiso   1.00
C636   C     0.81841   0.01167   0.76365   0.00000  Uiso   1.00
C637   C     0.82276   0.05581   0.76013   0.00000  Uiso   1.00
C638   C     0.84322   0.27786   0.74020   0.00000  Uiso   1.00
C639   C     0.81083   0.25068   0.97844   0.00000  Uiso   1.00
C640   C     0.85170   0.14787   0.62942   0.00000  Uiso   1.00
C641   C     0.81506   0.18439   0.87095   0.00000  Uiso   1.00
C642   C     0.85579   0.08411   0.52137   0.00000  Uiso   1.00
C643   C     0.85761   0.13834   0.58155   0.00000  Uiso   1.00
C644   C     0.80572   0.23645   0.93604   0.00000  Uiso   1.00
C645   C     0.89958   0.03452   0.99155   0.00000  Uiso   1.00
C646   C     0.82276   0.22452   0.50425   0.00000  Uiso   1.00
C647   C     0.82799   0.18238   0.98885   0.00000  Uiso   1.00
C648   C     0.81996   0.16729   0.94654   0.00000  Uiso   1.00
C649   C     0.84065   0.15464   0.51405   0.00000  Uiso   1.00
C650   C     0.84352   0.11217   0.99710   0.00000  Uiso   1.00
C651   C     0.83248   0.09773   0.95698   0.00000  Uiso   1.00
C652   C     0.82003   0.12451   0.93270   0.00000  Uiso   1.00
H653   H     0.86673   0.07460   0.58447   0.00000  Uiso   1.00
H654   H     0.83278   0.06525   0.94432   0.00000  Uiso   1.00
H655   H     0.91817   0.05498   0.96497   0.00000  Uiso   1.00
H656   H     0.90016   0.00172   0.97702   0.00000  Uiso   1.00
H657   H     0.91520   0.03814   0.51994   0.00000  Uiso   1.00
H658   H     0.82733   0.23837   0.53614   0.00000  Uiso   1.00
H659   H     0.98589   0.13854   0.78940   0.00000  Uiso   1.00
H660   H     0.87358   0.00372   0.71181   0.00000  Uiso   1.00
H661   H     0.79150   0.33117   0.78851   0.00000  Uiso   1.00
H662   H     0.84596   0.19822   0.57217   0.00000  Uiso   1.00
H663   H     0.79908   0.25832   0.91568   0.00000  Uiso   1.00
H664   H     0.80695   0.28275   0.99086   0.00000  Uiso   1.00
H665   H     0.80962   0.11082   0.90326   0.00000  Uiso   1.00
H666   H     0.68216   0.19465   0.71072   0.00000  Uiso   1.00
O667   O     0.83333   0.16667   0.75000   0.00000  Uiso   1.00
O668   O     0.82118   0.12637   0.65459   0.00000  Uiso   1.00
O669   O     0.79607   0.20391   0.84968   0.00000  Uiso   1.00
O670   O     0.87491   0.17759   0.64606   0.00000  Uiso   1.00
O671   O     0.84118   0.15880   0.84968   0.00000  Uiso   1.00
O672   O     0.85655   0.04247   0.50597   0.00000  Uiso   1.00
O673   O     0.84597   0.08019   0.78214   0.00000  Uiso   1.00
O674   O     0.81298   0.26085   0.77014   0.00000  Uiso   1.00
O675   O     0.74078   0.13291   0.73413   0.00000  Uiso   1.00
O676   O     0.93360   0.19272   0.71361   0.00000  Uiso   1.00
O677   O     0.73738   0.18878   0.78213   0.00000  Uiso   1.00
O678   O     0.92158   0.15226   0.77014   0.00000  Uiso   1.00
O679   O     0.80426   0.06944   0.73413   0.00000  Uiso   1.00
O680   O     0.87012   0.25620   0.71361   0.00000  Uiso   1.00
Zn681  Zn    0.86005   0.13994   0.78734   0.00000  Uiso   1.00
Zn682  Zn    0.80046   0.12458   0.71876   0.00000  Uiso   1.00
Zn683  Zn    0.87723   0.19775   0.70657   0.00000  Uiso   1.00
Zn684  Zn    0.79560   0.20439   0.78734   0.00000  Uiso   1.00
C685   C     0.05272   0.49284   0.75998   0.00000  Uiso   1.00
C686   C     0.18239   0.50053   0.55631   0.00000  Uiso   1.00
C687   C     0.19481   0.43054   0.56403   0.00000  Uiso   1.00
C688   C     0.28073   0.50710   0.74006   0.00000  Uiso   1.00
C689   C     0.14488   0.52864   0.91906   0.00000  Uiso   1.00
C690   C     0.32655   0.50985   0.73615   0.00000  Uiso   1.00
C691   C     0.00746   0.49015   0.76371   0.00000  Uiso   1.00
C692   C     0.18043   0.65578   0.73663   0.00000  Uiso   1.00
C693   C     0.15174   0.34500   0.76365   0.00000  Uiso   1.00
C694   C     0.15609   0.38915   0.76013   0.00000  Uiso   1.00
C695   C     0.17655   0.61120   0.74020   0.00000  Uiso   1.00
C696   C     0.14417   0.58402   0.97844   0.00000  Uiso   1.00
C697   C     0.18503   0.48120   0.62942   0.00000  Uiso   1.00
C698   C     0.14839   0.51772   0.87095   0.00000  Uiso   1.00
C699   C     0.18912   0.41744   0.52137   0.00000  Uiso   1.00
C700   C     0.19095   0.47167   0.58155   0.00000  Uiso   1.00
C701   C     0.13905   0.56978   0.93604   0.00000  Uiso   1.00
C702   C     0.23292   0.36785   0.99155   0.00000  Uiso   1.00
C703   C     0.15609   0.55785   0.50425   0.00000  Uiso   1.00
C704   C     0.16133   0.51571   0.98885   0.00000  Uiso   1.00
C705   C     0.15329   0.50063   0.94654   0.00000  Uiso   1.00
C706   C     0.17398   0.48797   0.51405   0.00000  Uiso   1.00
C707   C     0.17685   0.44551   0.99710   0.00000  Uiso   1.00
C708   C     0.16581   0.43106   0.95698   0.00000  Uiso   1.00
C709   C     0.15336   0.45784   0.93270   0.00000  Uiso   1.00
H710   H     0.20007   0.40794   0.58447   0.00000  Uiso   1.00
H711   H     0.16611   0.39858   0.94432   0.00000  Uiso   1.00
H712   H     0.25151   0.38831   0.96497   0.00000  Uiso   1.00
H713   H     0.23350   0.33505   0.97702   0.00000  Uiso   1.00
H714   H     0.24853   0.37147   0.51994   0.00000  Uiso   1.00
H715   H     0.16066   0.57170   0.53614   0.00000  Uiso   1.00
H716   H     0.31923   0.47187   0.78940   0.00000  Uiso   1.00
H717   H     0.20691   0.33706   0.71181   0.00000  Uiso   1.00
H718   H     0.12484   0.66450   0.78851   0.00000  Uiso   1.00
H719   H     0.17929   0.53155   0.57217   0.00000  Uiso   1.00
H720   H     0.13241   0.59165   0.91568   0.00000  Uiso   1.00
H721   H     0.14028   0.61608   0.99086   0.00000  Uiso   1.00
H722   H     0.14295   0.44416   0.90326   0.00000  Uiso   1.00
H723   H     0.01550   0.52798   0.71072   0.00000  Uiso   1.00
O724   O     0.16667   0.50000   0.75000   0.00000  Uiso   1.00
O725   O     0.15451   0.45970   0.65459   0.00000  Uiso   1.00
O726   O     0.12940   0.53724   0.84968   0.00000  Uiso   1.00
O727   O     0.20824   0.51092   0.64606   0.00000  Uiso   1.00
O728   O     0.17451   0.49213   0.84968   0.00000  Uiso   1.00
O729   O     0.18988   0.37581   0.50597   0.00000  Uiso   1.00
O730   O     0.17930   0.41352   0.78214   0.00000  Uiso   1.00
O731   O     0.14632   0.59418   0.77014   0.00000  Uiso   1.00
O732   O     0.07412   0.46625   0.73413   0.00000  Uiso   1.00
O733   O     0.26693   0.52605   0.71361   0.00000  Uiso   1.00
O734   O     0.07071   0.52211   0.78213   0.00000  Uiso   1.00
O735   O     0.25491   0.48559   0.77014   0.00000  Uiso   1.00
O736   O     0.13760   0.40277   0.73413   0.00000  Uiso   1.00
O737   O     0.20345   0.58953   0.71361   0.00000  Uiso   1.00
Zn738  Zn    0.19338   0.47327   0.78734   0.00000  Uiso   1.00
Zn739  Zn    0.13379   0.45791   0.71876   0.00000  Uiso   1.00
Zn740  Zn    0.21056   0.53109   0.70657   0.00000  Uiso   1.00
Zn741  Zn    0.12893   0.53773   0.78734   0.00000  Uiso   1.00
C742   C     0.38605   0.49284   0.75998   0.00000  Uiso   1.00
C743   C     0.51572   0.50053   0.55631   0.00000  Uiso   1.00
C744   C     0.52814   0.43054   0.56403   0.00000  Uiso   1.00
C745   C     0.61406   0.50710   0.74006   0.00000  Uiso   1.00
C746   C     0.47822   0.52864   0.91906   0.00000  Uiso   1.00
C747   C     0.65989   0.50985   0.73615   0.00000  Uiso   1.00
C748   C     0.34079   0.49015   0.76371   0.00000  Uiso   1.00
C749   C     0.51376   0.65578   0.73663   0.00000  Uiso   1.00
C750   C     0.48507   0.34500   0.76365   0.00000  Uiso   1.00
C751   C     0.48942   0.38915   0.76013   0.00000  Uiso   1.00
C752   C     0.50988   0.61120   0.74020   0.00000  Uiso   1.00
C753   C     0.47750   0.58402   0.97844   0.00000  Uiso   1.00
C754   C     0.51836   0.48120   0.62942   0.00000  Uiso   1.00
C755   C     0.48173   0.51772   0.87095   0.00000  Uiso   1.00
C756   C     0.52246   0.41744   0.52137   0.00000  Uiso   1.00
C757   C     0.52428   0.47167   0.58155   0.00000  Uiso   1.00
C758   C     0.47239   0.56978   0.93604   0.00000  Uiso   1.00
C759   C     0.56625   0.36785   0.99155   0.00000  Uiso   1.00
C760   C     0.48942   0.55785   0.50425   0.00000  Uiso   1.00
C761   C     0.49466   0.51571   0.98885   0.00000  Uiso   1.00
C762   C     0.48663   0.50063   0.94654   0.00000  Uiso   1.00
C763   C     0.50731   0.48797   0.51405   0.00000  Uiso   1.00
C764   C     0.51018   0.44551   0.99710   0.00000  Uiso   1.00
C765   C     0.49914   0.43106   0.95698   0.00000  Uiso   1.00
C766   C     0.48670   0.45784   0.93270   0.00000  Uiso   1.00
H767   H     0.53340   0.40794   0.58447   0.00000  Uiso   1.00
H768   H     0.49944   0.39858   0.94432   0.00000  Uiso   1.00
H769   H     0.58484   0.38831   0.96497   0.00000  Uiso   1.00
H770   H     0.56683   0.33505   0.97702   0.00000  Uiso   1.00
H771   H     0.58186   0.37147   0.51994   0.00000  Uiso   1.00
H772   H     0.49399   0.57170   0.53614   0.00000  Uiso   1.00
H773   H     0.65256   0.47187   0.78940   0.00000  Uiso   1.00
H774   H     0.54024   0.33706   0.71181   0.00000  Uiso   1.00
H775   H     0.45817   0.66450   0.78851   0.00000  Uiso   1.00
H776   H     0.51263   0.53155   0.57217   0.00000  Uiso   1.00
H777   H     0.46575   0.59165   0.91568   0.00000  Uiso   1.00
H778   H     0.47361   0.61608   0.99086   0.00000  Uiso   1.00
H779   H     0.47629   0.44416   0.90326   0.00000  Uiso   1.00
H780   H     0.34883   0.52798   0.71072   0.00000  Uiso   1.00
O781   O     0.50000   0.50000   0.75000   0.00000  Uiso   1.00
O782   O     0.48784   0.45970   0.65459   0.00000  Uiso   1.00
O783   O     0.46274   0.53724   0.84968   0.00000  Uiso   1.00
O784   O     0.54157   0.51092   0.64606   0.00000  Uiso   1.00
O785   O     0.50785   0.49213   0.84968   0.00000  Uiso   1.00
O786   O     0.52321   0.37581   0.50597   0.00000  Uiso   1.00
O787   O     0.51264   0.41352   0.78214   0.00000  Uiso   1.00
O788   O     0.47965   0.59418   0.77014   0.00000  Uiso   1.00
O789   O     0.40745   0.46625   0.73413   0.00000  Uiso   1.00
O790   O     0.60026   0.52605   0.71361   0.00000  Uiso   1.00
O791   O     0.40405   0.52211   0.78213   0.00000  Uiso   1.00
O792   O     0.58824   0.48559   0.77014   0.00000  Uiso   1.00
O793   O     0.47093   0.40277   0.73413   0.00000  Uiso   1.00
O794   O     0.53678   0.58953   0.71361   0.00000  Uiso   1.00
Zn795  Zn    0.52672   0.47327   0.78734   0.00000  Uiso   1.00
Zn796  Zn    0.46713   0.45791   0.71876   0.00000  Uiso   1.00
Zn797  Zn    0.54389   0.53109   0.70657   0.00000  Uiso   1.00
Zn798  Zn    0.46226   0.53773   0.78734   0.00000  Uiso   1.00
C799   C     0.71938   0.49284   0.75998   0.00000  Uiso   1.00
C800   C     0.84905   0.50053   0.55631   0.00000  Uiso   1.00
C801   C     0.86147   0.43054   0.56403   0.00000  Uiso   1.00
C802   C     0.94739   0.50710   0.74006   0.00000  Uiso   1.00
C803   C     0.81155   0.52864   0.91906   0.00000  Uiso   1.00
C804   C     0.99322   0.50985   0.73615   0.00000  Uiso   1.00
C805   C     0.67413   0.49015   0.76371   0.00000  Uiso   1.00
C806   C     0.84709   0.65578   0.73663   0.00000  Uiso   1.00
C807   C     0.81841   0.34500   0.76365   0.00000  Uiso   1.00
C808   C     0.82276   0.38915   0.76013   0.00000  Uiso   1.00
C809   C     0.84322   0.61120   0.74020   0.00000  Uiso   1.00
C810   C     0.81083   0.58402   0.97844   0.00000  Uiso   1.00
C811   C     0.85170   0.48120   0.62942   0.00000  Uiso   1.00
C812   C     0.81506   0.51772   0.87095   0.00000  Uiso   1.00
C813   C     0.85579   0.41744   0.52137   0.00000  Uiso   1.00
C814   C     0.85761   0.47167   0.58155   0.00000  Uiso   1.00
C815   C     0.80572   0.56978   0.93604   0.00000  Uiso   1.00
C816   C     0.89958   0.36785   0.99155   0.00000  Uiso   1.00
C817   C     0.82276   0.55785   0.50425   0.00000  Uiso   1.00
C818   C     0.82799   0.51571   0.98885   0.00000  Uiso   1.00
C819   C     0.81996   0.50063   0.94654   0.00000  Uiso   1.00
C820   C     0.84065   0.48797   0.51405   0.00000  Uiso   1.00
C821   C     0.84352   0.44551   0.99710   0.00000  Uiso   1.00
C822   C     0.83248   0.43106   0.95698   0.00000  Uiso   1.00
C823   C     0.82003   0.45784   0.93270   0.00000  Uiso   1.00
H824   H     0.86673   0.40794   0.58447   0.00000  Uiso   1.00
H825   H     0.83278   0.39858   0.94432   0.00000  Uiso   1.00
H826   H     0.91817   0.38831   0.96497   0.00000  Uiso   1.00
H827   H     0.90016   0.33505   0.97702   0.00000  Uiso   1.00
H828   H     0.91520   0.37147   0.51994   0.00000  Uiso   1.00
H829   H     0.82733   0.57170   0.53614   0.00000  Uiso   1.00
H830   H     0.98589   0.47187   0.78940   0.00000  Uiso   1.00
H831   H     0.87358   0.33706   0.71181   0.00000  Uiso   1.00
H832   H     0.79150   0.66450   0.78851   0.00000  Uiso   1.00
H833   H     0.84596   0.53155   0.57217   0.00000  Uiso   1.00
H834   H     0.79908   0.59165   0.91568   0.00000  Uiso   1.00
H835   H     0.80695   0.61608   0.99086   0.00000  Uiso   1.00
H836   H     0.80962   0.44416   0.90326   0.00000  Uiso   1.00
H837   H     0.68216   0.52798   0.71072   0.00000  Uiso   1.00
O838   O     0.83333   0.50000   0.75000   0.00000  Uiso   1.00
O839   O     0.82118   0.45970   0.65459   0.00000  Uiso   1.00
O840   O     0.79607   0.53724   0.84968   0.00000  Uiso   1.00
O841   O     0.87491   0.51092   0.64606   0.00000  Uiso   1.00
O842   O     0.84118   0.49213   0.84968   0.00000  Uiso   1.00
O843   O     0.85655   0.37581   0.50597   0.00000  Uiso   1.00
O844   O     0.84597   0.41352   0.78214   0.00000  Uiso   1.00
O845   O     0.81298   0.59418   0.77014   0.00000  Uiso   1.00
O846   O     0.74078   0.46625   0.73413   0.00000  Uiso   1.00
O847   O     0.93360   0.52605   0.71361   0.00000  Uiso   1.00
O848   O     0.73738   0.52211   0.78213   0.00000  Uiso   1.00
O849   O     0.92158   0.48559   0.77014   0.00000  Uiso   1.00
O850   O     0.80426   0.40277   0.73413   0.00000  Uiso   1.00
O851   O     0.87012   0.58953   0.71361   0.00000  Uiso   1.00
Zn852  Zn    0.86005   0.47327   0.78734   0.00000  Uiso   1.00
Zn853  Zn    0.80046   0.45791   0.71876   0.00000  Uiso   1.00
Zn854  Zn    0.87723   0.53109   0.70657   0.00000  Uiso   1.00
Zn855  Zn    0.79560   0.53773   0.78734   0.00000  Uiso   1.00
C856   C     0.05272   0.82617   0.75998   0.00000  Uiso   1.00
C857   C     0.18239   0.83386   0.55631   0.00000  Uiso   1.00
C858   C     0.19481   0.76387   0.56403   0.00000  Uiso   1.00
C859   C     0.28073   0.84044   0.74006   0.00000  Uiso   1.00
C860   C     0.14488   0.86198   0.91906   0.00000  Uiso   1.00
C861   C     0.32655   0.84318   0.73615   0.00000  Uiso   1.00
C862   C     0.00746   0.82348   0.76371   0.00000  Uiso   1.00
C863   C     0.18043   0.98912   0.73663   0.00000  Uiso   1.00
C864   C     0.15174   0.67834   0.76365   0.00000  Uiso   1.00
C865   C     0.15609   0.72248   0.76013   0.00000  Uiso   1.00
C866   C     0.17655   0.94453   0.74020   0.00000  Uiso   1.00
C867   C     0.14417   0.91735   0.97844   0.00000  Uiso   1.00
C868   C     0.18503   0.81454   0.62942   0.00000  Uiso   1.00
C869   C     0.14839   0.85106   0.87095   0.00000  Uiso   1.00
C870   C     0.18912   0.75078   0.52137   0.00000  Uiso   1.00
C871   C     0.19095   0.80501   0.58155   0.00000  Uiso   1.00
C872   C     0.13905   0.90312   0.93604   0.00000  Uiso   1.00
C873   C     0.23292   0.70118   0.99155   0.00000  Uiso   1.00
C874   C     0.15609   0.89118   0.50425   0.00000  Uiso   1.00
C875   C     0.16133   0.84904   0.98885   0.00000  Uiso   1.00
C876   C     0.15329   0.83396   0.94654   0.00000  Uiso   1.00
C877   C     0.17398   0.82130   0.51405   0.00000  Uiso   1.00
C878   C     0.17685   0.77884   0.99710   0.00000  Uiso   1.00
C879   C     0.16581   0.76439   0.95698   0.00000  Uiso   1.00
C880   C     0.15336   0.79117   0.93270   0.00000  Uiso   1.00
H881   H     0.20007   0.74127   0.58447   0.00000  Uiso   1.00
H882   H     0.16611   0.73192   0.94432   0.00000  Uiso   1.00
H883   H     0.25151   0.72165   0.96497   0.00000  Uiso   1.00
H884   H     0.23350   0.66838   0.97702   0.00000  Uiso   1.00
H885   H     0.24853   0.70480   0.51994   0.00000  Uiso   1.00
H886   H     0.16066   0.90503   0.53614   0.00000  Uiso   1.00
H887   H     0.31923   0.80521   0.78940   0.00000  Uiso   1.00
H888   H     0.20691   0.67039   0.71181   0.00000  Uiso   1.00
H889   H     0.12484   0.99784   0.78851   0.00000  Uiso   1.00
H890   H     0.17929   0.86489   0.57217   0.00000  Uiso   1.00
H891   H     0.13241   0.92498   0.91568   0.00000  Uiso   1.00
H892   H     0.14028   0.94942   0.99086   0.00000  Uiso   1.00
H893   H     0.14295   0.77749   0.90326   0.00000  Uiso   1.00
H894   H     0.01550   0.86132   0.71072   0.00000  Uiso   1.00
O895   O     0.16667   0.83333   0.75000   0.00000  Uiso   1.00
O896   O     0.15451   0.79304   0.65459   0.00000  Uiso   1.00
O897   O     0.12940   0.87058   0.84968   0.00000  Uiso   1.00
O898   O     0.20824   0.84425   0.64606   0.00000  Uiso   1.00
O899   O     0.17451   0.82546   0.84968   0.00000  Uiso   1.00
O900   O     0.18988   0.70914   0.50597   0.00000  Uiso   1.00
O901   O     0.17930   0.74686   0.78214   0.00000  Uiso   1.00
O902   O     0.14632   0.92751   0.77014   0.00000  Uiso   1.00
O903   O     0.07412   0.79958   0.73413   0.00000  Uiso   1.00
O904   O     0.26693   0.85939   0.71361   0.00000  Uiso   1.00
O905   O     0.07071   0.85544   0.78213   0.00000  Uiso   1.00
O906   O     0.25491   0.81892   0.77014   0.00000  Uiso   1.00
O907   O     0.13760   0.73610   0.73413   0.00000  Uiso   1.00
O908   O     0.20345   0.92286   0.71361   0.00000  Uiso   1.00
Zn909  Zn    0.19338   0.80661   0.78734   0.00000  Uiso   1.00
Zn910  Zn    0.13379   0.79124   0.71876   0.00000  Uiso   1.00
Zn911  Zn    0.21056   0.86442   0.70657   0.00000  Uiso   1.00
Zn912  Zn    0.12893   0.87106   0.78734   0.00000  Uiso   1.00
C913   C     0.38605   0.82617   0.75998   0.00000  Uiso   1.00
C914   C     0.51572   0.83386   0.55631   0.00000  Uiso   1.00
C915   C     0.52814   0.76387   0.56403   0.00000  Uiso   1.00
C916   C     0.61406   0.84044   0.74006   0.00000  Uiso   1.00
C917   C     0.47822   0.86198   0.91906   0.00000  Uiso   1.00
C918   C     0.65989   0.84318   0.73615   0.00000  Uiso   1.00
C919   C     0.34079   0.82348   0.76371   0.00000  Uiso   1.00
C920   C     0.51376   0.98912   0.73663   0.00000  Uiso   1.00
C921   C     0.48507   0.67834   0.76365   0.00000  Uiso   1.00
C922   C     0.48942   0.72248   0.76013   0.00000  Uiso   1.00
C923   C     0.50988   0.94453   0.74020   0.00000  Uiso   1.00
C924   C     0.47750   0.91735   0.97844   0.00000  Uiso   1.00
C925   C     0.51836   0.81454   0.62942   0.00000  Uiso   1.00
C926   C     0.48173   0.85106   0.87095   0.00000  Uiso   1.00
C927   C     0.52246   0.75078   0.52137   0.00000  Uiso   1.00
C928   C     0.52428   0.80501   0.58155   0.00000  Uiso   1.00
C929   C     0.47239   0.90312   0.93604   0.00000  Uiso   1.00
C930   C     0.56625   0.70118   0.99155   0.00000  Uiso   1.00
C931   C     0.48942   0.89118   0.50425   0.00000  Uiso   1.00
C932   C     0.49466   0.84904   0.98885   0.00000  Uiso   1.00
C933   C     0.48663   0.83396   0.94654   0.00000  Uiso   1.00
C934   C     0.50731   0.82130   0.51405   0.00000  Uiso   1.00
C935   C     0.51018   0.77884   0.99710   0.00000  Uiso   1.00
C936   C     0.49914   0.76439   0.95698   0.00000  Uiso   1.00
C937   C     0.48670   0.79117   0.93270   0.00000  Uiso   1.00
H938   H     0.53340   0.74127   0.58447   0.00000  Uiso   1.00
H939   H     0.49944   0.73192   0.94432   0.00000  Uiso   1.00
H940   H     0.58484   0.72165   0.96497   0.00000  Uiso   1.00
H941   H     0.56683   0.66838   0.97702   0.00000  Uiso   1.00
H942   H     0.58186   0.70480   0.51994   0.00000  Uiso   1.00
H943   H     0.49399   0.90503   0.53614   0.00000  Uiso   1.00
H944   H     0.65256   0.80521   0.78940   0.00000  Uiso   1.00
H945   H     0.54024   0.67039   0.71181   0.00000  Uiso   1.00
H946   H     0.45817   0.99784   0.78851   0.00000  Uiso   1.00
H947   H     0.51263   0.86489   0.57217   0.00000  Uiso   1.00
H948   H     0.46575   0.92498   0.91568   0.00000  Uiso   1.00
H949   H     0.47361   0.94942   0.99086   0.00000  Uiso   1.00
H950   H     0.47629   0.77749   0.90326   0.00000  Uiso   1.00
H951   H     0.34883   0.86132   0.71072   0.00000  Uiso   1.00
O952   O     0.50000   0.83333   0.75000   0.00000  Uiso   1.00
O953   O     0.48784   0.79304   0.65459   0.00000  Uiso   1.00
O954   O     0.46274   0.87058   0.84968   0.00000  Uiso   1.00
O955   O     0.54157   0.84425   0.64606   0.00000  Uiso   1.00
O956   O     0.50785   0.82546   0.84968   0.00000  Uiso   1.00
O957   O     0.52321   0.70914   0.50597   0.00000  Uiso   1.00
O958   O     0.51264   0.74686   0.78214   0.00000  Uiso   1.00
O959   O     0.47965   0.92751   0.77014   0.00000  Uiso   1.00
O960   O     0.40745   0.79958   0.73413   0.00000  Uiso   1.00
O961   O     0.60026   0.85939   0.71361   0.00000  Uiso   1.00
O962   O     0.40405   0.85544   0.78213   0.00000  Uiso   1.00
O963   O     0.58824   0.81892   0.77014   0.00000  Uiso   1.00
O964   O     0.47093   0.73610   0.73413   0.00000  Uiso   1.00
O965   O     0.53678   0.92286   0.71361   0.00000  Uiso   1.00
Zn966  Zn    0.52672   0.80661   0.78734   0.00000  Uiso   1.00
Zn967  Zn    0.46713   0.79124   0.71876   0.00000  Uiso   1.00
Zn968  Zn    0.54389   0.86442   0.70657   0.00000  Uiso   1.00
Zn969  Zn    0.46226   0.87106   0.78734   0.00000  Uiso   1.00
C970   C     0.71938   0.82617   0.75998   0.00000  Uiso   1.00
C971   C     0.84905   0.83386   0.55631   0.00000  Uiso   1.00
C972   C     0.86147   0.76387   0.56403   0.00000  Uiso   1.00
C973   C     0.94739   0.84044   0.74006   0.00000  Uiso   1.00
C974   C     0.81155   0.86198   0.91906   0.00000  Uiso   1.00
C975   C     0.99322   0.84318   0.73615   0.00000  Uiso   1.00
C976   C     0.67413   0.82348   0.76371   0.00000  Uiso   1.00
C977   C     0.84709   0.98912   0.73663   0.00000  Uiso   1.00
C978   C     0.81841   0.67834   0.76365   0.00000  Uiso   1.00
C979   C     0.82276   0.72248   0.76013   0.00000  Uiso   1.00
C980   C     0.84322   0.94453   0.74020   0.00000  Uiso   1.00
C981   C     0.81083   0.91735   0.97844   0.00000  Uiso   1.00
C982   C     0.85170   0.81454   0.62942   0.00000  Uiso   1.00
C983   C     0.81506   0.85106   0.87095   0.00000  Uiso   1.00
C984   C     0.85579   0.75078   0.52137   0.00000  Uiso   1.00
C985   C     0.85761   0.80501   0.58155   0.00000  Uiso   1.00
C986   C     0.80572   0.90312   0.93604   0.00000  Uiso   1.00
C987   C     0.89958   0.70118   0.99155   0.00000  Uiso   1.00
C988   C     0.82276   0.89118   0.50425   0.00000  Uiso   1.00
C989   C     0.82799   0.84904   0.98885   0.00000  Uiso   1.00
C990   C     0.81996   0.83396   0.94654   0.00000  Uiso   1.00
C991   C     0.84065   0.82130   0.51405   0.00000  Uiso   1.00
C992   C     0.84352   0.77884   0.99710   0.00000  Uiso   1.00
C993   C     0.83248   0.76439   0.95698   0.00000  Uiso   1.00
C994   C     0.82003   0.79117   0.93270   0.00000  Uiso   1.00
H995   H     0.86673   0.74127   0.58447   0.00000  Uiso   1.00
H996   H     0.83278   0.73192   0.94432   0.00000  Uiso   1.00
H997   H     0.91817   0.72165   0.96497   0.00000  Uiso   1.00
H998   H     0.90016   0.66838   0.97702   0.00000  Uiso   1.00
H999   H     0.91520   0.70480   0.51994   0.00000  Uiso   1.00
H1000  H     0.82733   0.90503   0.53614   0.00000  Uiso   1.00
H1001  H     0.98589   0.80521   0.78940   0.00000  Uiso   1.00
H1002  H     0.87358   0.67039   0.71181   0.00000  Uiso   1.00
H1003  H     0.79150   0.99784   0.78851   0.00000  Uiso   1.00
H1004  H     0.84596   0.86489   0.57217   0.00000  Uiso   1.00
H1005  H     0.79908   0.92498   0.91568   0.00000  Uiso   1.00
H1006  H     0.80695   0.94942   0.99086   0.00000  Uiso   1.00
H1007  H     0.80962   0.77749   0.90326   0.00000  Uiso   1.00
H1008  H     0.68216   0.86132   0.71072   0.00000  Uiso   1.00
O1009  O     0.83333   0.83333   0.75000   0.00000  Uiso   1.00
O1010  O     0.82118   0.79304   0.65459   0.00000  Uiso   1.00
O1011  O     0.79607   0.87058   0.84968   0.00000  Uiso   1.00
O1012  O     0.87491   0.84425   0.64606   0.00000  Uiso   1.00
O1013  O     0.84118   0.82546   0.84968   0.00000  Uiso   1.00
O1014  O     0.85655   0.70914   0.50597   0.00000  Uiso   1.00
O1015  O     0.84597   0.74686   0.78214   0.00000  Uiso   1.00
O1016  O     0.81298   0.92751   0.77014   0.00000  Uiso   1.00
O1017  O     0.74078   0.79958   0.73413   0.00000  Uiso   1.00
O1018  O     0.93360   0.85939   0.71361   0.00000  Uiso   1.00
O1019  O     0.73738   0.85544   0.78213   0.00000  Uiso   1.00
O1020  O     0.92158   0.81892   0.77014   0.00000  Uiso   1.00
O1021  O     0.80426   0.73610   0.73413   0.00000  Uiso   1.00
O1022  O     0.87012   0.92286   0.71361   0.00000  Uiso   1.00
Zn1023 Zn    0.86005   0.80661   0.78734   0.00000  Uiso   1.00
Zn1024 Zn    0.80046   0.79124   0.71876   0.00000  Uiso   1.00
Zn1025 Zn    0.87723   0.86442   0.70657   0.00000  Uiso   1.00
Zn1026 Zn    0.79560   0.87106   0.78734   0.00000  Uiso   1.00
loop_
_geom_bond_atom_site_label_1
_geom_bond_atom_site_label_2
_geom_bond_distance
_geom_bond_site_symmetry_2
_ccdc_geom_bond_type
C1     O48     1.268   .     A
C1     O50     1.268   .     A
C1     C7      1.436   .     S
C2     H35     1.077   .     S
C2     C16     1.391   .     A
C2     C22     1.411   .     A
C3     C15     1.394   .     A
C3     H26     1.084   .     S
C3     C16     1.395   .     A
C4     O49     1.284   .     A
C4     C6      1.454   .     S
C4     O51     1.281   .     A
C5     C14     1.474   .     S
C5     C17     1.401   .     A
C5     C21     1.418   .     A
C6     C64     1.334   .     S
C6     H96     1.088   .     S
C7     C120    1.334   1_455 S
C7     H146    1.086   1_455 S
C8     C11     1.451   .     S
C8     C180    1.331   .     S
C8     H204    1.088   .     S
C9     C10     1.435   .     S
C9     C350    1.331   1_545 S
C9     H376    1.086   1_545 S
C10    O46     1.274   .     A
C10    O52     1.274   .     A
C11    O47     1.275   .     A
C11    O53     1.274   .     A
C12    C17     1.387   .     A
C12    H37     1.083   .     S
C12    C532    1.391   .     S
C13    O41     1.267   .     A
C13    C16     1.452   .     S
C13    O43     1.279   .     A
C14    O42     1.283   .     A
C14    O44     1.283   .     A
C15    O45     1.384   .     S
C15    C536    1.409   1_554 S
C17    H36     1.083   .     S
C18    H29     1.109   .     S
C18    H28     1.114   .     S
C18    H543    1.113   .     S
C18    O558    1.409   .     S
C19    H31     1.076   .     S
C19    C525    1.391   1_554 S
C19    C533    1.418   1_554 S
C20    C21     1.423   .     A
C20    C532    1.418   .     S
C20    C535    1.428   .     S
C21    C25     1.408   .     A
C22    C533    1.428   1_554 S
C22    C536    1.427   1_554 S
C23    C24     1.395   .     A
C23    C535    1.427   .     S
C23    C528    1.409   .     S
C24    H27     1.084   .     S
C24    C25     1.381   .     A
C25    H38     1.081   .     S
H30    C531    1.113   1_554 S
H32    C64     1.086   .     S
H33    C350    1.088   1_545 S
H34    C180    1.086   .     S
H39    C120    1.088   1_455 S
O40    Zn54    1.959   .     S
O40    Zn57    1.935   .     S
O40    Zn56    1.943   .     S
O40    Zn55    1.934   .     S
O41    Zn55    1.938   .     S
O42    Zn57    1.943   .     S
O43    Zn56    1.934   .     S
O44    Zn54    1.931   .     S
O45    C531    1.409   1_554 S
O46    Zn54    1.926   .     S
O47    Zn57    1.933   .     S
O48    Zn55    1.929   .     S
O49    Zn56    1.934   .     S
O50    Zn57    1.928   .     S
O51    Zn54    1.926   .     S
O52    Zn55    1.938   .     S
O53    Zn56    1.929   .     S
C58    O105    1.268   .     A
C58    O107    1.268   .     A
C58    C64     1.436   .     S
C59    H92     1.077   .     S
C59    C73     1.391   .     A
C59    C79     1.411   .     A
C60    C72     1.394   .     A
C60    H83     1.084   .     S
C60    C73     1.395   .     A
C61    O106    1.284   .     A
C61    C63     1.454   .     S
C61    O108    1.281   .     A
C62    C71     1.474   .     S
C62    C74     1.401   .     A
C62    C78     1.418   .     A
C63    C121    1.334   .     S
C63    H153    1.088   .     S
C65    C68     1.451   .     S
C65    C237    1.331   .     S
C65    H261    1.088   .     S
C66    C67     1.435   .     S
C66    C407    1.331   1_545 S
C66    H433    1.086   1_545 S
C67    O103    1.274   .     A
C67    O109    1.274   .     A
C68    O104    1.275   .     A
C68    O110    1.274   .     A
C69    C74     1.387   .     A
C69    H94     1.083   .     S
C69    C589    1.391   .     S
C70    O98     1.267   .     A
C70    C73     1.452   .     S
C70    O100    1.279   .     A
C71    O99     1.283   .     A
C71    O101    1.283   .     A
C72    O102    1.384   .     S
C72    C593    1.409   1_554 S
C74    H93     1.083   .     S
C75    H86     1.109   .     S
C75    H85     1.114   .     S
C75    H600    1.113   .     S
C75    O615    1.409   .     S
C76    H88     1.076   .     S
C76    C582    1.391   1_554 S
C76    C590    1.418   1_554 S
C77    C78     1.423   .     A
C77    C589    1.418   .     S
C77    C592    1.428   .     S
C78    C82     1.408   .     A
C79    C590    1.428   1_554 S
C79    C593    1.427   1_554 S
C80    C81     1.395   .     A
C80    C592    1.427   .     S
C80    C585    1.409   .     S
C81    H84     1.084   .     S
C81    C82     1.381   .     A
C82    H95     1.081   .     S
H87    C588    1.113   1_554 S
H89    C121    1.086   .     S
H90    C407    1.088   1_545 S
H91    C237    1.086   .     S
O97    Zn111   1.959   .     S
O97    Zn114   1.935   .     S
O97    Zn113   1.943   .     S
O97    Zn112   1.934   .     S
O98    Zn112   1.938   .     S
O99    Zn114   1.943   .     S
O100   Zn113   1.934   .     S
O101   Zn111   1.931   .     S
O102   C588    1.409   1_554 S
O103   Zn111   1.926   .     S
O104   Zn114   1.933   .     S
O105   Zn112   1.929   .     S
O106   Zn113   1.934   .     S
O107   Zn114   1.928   .     S
O108   Zn111   1.926   .     S
O109   Zn112   1.938   .     S
O110   Zn113   1.929   .     S
C115   O162    1.268   .     A
C115   O164    1.268   .     A
C115   C121    1.436   .     S
C116   H149    1.077   .     S
C116   C130    1.391   .     A
C116   C136    1.411   .     A
C117   C129    1.394   .     A
C117   H140    1.084   .     S
C117   C130    1.395   .     A
C118   O163    1.284   .     A
C118   C120    1.454   .     S
C118   O165    1.281   .     A
C119   C128    1.474   .     S
C119   C131    1.401   .     A
C119   C135    1.418   .     A
C120   C7      1.334   1_655 S
C120   H39     1.088   1_655 S
C122   C125    1.451   .     S
C122   C294    1.331   .     S
C122   H318    1.088   .     S
C123   C124    1.435   .     S
C123   C464    1.331   1_545 S
C123   H490    1.086   1_545 S
C124   O160    1.274   .     A
C124   O166    1.274   .     A
C125   O161    1.275   .     A
C125   O167    1.274   .     A
C126   C131    1.387   .     A
C126   H151    1.083   .     S
C126   C646    1.391   .     S
C127   O155    1.267   .     A
C127   C130    1.452   .     S
C127   O157    1.279   .     A
C128   O156    1.283   .     A
C128   O158    1.283   .     A
C129   O159    1.384   .     S
C129   C650    1.409   1_554 S
C131   H150    1.083   .     S
C132   H143    1.109   .     S
C132   H142    1.114   .     S
C132   H657    1.113   .     S
C132   O672    1.409   .     S
C133   H145    1.076   .     S
C133   C639    1.391   1_554 S
C133   C647    1.418   1_554 S
C134   C135    1.423   .     A
C134   C646    1.418   .     S
C134   C649    1.428   .     S
C135   C139    1.408   .     A
C136   C647    1.428   1_554 S
C136   C650    1.427   1_554 S
C137   C138    1.395   .     A
C137   C649    1.427   .     S
C137   C642    1.409   .     S
C138   H141    1.084   .     S
C138   C139    1.381   .     A
C139   H152    1.081   .     S
H144   C645    1.113   1_554 S
H146   C7      1.086   1_655 S
H147   C464    1.088   1_545 S
H148   C294    1.086   .     S
O154   Zn168   1.959   .     S
O154   Zn171   1.935   .     S
O154   Zn170   1.943   .     S
O154   Zn169   1.934   .     S
O155   Zn169   1.938   .     S
O156   Zn171   1.943   .     S
O157   Zn170   1.934   .     S
O158   Zn168   1.931   .     S
O159   C645    1.409   1_554 S
O160   Zn168   1.926   .     S
O161   Zn171   1.933   .     S
O162   Zn169   1.929   .     S
O163   Zn170   1.934   .     S
O164   Zn171   1.928   .     S
O165   Zn168   1.926   .     S
O166   Zn169   1.938   .     S
O167   Zn170   1.929   .     S
C172   O219    1.268   .     A
C172   O221    1.268   .     A
C172   C178    1.436   .     S
C173   H206    1.077   .     S
C173   C187    1.391   .     A
C173   C193    1.411   .     A
C174   C186    1.394   .     A
C174   H197    1.084   .     S
C174   C187    1.395   .     A
C175   O220    1.284   .     A
C175   C177    1.454   .     S
C175   O222    1.281   .     A
C176   C185    1.474   .     S
C176   C188    1.401   .     A
C176   C192    1.418   .     A
C177   C235    1.334   .     S
C177   H267    1.088   .     S
C178   C291    1.334   1_455 S
C178   H317    1.086   1_455 S
C179   C182    1.451   .     S
C179   C351    1.331   .     S
C179   H375    1.088   .     S
C180   C181    1.435   .     S
C181   O217    1.274   .     A
C181   O223    1.274   .     A
C182   O218    1.275   .     A
C182   O224    1.274   .     A
C183   C188    1.387   .     A
C183   H208    1.083   .     S
C183   C703    1.391   .     S
C184   O212    1.267   .     A
C184   C187    1.452   .     S
C184   O214    1.279   .     A
C185   O213    1.283   .     A
C185   O215    1.283   .     A
C186   O216    1.384   .     S
C186   C707    1.409   1_554 S
C188   H207    1.083   .     S
C189   H200    1.109   .     S
C189   H199    1.114   .     S
C189   H714    1.113   .     S
C189   O729    1.409   .     S
C190   H202    1.076   .     S
C190   C696    1.391   1_554 S
C190   C704    1.418   1_554 S
C191   C192    1.423   .     A
C191   C703    1.418   .     S
C191   C706    1.428   .     S
C192   C196    1.408   .     A
C193   C704    1.428   1_554 S
C193   C707    1.427   1_554 S
C194   C195    1.395   .     A
C194   C706    1.427   .     S
C194   C699    1.409   .     S
C195   H198    1.084   .     S
C195   C196    1.381   .     A
C196   H209    1.081   .     S
H201   C702    1.113   1_554 S
H203   C235    1.086   .     S
H205   C351    1.086   .     S
H210   C291    1.088   1_455 S
O211   Zn225   1.959   .     S
O211   Zn228   1.935   .     S
O211   Zn227   1.943   .     S
O211   Zn226   1.934   .     S
O212   Zn226   1.938   .     S
O213   Zn228   1.943   .     S
O214   Zn227   1.934   .     S
O215   Zn225   1.931   .     S
O216   C702    1.409   1_554 S
O217   Zn225   1.926   .     S
O218   Zn228   1.933   .     S
O219   Zn226   1.929   .     S
O220   Zn227   1.934   .     S
O221   Zn228   1.928   .     S
O222   Zn225   1.926   .     S
O223   Zn226   1.938   .     S
O224   Zn227   1.929   .     S
C229   O276    1.268   .     A
C229   O278    1.268   .     A
C229   C235    1.436   .     S
C230   H263    1.077   .     S
C230   C244    1.391   .     A
C230   C250    1.411   .     A
C231   C243    1.394   .     A
C231   H254    1.084   .     S
C231   C244    1.395   .     A
C232   O277    1.284   .     A
C232   C234    1.454   .     S
C232   O279    1.281   .     A
C233   C242    1.474   .     S
C233   C245    1.401   .     A
C233   C249    1.418   .     A
C234   C292    1.334   .     S
C234   H324    1.088   .     S
C236   C239    1.451   .     S
C236   C408    1.331   .     S
C236   H432    1.088   .     S
C237   C238    1.435   .     S
C238   O274    1.274   .     A
C238   O280    1.274   .     A
C239   O275    1.275   .     A
C239   O281    1.274   .     A
C240   C245    1.387   .     A
C240   H265    1.083   .     S
C240   C760    1.391   .     S
C241   O269    1.267   .     A
C241   C244    1.452   .     S
C241   O271    1.279   .     A
C242   O270    1.283   .     A
C242   O272    1.283   .     A
C243   O273    1.384   .     S
C243   C764    1.409   1_554 S
C245   H264    1.083   .     S
C246   H257    1.109   .     S
C246   H256    1.114   .     S
C246   H771    1.113   .     S
C246   O786    1.409   .     S
C247   H259    1.076   .     S
C247   C753    1.391   1_554 S
C247   C761    1.418   1_554 S
C248   C249    1.423   .     A
C248   C760    1.418   .     S
C248   C763    1.428   .     S
C249   C253    1.408   .     A
C250   C761    1.428   1_554 S
C250   C764    1.427   1_554 S
C251   C252    1.395   .     A
C251   C763    1.427   .     S
C251   C756    1.409   .     S
C252   H255    1.084   .     S
C252   C253    1.381   .     A
C253   H266    1.081   .     S
H258   C759    1.113   1_554 S
H260   C292    1.086   .     S
H262   C408    1.086   .     S
O268   Zn282   1.959   .     S
O268   Zn285   1.935   .     S
O268   Zn284   1.943   .     S
O268   Zn283   1.934   .     S
O269   Zn283   1.938   .     S
O270   Zn285   1.943   .     S
O271   Zn284   1.934   .     S
O272   Zn282   1.931   .     S
O273   C759    1.409   1_554 S
O274   Zn282   1.926   .     S
O275   Zn285   1.933   .     S
O276   Zn283   1.929   .     S
O277   Zn284   1.934   .     S
O278   Zn285   1.928   .     S
O279   Zn282   1.926   .     S
O280   Zn283   1.938   .     S
O281   Zn284   1.929   .     S
C286   O333    1.268   .     A
C286   O335    1.268   .     A
C286   C292    1.436   .     S
C287   H320    1.077   .     S
C287   C301    1.391   .     A
C287   C307    1.411   .     A
C288   C300    1.394   .     A
C288   H311    1.084   .     S
C288   C301    1.395   .     A
C289   O334    1.284   .     A
C289   C291    1.454   .     S
C289   O336    1.281   .     A
C290   C299    1.474   .     S
C290   C302    1.401   .     A
C290   C306    1.418   .     A
C291   C178    1.334   1_655 S
C291   H210    1.088   1_655 S
C293   C296    1.451   .     S
C293   C465    1.331   .     S
C293   H489    1.088   .     S
C294   C295    1.435   .     S
C295   O331    1.274   .     A
C295   O337    1.274   .     A
C296   O332    1.275   .     A
C296   O338    1.274   .     A
C297   C302    1.387   .     A
C297   H322    1.083   .     S
C297   C817    1.391   .     S
C298   O326    1.267   .     A
C298   C301    1.452   .     S
C298   O328    1.279   .     A
C299   O327    1.283   .     A
C299   O329    1.283   .     A
C300   O330    1.384   .     S
C300   C821    1.409   1_554 S
C302   H321    1.083   .     S
C303   H314    1.109   .     S
C303   H313    1.114   .     S
C303   H828    1.113   .     S
C303   O843    1.409   .     S
C304   H316    1.076   .     S
C304   C810    1.391   1_554 S
C304   C818    1.418   1_554 S
C305   C306    1.423   .     A
C305   C817    1.418   .     S
C305   C820    1.428   .     S
C306   C310    1.408   .     A
C307   C818    1.428   1_554 S
C307   C821    1.427   1_554 S
C308   C309    1.395   .     A
C308   C820    1.427   .     S
C308   C813    1.409   .     S
C309   H312    1.084   .     S
C309   C310    1.381   .     A
C310   H323    1.081   .     S
H315   C816    1.113   1_554 S
H317   C178    1.086   1_655 S
H319   C465    1.086   .     S
O325   Zn339   1.959   .     S
O325   Zn342   1.935   .     S
O325   Zn341   1.943   .     S
O325   Zn340   1.934   .     S
O326   Zn340   1.938   .     S
O327   Zn342   1.943   .     S
O328   Zn341   1.934   .     S
O329   Zn339   1.931   .     S
O330   C816    1.409   1_554 S
O331   Zn339   1.926   .     S
O332   Zn342   1.933   .     S
O333   Zn340   1.929   .     S
O334   Zn341   1.934   .     S
O335   Zn342   1.928   .     S
O336   Zn339   1.926   .     S
O337   Zn340   1.938   .     S
O338   Zn341   1.929   .     S
C343   O390    1.268   .     A
C343   O392    1.268   .     A
C343   C349    1.436   .     S
C344   H377    1.077   .     S
C344   C358    1.391   .     A
C344   C364    1.411   .     A
C345   C357    1.394   .     A
C345   H368    1.084   .     S
C345   C358    1.395   .     A
C346   O391    1.284   .     A
C346   C348    1.454   .     S
C346   O393    1.281   .     A
C347   C356    1.474   .     S
C347   C359    1.401   .     A
C347   C363    1.418   .     A
C348   C406    1.334   .     S
C348   H438    1.088   .     S
C349   C462    1.334   1_455 S
C349   H488    1.086   1_455 S
C350   C353    1.451   .     S
C350   C9      1.331   1_565 S
C350   H33     1.088   1_565 S
C351   C352    1.435   .     S
C352   O388    1.274   .     A
C352   O394    1.274   .     A
C353   O389    1.275   .     A
C353   O395    1.274   .     A
C354   C359    1.387   .     A
C354   H379    1.083   .     S
C354   C874    1.391   .     S
C355   O383    1.267   .     A
C355   C358    1.452   .     S
C355   O385    1.279   .     A
C356   O384    1.283   .     A
C356   O386    1.283   .     A
C357   O387    1.384   .     S
C357   C878    1.409   1_554 S
C359   H378    1.083   .     S
C360   H371    1.109   .     S
C360   H370    1.114   .     S
C360   H885    1.113   .     S
C360   O900    1.409   .     S
C361   H373    1.076   .     S
C361   C867    1.391   1_554 S
C361   C875    1.418   1_554 S
C362   C363    1.423   .     A
C362   C874    1.418   .     S
C362   C877    1.428   .     S
C363   C367    1.408   .     A
C364   C875    1.428   1_554 S
C364   C878    1.427   1_554 S
C365   C366    1.395   .     A
C365   C877    1.427   .     S
C365   C870    1.409   .     S
C366   H369    1.084   .     S
C366   C367    1.381   .     A
C367   H380    1.081   .     S
H372   C873    1.113   1_554 S
H374   C406    1.086   .     S
H376   C9      1.086   1_565 S
H381   C462    1.088   1_455 S
O382   Zn396   1.959   .     S
O382   Zn399   1.935   .     S
O382   Zn398   1.943   .     S
O382   Zn397   1.934   .     S
O383   Zn397   1.938   .     S
O384   Zn399   1.943   .     S
O385   Zn398   1.934   .     S
O386   Zn396   1.931   .     S
O387   C873    1.409   1_554 S
O388   Zn396   1.926   .     S
O389   Zn399   1.933   .     S
O390   Zn397   1.929   .     S
O391   Zn398   1.934   .     S
O392   Zn399   1.928   .     S
O393   Zn396   1.926   .     S
O394   Zn397   1.938   .     S
O395   Zn398   1.929   .     S
C400   O447    1.268   .     A
C400   O449    1.268   .     A
C400   C406    1.436   .     S
C401   H434    1.077   .     S
C401   C415    1.391   .     A
C401   C421    1.411   .     A
C402   C414    1.394   .     A
C402   H425    1.084   .     S
C402   C415    1.395   .     A
C403   O448    1.284   .     A
C403   C405    1.454   .     S
C403   O450    1.281   .     A
C404   C413    1.474   .     S
C404   C416    1.401   .     A
C404   C420    1.418   .     A
C405   C463    1.334   .     S
C405   H495    1.088   .     S
C407   C410    1.451   .     S
C407   C66     1.331   1_565 S
C407   H90     1.088   1_565 S
C408   C409    1.435   .     S
C409   O445    1.274   .     A
C409   O451    1.274   .     A
C410   O446    1.275   .     A
C410   O452    1.274   .     A
C411   C416    1.387   .     A
C411   H436    1.083   .     S
C411   C931    1.391   .     S
C412   O440    1.267   .     A
C412   C415    1.452   .     S
C412   O442    1.279   .     A
C413   O441    1.283   .     A
C413   O443    1.283   .     A
C414   O444    1.384   .     S
C414   C935    1.409   1_554 S
C416   H435    1.083   .     S
C417   H428    1.109   .     S
C417   H427    1.114   .     S
C417   H942    1.113   .     S
C417   O957    1.409   .     S
C418   H430    1.076   .     S
C418   C924    1.391   1_554 S
C418   C932    1.418   1_554 S
C419   C420    1.423   .     A
C419   C931    1.418   .     S
C419   C934    1.428   .     S
C420   C424    1.408   .     A
C421   C932    1.428   1_554 S
C421   C935    1.427   1_554 S
C422   C423    1.395   .     A
C422   C934    1.427   .     S
C422   C927    1.409   .     S
C423   H426    1.084   .     S
C423   C424    1.381   .     A
C424   H437    1.081   .     S
H429   C930    1.113   1_554 S
H431   C463    1.086   .     S
H433   C66     1.086   1_565 S
O439   Zn453   1.959   .     S
O439   Zn456   1.935   .     S
O439   Zn455   1.943   .     S
O439   Zn454   1.934   .     S
O440   Zn454   1.938   .     S
O441   Zn456   1.943   .     S
O442   Zn455   1.934   .     S
O443   Zn453   1.931   .     S
O444   C930    1.409   1_554 S
O445   Zn453   1.926   .     S
O446   Zn456   1.933   .     S
O447   Zn454   1.929   .     S
O448   Zn455   1.934   .     S
O449   Zn456   1.928   .     S
O450   Zn453   1.926   .     S
O451   Zn454   1.938   .     S
O452   Zn455   1.929   .     S
C457   O504    1.268   .     A
C457   O506    1.268   .     A
C457   C463    1.436   .     S
C458   H491    1.077   .     S
C458   C472    1.391   .     A
C458   C478    1.411   .     A
C459   C471    1.394   .     A
C459   H482    1.084   .     S
C459   C472    1.395   .     A
C460   O505    1.284   .     A
C460   C462    1.454   .     S
C460   O507    1.281   .     A
C461   C470    1.474   .     S
C461   C473    1.401   .     A
C461   C477    1.418   .     A
C462   C349    1.334   1_655 S
C462   H381    1.088   1_655 S
C464   C467    1.451   .     S
C464   C123    1.331   1_565 S
C464   H147    1.088   1_565 S
C465   C466    1.435   .     S
C466   O502    1.274   .     A
C466   O508    1.274   .     A
C467   O503    1.275   .     A
C467   O509    1.274   .     A
C468   C473    1.387   .     A
C468   H493    1.083   .     S
C468   C988    1.391   .     S
C469   O497    1.267   .     A
C469   C472    1.452   .     S
C469   O499    1.279   .     A
C470   O498    1.283   .     A
C470   O500    1.283   .     A
C471   O501    1.384   .     S
C471   C992    1.409   1_554 S
C473   H492    1.083   .     S
C474   H485    1.109   .     S
C474   H484    1.114   .     S
C474   H999    1.113   .     S
C474   O1014   1.409   .     S
C475   H487    1.076   .     S
C475   C981    1.391   1_554 S
C475   C989    1.418   1_554 S
C476   C477    1.423   .     A
C476   C988    1.418   .     S
C476   C991    1.428   .     S
C477   C481    1.408   .     A
C478   C989    1.428   1_554 S
C478   C992    1.427   1_554 S
C479   C480    1.395   .     A
C479   C991    1.427   .     S
C479   C984    1.409   .     S
C480   H483    1.084   .     S
C480   C481    1.381   .     A
C481   H494    1.081   .     S
H486   C987    1.113   1_554 S
H488   C349    1.086   1_655 S
H490   C123    1.086   1_565 S
O496   Zn510   1.959   .     S
O496   Zn513   1.935   .     S
O496   Zn512   1.943   .     S
O496   Zn511   1.934   .     S
O497   Zn511   1.938   .     S
O498   Zn513   1.943   .     S
O499   Zn512   1.934   .     S
O500   Zn510   1.931   .     S
O501   C987    1.409   1_554 S
O502   Zn510   1.926   .     S
O503   Zn513   1.933   .     S
O504   Zn511   1.929   .     S
O505   Zn512   1.934   .     S
O506   Zn513   1.928   .     S
O507   Zn510   1.926   .     S
O508   Zn511   1.938   .     S
O509   Zn512   1.929   .     S
C514   O561    1.268   .     A
C514   O563    1.268   .     A
C514   C520    1.436   .     S
C515   H548    1.077   .     S
C515   C529    1.391   .     A
C515   C535    1.411   .     A
C516   C528    1.394   .     A
C516   H539    1.084   .     S
C516   C529    1.395   .     A
C517   O562    1.284   .     A
C517   C519    1.454   .     S
C517   O564    1.281   .     A
C518   C527    1.474   .     S
C518   C530    1.401   .     A
C518   C534    1.418   .     A
C519   C577    1.334   .     S
C519   H609    1.088   .     S
C520   C633    1.334   1_455 S
C520   H659    1.086   1_455 S
C521   C524    1.451   .     S
C521   C693    1.331   .     S
C521   H717    1.088   .     S
C522   C523    1.435   .     S
C522   C863    1.331   1_545 S
C522   H889    1.086   1_545 S
C523   O559    1.274   .     A
C523   O565    1.274   .     A
C524   O560    1.275   .     A
C524   O566    1.274   .     A
C525   C530    1.387   .     A
C525   H550    1.083   .     S
C525   C19     1.391   1_556 S
C526   O554    1.267   .     A
C526   C529    1.452   .     S
C526   O556    1.279   .     A
C527   O555    1.283   .     A
C527   O557    1.283   .     A
C528   O558    1.384   .     S
C530   H549    1.083   .     S
C531   H542    1.109   .     S
C531   H541    1.114   .     S
C531   H30     1.113   1_556 S
C531   O45     1.409   1_556 S
C532   H544    1.076   .     S
C533   C534    1.423   .     A
C533   C19     1.418   1_556 S
C533   C22     1.428   1_556 S
C534   C538    1.408   .     A
C536   C537    1.395   .     A
C536   C22     1.427   1_556 S
C536   C15     1.409   1_556 S
C537   H540    1.084   .     S
C537   C538    1.381   .     A
C538   H551    1.081   .     S
H545   C577    1.086   .     S
H546   C863    1.088   1_545 S
H547   C693    1.086   .     S
H552   C633    1.088   1_455 S
O553   Zn567   1.959   .     S
O553   Zn570   1.935   .     S
O553   Zn569   1.943   .     S
O553   Zn568   1.934   .     S
O554   Zn568   1.938   .     S
O555   Zn570   1.943   .     S
O556   Zn569   1.934   .     S
O557   Zn567   1.931   .     S
O559   Zn567   1.926   .     S
O560   Zn570   1.933   .     S
O561   Zn568   1.929   .     S
O562   Zn569   1.934   .     S
O563   Zn570   1.928   .     S
O564   Zn567   1.926   .     S
O565   Zn568   1.938   .     S
O566   Zn569   1.929   .     S
C571   O618    1.268   .     A
C571   O620    1.268   .     A
C571   C577    1.436   .     S
C572   H605    1.077   .     S
C572   C586    1.391   .     A
C572   C592    1.411   .     A
C573   C585    1.394   .     A
C573   H596    1.084   .     S
C573   C586    1.395   .     A
C574   O619    1.284   .     A
C574   C576    1.454   .     S
C574   O621    1.281   .     A
C575   C584    1.474   .     S
C575   C587    1.401   .     A
C575   C591    1.418   .     A
C576   C634    1.334   .     S
C576   H666    1.088   .     S
C578   C581    1.451   .     S
C578   C750    1.331   .     S
C578   H774    1.088   .     S
C579   C580    1.435   .     S
C579   C920    1.331   1_545 S
C579   H946    1.086   1_545 S
C580   O616    1.274   .     A
C580   O622    1.274   .     A
C581   O617    1.275   .     A
C581   O623    1.274   .     A
C582   C587    1.387   .     A
C582   H607    1.083   .     S
C582   C76     1.391   1_556 S
C583   O611    1.267   .     A
C583   C586    1.452   .     S
C583   O613    1.279   .     A
C584   O612    1.283   .     A
C584   O614    1.283   .     A
C585   O615    1.384   .     S
C587   H606    1.083   .     S
C588   H599    1.109   .     S
C588   H598    1.114   .     S
C588   H87     1.113   1_556 S
C588   O102    1.409   1_556 S
C589   H601    1.076   .     S
C590   C591    1.423   .     A
C590   C76     1.418   1_556 S
C590   C79     1.428   1_556 S
C591   C595    1.408   .     A
C593   C594    1.395   .     A
C593   C79     1.427   1_556 S
C593   C72     1.409   1_556 S
C594   H597    1.084   .     S
C594   C595    1.381   .     A
C595   H608    1.081   .     S
H602   C634    1.086   .     S
H603   C920    1.088   1_545 S
H604   C750    1.086   .     S
O610   Zn624   1.959   .     S
O610   Zn627   1.935   .     S
O610   Zn626   1.943   .     S
O610   Zn625   1.934   .     S
O611   Zn625   1.938   .     S
O612   Zn627   1.943   .     S
O613   Zn626   1.934   .     S
O614   Zn624   1.931   .     S
O616   Zn624   1.926   .     S
O617   Zn627   1.933   .     S
O618   Zn625   1.929   .     S
O619   Zn626   1.934   .     S
O620   Zn627   1.928   .     S
O621   Zn624   1.926   .     S
O622   Zn625   1.938   .     S
O623   Zn626   1.929   .     S
C628   O675    1.268   .     A
C628   O677    1.268   .     A
C628   C634    1.436   .     S
C629   H662    1.077   .     S
C629   C643    1.391   .     A
C629   C649    1.411   .     A
C630   C642    1.394   .     A
C630   H653    1.084   .     S
C630   C643    1.395   .     A
C631   O676    1.284   .     A
C631   C633    1.454   .     S
C631   O678    1.281   .     A
C632   C641    1.474   .     S
C632   C644    1.401   .     A
C632   C648    1.418   .     A
C633   C520    1.334   1_655 S
C633   H552    1.088   1_655 S
C635   C638    1.451   .     S
C635   C807    1.331   .     S
C635   H831    1.088   .     S
C636   C637    1.435   .     S
C636   C977    1.331   1_545 S
C636   H1003   1.086   1_545 S
C637   O673    1.274   .     A
C637   O679    1.274   .     A
C638   O674    1.275   .     A
C638   O680    1.274   .     A
C639   C644    1.387   .     A
C639   H664    1.083   .     S
C639   C133    1.391   1_556 S
C640   O668    1.267   .     A
C640   C643    1.452   .     S
C640   O670    1.279   .     A
C641   O669    1.283   .     A
C641   O671    1.283   .     A
C642   O672    1.384   .     S
C644   H663    1.083   .     S
C645   H656    1.109   .     S
C645   H655    1.114   .     S
C645   H144    1.113   1_556 S
C645   O159    1.409   1_556 S
C646   H658    1.076   .     S
C647   C648    1.423   .     A
C647   C133    1.418   1_556 S
C647   C136    1.428   1_556 S
C648   C652    1.408   .     A
C650   C651    1.395   .     A
C650   C136    1.427   1_556 S
C650   C129    1.409   1_556 S
C651   H654    1.084   .     S
C651   C652    1.381   .     A
C652   H665    1.081   .     S
H659   C520    1.086   1_655 S
H660   C977    1.088   1_545 S
H661   C807    1.086   .     S
O667   Zn681   1.959   .     S
O667   Zn684   1.935   .     S
O667   Zn683   1.943   .     S
O667   Zn682   1.934   .     S
O668   Zn682   1.938   .     S
O669   Zn684   1.943   .     S
O670   Zn683   1.934   .     S
O671   Zn681   1.931   .     S
O673   Zn681   1.926   .     S
O674   Zn684   1.933   .     S
O675   Zn682   1.929   .     S
O676   Zn683   1.934   .     S
O677   Zn684   1.928   .     S
O678   Zn681   1.926   .     S
O679   Zn682   1.938   .     S
O680   Zn683   1.929   .     S
C685   O732    1.268   .     A
C685   O734    1.268   .     A
C685   C691    1.436   .     S
C686   H719    1.077   .     S
C686   C700    1.391   .     A
C686   C706    1.411   .     A
C687   C699    1.394   .     A
C687   H710    1.084   .     S
C687   C700    1.395   .     A
C688   O733    1.284   .     A
C688   C690    1.454   .     S
C688   O735    1.281   .     A
C689   C698    1.474   .     S
C689   C701    1.401   .     A
C689   C705    1.418   .     A
C690   C748    1.334   .     S
C690   H780    1.088   .     S
C691   C804    1.334   1_455 S
C691   H830    1.086   1_455 S
C692   C695    1.451   .     S
C692   C864    1.331   .     S
C692   H888    1.088   .     S
C693   C694    1.435   .     S
C694   O730    1.274   .     A
C694   O736    1.274   .     A
C695   O731    1.275   .     A
C695   O737    1.274   .     A
C696   C701    1.387   .     A
C696   H721    1.083   .     S
C696   C190    1.391   1_556 S
C697   O725    1.267   .     A
C697   C700    1.452   .     S
C697   O727    1.279   .     A
C698   O726    1.283   .     A
C698   O728    1.283   .     A
C699   O729    1.384   .     S
C701   H720    1.083   .     S
C702   H713    1.109   .     S
C702   H712    1.114   .     S
C702   H201    1.113   1_556 S
C702   O216    1.409   1_556 S
C703   H715    1.076   .     S
C704   C705    1.423   .     A
C704   C190    1.418   1_556 S
C704   C193    1.428   1_556 S
C705   C709    1.408   .     A
C707   C708    1.395   .     A
C707   C193    1.427   1_556 S
C707   C186    1.409   1_556 S
C708   H711    1.084   .     S
C708   C709    1.381   .     A
C709   H722    1.081   .     S
H716   C748    1.086   .     S
H718   C864    1.086   .     S
H723   C804    1.088   1_455 S
O724   Zn738   1.959   .     S
O724   Zn741   1.935   .     S
O724   Zn740   1.943   .     S
O724   Zn739   1.934   .     S
O725   Zn739   1.938   .     S
O726   Zn741   1.943   .     S
O727   Zn740   1.934   .     S
O728   Zn738   1.931   .     S
O730   Zn738   1.926   .     S
O731   Zn741   1.933   .     S
O732   Zn739   1.929   .     S
O733   Zn740   1.934   .     S
O734   Zn741   1.928   .     S
O735   Zn738   1.926   .     S
O736   Zn739   1.938   .     S
O737   Zn740   1.929   .     S
C742   O789    1.268   .     A
C742   O791    1.268   .     A
C742   C748    1.436   .     S
C743   H776    1.077   .     S
C743   C757    1.391   .     A
C743   C763    1.411   .     A
C744   C756    1.394   .     A
C744   H767    1.084   .     S
C744   C757    1.395   .     A
C745   O790    1.284   .     A
C745   C747    1.454   .     S
C745   O792    1.281   .     A
C746   C755    1.474   .     S
C746   C758    1.401   .     A
C746   C762    1.418   .     A
C747   C805    1.334   .     S
C747   H837    1.088   .     S
C749   C752    1.451   .     S
C749   C921    1.331   .     S
C749   H945    1.088   .     S
C750   C751    1.435   .     S
C751   O787    1.274   .     A
C751   O793    1.274   .     A
C752   O788    1.275   .     A
C752   O794    1.274   .     A
C753   C758    1.387   .     A
C753   H778    1.083   .     S
C753   C247    1.391   1_556 S
C754   O782    1.267   .     A
C754   C757    1.452   .     S
C754   O784    1.279   .     A
C755   O783    1.283   .     A
C755   O785    1.283   .     A
C756   O786    1.384   .     S
C758   H777    1.083   .     S
C759   H770    1.109   .     S
C759   H769    1.114   .     S
C759   H258    1.113   1_556 S
C759   O273    1.409   1_556 S
C760   H772    1.076   .     S
C761   C762    1.423   .     A
C761   C247    1.418   1_556 S
C761   C250    1.428   1_556 S
C762   C766    1.408   .     A
C764   C765    1.395   .     A
C764   C250    1.427   1_556 S
C764   C243    1.409   1_556 S
C765   H768    1.084   .     S
C765   C766    1.381   .     A
C766   H779    1.081   .     S
H773   C805    1.086   .     S
H775   C921    1.086   .     S
O781   Zn795   1.959   .     S
O781   Zn798   1.935   .     S
O781   Zn797   1.943   .     S
O781   Zn796   1.934   .     S
O782   Zn796   1.938   .     S
O783   Zn798   1.943   .     S
O784   Zn797   1.934   .     S
O785   Zn795   1.931   .     S
O787   Zn795   1.926   .     S
O788   Zn798   1.933   .     S
O789   Zn796   1.929   .     S
O790   Zn797   1.934   .     S
O791   Zn798   1.928   .     S
O792   Zn795   1.926   .     S
O793   Zn796   1.938   .     S
O794   Zn797   1.929   .     S
C799   O846    1.268   .     A
C799   O848    1.268   .     A
C799   C805    1.436   .     S
C800   H833    1.077   .     S
C800   C814    1.391   .     A
C800   C820    1.411   .     A
C801   C813    1.394   .     A
C801   H824    1.084   .     S
C801   C814    1.395   .     A
C802   O847    1.284   .     A
C802   C804    1.454   .     S
C802   O849    1.281   .     A
C803   C812    1.474   .     S
C803   C815    1.401   .     A
C803   C819    1.418   .     A
C804   C691    1.334   1_655 S
C804   H723    1.088   1_655 S
C806   C809    1.451   .     S
C806   C978    1.331   .     S
C806   H1002   1.088   .     S
C807   C808    1.435   .     S
C808   O844    1.274   .     A
C808   O850    1.274   .     A
C809   O845    1.275   .     A
C809   O851    1.274   .     A
C810   C815    1.387   .     A
C810   H835    1.083   .     S
C810   C304    1.391   1_556 S
C811   O839    1.267   .     A
C811   C814    1.452   .     S
C811   O841    1.279   .     A
C812   O840    1.283   .     A
C812   O842    1.283   .     A
C813   O843    1.384   .     S
C815   H834    1.083   .     S
C816   H827    1.109   .     S
C816   H826    1.114   .     S
C816   H315    1.113   1_556 S
C816   O330    1.409   1_556 S
C817   H829    1.076   .     S
C818   C819    1.423   .     A
C818   C304    1.418   1_556 S
C818   C307    1.428   1_556 S
C819   C823    1.408   .     A
C821   C822    1.395   .     A
C821   C307    1.427   1_556 S
C821   C300    1.409   1_556 S
C822   H825    1.084   .     S
C822   C823    1.381   .     A
C823   H836    1.081   .     S
H830   C691    1.086   1_655 S
H832   C978    1.086   .     S
O838   Zn852   1.959   .     S
O838   Zn855   1.935   .     S
O838   Zn854   1.943   .     S
O838   Zn853   1.934   .     S
O839   Zn853   1.938   .     S
O840   Zn855   1.943   .     S
O841   Zn854   1.934   .     S
O842   Zn852   1.931   .     S
O844   Zn852   1.926   .     S
O845   Zn855   1.933   .     S
O846   Zn853   1.929   .     S
O847   Zn854   1.934   .     S
O848   Zn855   1.928   .     S
O849   Zn852   1.926   .     S
O850   Zn853   1.938   .     S
O851   Zn854   1.929   .     S
C856   O903    1.268   .     A
C856   O905    1.268   .     A
C856   C862    1.436   .     S
C857   H890    1.077   .     S
C857   C871    1.391   .     A
C857   C877    1.411   .     A
C858   C870    1.394   .     A
C858   H881    1.084   .     S
C858   C871    1.395   .     A
C859   O904    1.284   .     A
C859   C861    1.454   .     S
C859   O906    1.281   .     A
C860   C869    1.474   .     S
C860   C872    1.401   .     A
C860   C876    1.418   .     A
C861   C919    1.334   .     S
C861   H951    1.088   .     S
C862   C975    1.334   1_455 S
C862   H1001   1.086   1_455 S
C863   C866    1.451   .     S
C863   C522    1.331   1_565 S
C863   H546    1.088   1_565 S
C864   C865    1.435   .     S
C865   O901    1.274   .     A
C865   O907    1.274   .     A
C866   O902    1.275   .     A
C866   O908    1.274   .     A
C867   C872    1.387   .     A
C867   H892    1.083   .     S
C867   C361    1.391   1_556 S
C868   O896    1.267   .     A
C868   C871    1.452   .     S
C868   O898    1.279   .     A
C869   O897    1.283   .     A
C869   O899    1.283   .     A
C870   O900    1.384   .     S
C872   H891    1.083   .     S
C873   H884    1.109   .     S
C873   H883    1.114   .     S
C873   H372    1.113   1_556 S
C873   O387    1.409   1_556 S
C874   H886    1.076   .     S
C875   C876    1.423   .     A
C875   C361    1.418   1_556 S
C875   C364    1.428   1_556 S
C876   C880    1.408   .     A
C878   C879    1.395   .     A
C878   C364    1.427   1_556 S
C878   C357    1.409   1_556 S
C879   H882    1.084   .     S
C879   C880    1.381   .     A
C880   H893    1.081   .     S
H887   C919    1.086   .     S
H889   C522    1.086   1_565 S
H894   C975    1.088   1_455 S
O895   Zn909   1.959   .     S
O895   Zn912   1.935   .     S
O895   Zn911   1.943   .     S
O895   Zn910   1.934   .     S
O896   Zn910   1.938   .     S
O897   Zn912   1.943   .     S
O898   Zn911   1.934   .     S
O899   Zn909   1.931   .     S
O901   Zn909   1.926   .     S
O902   Zn912   1.933   .     S
O903   Zn910   1.929   .     S
O904   Zn911   1.934   .     S
O905   Zn912   1.928   .     S
O906   Zn909   1.926   .     S
O907   Zn910   1.938   .     S
O908   Zn911   1.929   .     S
C913   O960    1.268   .     A
C913   O962    1.268   .     A
C913   C919    1.436   .     S
C914   H947    1.077   .     S
C914   C928    1.391   .     A
C914   C934    1.411   .     A
C915   C927    1.394   .     A
C915   H938    1.084   .     S
C915   C928    1.395   .     A
C916   O961    1.284   .     A
C916   C918    1.454   .     S
C916   O963    1.281   .     A
C917   C926    1.474   .     S
C917   C929    1.401   .     A
C917   C933    1.418   .     A
C918   C976    1.334   .     S
C918   H1008   1.088   .     S
C920   C923    1.451   .     S
C920   C579    1.331   1_565 S
C920   H603    1.088   1_565 S
C921   C922    1.435   .     S
C922   O958    1.274   .     A
C922   O964    1.274   .     A
C923   O959    1.275   .     A
C923   O965    1.274   .     A
C924   C929    1.387   .     A
C924   H949    1.083   .     S
C924   C418    1.391   1_556 S
C925   O953    1.267   .     A
C925   C928    1.452   .     S
C925   O955    1.279   .     A
C926   O954    1.283   .     A
C926   O956    1.283   .     A
C927   O957    1.384   .     S
C929   H948    1.083   .     S
C930   H941    1.109   .     S
C930   H940    1.114   .     S
C930   H429    1.113   1_556 S
C930   O444    1.409   1_556 S
C931   H943    1.076   .     S
C932   C933    1.423   .     A
C932   C418    1.418   1_556 S
C932   C421    1.428   1_556 S
C933   C937    1.408   .     A
C935   C936    1.395   .     A
C935   C421    1.427   1_556 S
C935   C414    1.409   1_556 S
C936   H939    1.084   .     S
C936   C937    1.381   .     A
C937   H950    1.081   .     S
H944   C976    1.086   .     S
H946   C579    1.086   1_565 S
O952   Zn966   1.959   .     S
O952   Zn969   1.935   .     S
O952   Zn968   1.943   .     S
O952   Zn967   1.934   .     S
O953   Zn967   1.938   .     S
O954   Zn969   1.943   .     S
O955   Zn968   1.934   .     S
O956   Zn966   1.931   .     S
O958   Zn966   1.926   .     S
O959   Zn969   1.933   .     S
O960   Zn967   1.929   .     S
O961   Zn968   1.934   .     S
O962   Zn969   1.928   .     S
O963   Zn966   1.926   .     S
O964   Zn967   1.938   .     S
O965   Zn968   1.929   .     S
C970   O1017   1.268   .     A
C970   O1019   1.268   .     A
C970   C976    1.436   .     S
C971   H1004   1.077   .     S
C971   C985    1.391   .     A
C971   C991    1.411   .     A
C972   C984    1.394   .     A
C972   H995    1.084   .     S
C972   C985    1.395   .     A
C973   O1018   1.284   .     A
C973   C975    1.454   .     S
C973   O1020   1.281   .     A
C974   C983    1.474   .     S
C974   C986    1.401   .     A
C974   C990    1.418   .     A
C975   C862    1.334   1_655 S
C975   H894    1.088   1_655 S
C977   C980    1.451   .     S
C977   C636    1.331   1_565 S
C977   H660    1.088   1_565 S
C978   C979    1.435   .     S
C979   O1015   1.274   .     A
C979   O1021   1.274   .     A
C980   O1016   1.275   .     A
C980   O1022   1.274   .     A
C981   C986    1.387   .     A
C981   H1006   1.083   .     S
C981   C475    1.391   1_556 S
C982   O1010   1.267   .     A
C982   C985    1.452   .     S
C982   O1012   1.279   .     A
C983   O1011   1.283   .     A
C983   O1013   1.283   .     A
C984   O1014   1.384   .     S
C986   H1005   1.083   .     S
C987   H998    1.109   .     S
C987   H997    1.114   .     S
C987   H486    1.113   1_556 S
C987   O501    1.409   1_556 S
C988   H1000   1.076   .     S
C989   C990    1.423   .     A
C989   C475    1.418   1_556 S
C989   C478    1.428   1_556 S
C990   C994    1.408   .     A
C992   C993    1.395   .     A
C992   C478    1.427   1_556 S
C992   C471    1.409   1_556 S
C993   H996    1.084   .     S
C993   C994    1.381   .     A
C994   H1007   1.081   .     S
H1001  C862    1.086   1_655 S
H1003  C636    1.086   1_565 S
O1009  Zn1023  1.959   .     S
O1009  Zn1026  1.935   .     S
O1009  Zn1025  1.943   .     S
O1009  Zn1024  1.934   .     S
O1010  Zn1024  1.938   .     S
O1011  Zn1026  1.943   .     S
O1012  Zn1025  1.934   .     S
O1013  Zn1023  1.931   .     S
O1015  Zn1023  1.926   .     S
O1016  Zn1026  1.933   .     S
O1017  Zn1024  1.929   .     S
O1018  Zn1025  1.934   .     S
O1019  Zn1026  1.928   .     S
O1020  Zn1023  1.926   .     S
O1021  Zn1024  1.938   .     S
O1022  Zn1025  1.929   .     S
