data_str_m1_o10_o18_pcu_sym.131
_audit_creation_date              2020-01-03
_audit_creation_method            'Materials Studio'
_symmetry_space_group_name_H-M    'P1'
_symmetry_Int_Tables_number       1
_symmetry_cell_setting            triclinic
loop_
_symmetry_equiv_pos_as_xyz
  x,y,z
_cell_length_a                    32.7088
_cell_length_b                    32.5778
_cell_length_c                    35.6750
_cell_angle_alpha                 98.4007
_cell_angle_beta                  72.7620
_cell_angle_gamma                 98.8162
loop_
_atom_site_label
_atom_site_type_symbol
_atom_site_fract_x
_atom_site_fract_y
_atom_site_fract_z
_atom_site_U_iso_or_equiv
_atom_site_adp_type
_atom_site_occupancy
C1     C     0.05282   0.16019   0.25831   0.00000  Uiso   1.00
C2     C     0.22031   0.16535   0.46105   0.00000  Uiso   1.00
C3     C     0.23809   0.13867   0.47820   0.00000  Uiso   1.00
C4     C     0.28100   0.17352   0.24134   0.00000  Uiso   1.00
C5     C     0.21944   0.13281   0.01856   0.00000  Uiso   1.00
C6     C     0.18705   0.15787   0.04129   0.00000  Uiso   1.00
C7     C     0.23355   0.10516   0.03788   0.00000  Uiso   1.00
C8     C     0.22015   0.10687   0.07906   0.00000  Uiso   1.00
C9     C     0.18140   0.16588   0.08236   0.00000  Uiso   1.00
C10    C     0.32674   0.17642   0.23853   0.00000  Uiso   1.00
C11    C     0.00764   0.15685   0.26242   0.00000  Uiso   1.00
C12    C     0.09984   0.21797   0.42137   0.00000  Uiso   1.00
C13    C     0.18316   0.32280   0.24058   0.00000  Uiso   1.00
C14    C     0.15118   0.01213   0.26096   0.00000  Uiso   1.00
C15    C     0.15588   0.05620   0.25871   0.00000  Uiso   1.00
C16    C     0.17719   0.27778   0.24168   0.00000  Uiso   1.00
C17    C     0.18813   0.14546   0.14397   0.00000  Uiso   1.00
C18    C     0.14515   0.18769   0.35622   0.00000  Uiso   1.00
C19    C     0.13481   0.19620   0.39952   0.00000  Uiso   1.00
C20    C     0.19605   0.13874   0.10129   0.00000  Uiso   1.00
C21    C     0.08842   0.22227   0.46247   0.00000  Uiso   1.00
C22    C     0.15967   0.18152   0.41937   0.00000  Uiso   1.00
C23    C     0.15162   0.18954   0.46051   0.00000  Uiso   1.00
C24    C     0.11298   0.20653   0.48234   0.00000  Uiso   1.00
C25    C     0.17838   0.17673   0.48060   0.00000  Uiso   1.00
C26    C     0.16234   0.17445   0.02184   0.00000  Uiso   1.00
C27    C     0.12045   0.18508   0.04175   0.00000  Uiso   1.00
C28    C     0.09778   0.20399   0.02305   0.00000  Uiso   1.00
F29    F     0.05865   0.21563   0.04426   0.00000  Uiso   1.00
F30    F     0.25865   0.07528   0.01745   0.00000  Uiso   1.00
F31    F     0.11154   0.32748   0.28026   0.00000  Uiso   1.00
F32    F     0.05256   0.24076   0.48260   0.00000  Uiso   1.00
F33    F     0.07487   0.23283   0.40326   0.00000  Uiso   1.00
F34    F     0.09932   0.17361   0.07828   0.00000  Uiso   1.00
H35    H     0.18420   0.16205   0.40260   0.00000  Uiso   1.00
I36    I     0.03698   0.21308   0.19505   0.00000  Uiso   1.00
I37    I     0.30493   0.11735   0.30690   0.00000  Uiso   1.00
I38    I     0.24400   0.01719   0.20701   0.00000  Uiso   1.00
I39    I     0.16451   0.22561   0.11343   0.00000  Uiso   1.00
I40    I     0.24152   0.06393   0.10658   0.00000  Uiso   1.00
I41    I     0.29641   0.11355   0.44385   0.00000  Uiso   1.00
I42    I     0.26239   0.19904   0.41382   0.00000  Uiso   1.00
O43    O     0.16667   0.16667   0.25000   0.00000  Uiso   1.00
O44    O     0.15693   0.12393   0.16625   0.00000  Uiso   1.00
O45    O     0.12687   0.20646   0.33749   0.00000  Uiso   1.00
O46    O     0.21088   0.17493   0.15877   0.00000  Uiso   1.00
O47    O     0.17198   0.16135   0.33749   0.00000  Uiso   1.00
O48    O     0.17849   0.08101   0.27820   0.00000  Uiso   1.00
O49    O     0.14581   0.26136   0.26767   0.00000  Uiso   1.00
O50    O     0.07452   0.13251   0.23607   0.00000  Uiso   1.00
O51    O     0.26785   0.19179   0.21805   0.00000  Uiso   1.00
O52    O     0.06990   0.18960   0.27820   0.00000  Uiso   1.00
O53    O     0.25440   0.15277   0.26767   0.00000  Uiso   1.00
O54    O     0.13800   0.06903   0.23607   0.00000  Uiso   1.00
O55    O     0.20437   0.25527   0.21805   0.00000  Uiso   1.00
Zn56   Zn    0.19244   0.14090   0.28277   0.00000  Uiso   1.00
Zn57   Zn    0.13459   0.12378   0.22257   0.00000  Uiso   1.00
Zn58   Zn    0.21166   0.19664   0.21188   0.00000  Uiso   1.00
Zn59   Zn    0.12798   0.20535   0.28277   0.00000  Uiso   1.00
C60    C     0.38615   0.16019   0.25831   0.00000  Uiso   1.00
C61    C     0.55365   0.16535   0.46105   0.00000  Uiso   1.00
C62    C     0.57142   0.13867   0.47820   0.00000  Uiso   1.00
C63    C     0.61434   0.17352   0.24134   0.00000  Uiso   1.00
C64    C     0.55278   0.13281   0.01856   0.00000  Uiso   1.00
C65    C     0.52038   0.15787   0.04129   0.00000  Uiso   1.00
C66    C     0.56689   0.10516   0.03788   0.00000  Uiso   1.00
C67    C     0.55348   0.10687   0.07906   0.00000  Uiso   1.00
C68    C     0.51473   0.16588   0.08236   0.00000  Uiso   1.00
C69    C     0.66007   0.17642   0.23853   0.00000  Uiso   1.00
C70    C     0.34097   0.15685   0.26242   0.00000  Uiso   1.00
C71    C     0.43317   0.21797   0.42137   0.00000  Uiso   1.00
C72    C     0.51649   0.32280   0.24058   0.00000  Uiso   1.00
C73    C     0.48451   0.01213   0.26096   0.00000  Uiso   1.00
C74    C     0.48922   0.05620   0.25871   0.00000  Uiso   1.00
C75    C     0.51052   0.27778   0.24168   0.00000  Uiso   1.00
C76    C     0.52147   0.14546   0.14397   0.00000  Uiso   1.00
C77    C     0.47849   0.18769   0.35622   0.00000  Uiso   1.00
C78    C     0.46814   0.19620   0.39952   0.00000  Uiso   1.00
C79    C     0.52939   0.13874   0.10129   0.00000  Uiso   1.00
C80    C     0.42175   0.22227   0.46247   0.00000  Uiso   1.00
C81    C     0.49300   0.18152   0.41937   0.00000  Uiso   1.00
C82    C     0.48495   0.18954   0.46051   0.00000  Uiso   1.00
C83    C     0.44632   0.20653   0.48234   0.00000  Uiso   1.00
C84    C     0.51171   0.17673   0.48060   0.00000  Uiso   1.00
C85    C     0.49568   0.17445   0.02184   0.00000  Uiso   1.00
C86    C     0.45378   0.18508   0.04175   0.00000  Uiso   1.00
C87    C     0.43112   0.20399   0.02305   0.00000  Uiso   1.00
F88    F     0.39199   0.21563   0.04426   0.00000  Uiso   1.00
F89    F     0.59198   0.07528   0.01745   0.00000  Uiso   1.00
F90    F     0.44488   0.32748   0.28026   0.00000  Uiso   1.00
F91    F     0.38590   0.24076   0.48260   0.00000  Uiso   1.00
F92    F     0.40820   0.23283   0.40326   0.00000  Uiso   1.00
F93    F     0.43266   0.17361   0.07828   0.00000  Uiso   1.00
H94    H     0.51753   0.16205   0.40260   0.00000  Uiso   1.00
I95    I     0.37032   0.21308   0.19505   0.00000  Uiso   1.00
I96    I     0.63826   0.11735   0.30690   0.00000  Uiso   1.00
I97    I     0.57733   0.01719   0.20701   0.00000  Uiso   1.00
I98    I     0.49785   0.22561   0.11343   0.00000  Uiso   1.00
I99    I     0.57485   0.06393   0.10658   0.00000  Uiso   1.00
I100   I     0.62974   0.11355   0.44385   0.00000  Uiso   1.00
I101   I     0.59572   0.19904   0.41382   0.00000  Uiso   1.00
O102   O     0.50000   0.16667   0.25000   0.00000  Uiso   1.00
O103   O     0.49027   0.12393   0.16625   0.00000  Uiso   1.00
O104   O     0.46020   0.20646   0.33749   0.00000  Uiso   1.00
O105   O     0.54421   0.17493   0.15877   0.00000  Uiso   1.00
O106   O     0.50532   0.16135   0.33749   0.00000  Uiso   1.00
O107   O     0.51182   0.08101   0.27820   0.00000  Uiso   1.00
O108   O     0.47914   0.26136   0.26767   0.00000  Uiso   1.00
O109   O     0.40785   0.13251   0.23607   0.00000  Uiso   1.00
O110   O     0.60119   0.19179   0.21805   0.00000  Uiso   1.00
O111   O     0.40323   0.18960   0.27820   0.00000  Uiso   1.00
O112   O     0.58773   0.15277   0.26767   0.00000  Uiso   1.00
O113   O     0.47133   0.06903   0.23607   0.00000  Uiso   1.00
O114   O     0.53771   0.25527   0.21805   0.00000  Uiso   1.00
Zn115  Zn    0.52577   0.14090   0.28277   0.00000  Uiso   1.00
Zn116  Zn    0.46792   0.12378   0.22257   0.00000  Uiso   1.00
Zn117  Zn    0.54500   0.19664   0.21188   0.00000  Uiso   1.00
Zn118  Zn    0.46131   0.20535   0.28277   0.00000  Uiso   1.00
C119   C     0.71948   0.16019   0.25831   0.00000  Uiso   1.00
C120   C     0.88698   0.16535   0.46105   0.00000  Uiso   1.00
C121   C     0.90476   0.13867   0.47820   0.00000  Uiso   1.00
C122   C     0.94767   0.17352   0.24134   0.00000  Uiso   1.00
C123   C     0.88611   0.13281   0.01856   0.00000  Uiso   1.00
C124   C     0.85371   0.15787   0.04129   0.00000  Uiso   1.00
C125   C     0.90022   0.10516   0.03788   0.00000  Uiso   1.00
C126   C     0.88681   0.10687   0.07906   0.00000  Uiso   1.00
C127   C     0.84807   0.16588   0.08236   0.00000  Uiso   1.00
C128   C     0.99341   0.17642   0.23853   0.00000  Uiso   1.00
C129   C     0.67430   0.15685   0.26242   0.00000  Uiso   1.00
C130   C     0.76650   0.21797   0.42137   0.00000  Uiso   1.00
C131   C     0.84983   0.32280   0.24058   0.00000  Uiso   1.00
C132   C     0.81785   0.01213   0.26096   0.00000  Uiso   1.00
C133   C     0.82255   0.05620   0.25871   0.00000  Uiso   1.00
C134   C     0.84386   0.27778   0.24168   0.00000  Uiso   1.00
C135   C     0.85480   0.14546   0.14397   0.00000  Uiso   1.00
C136   C     0.81182   0.18769   0.35622   0.00000  Uiso   1.00
C137   C     0.80147   0.19620   0.39952   0.00000  Uiso   1.00
C138   C     0.86272   0.13874   0.10129   0.00000  Uiso   1.00
C139   C     0.75509   0.22227   0.46247   0.00000  Uiso   1.00
C140   C     0.82633   0.18152   0.41937   0.00000  Uiso   1.00
C141   C     0.81828   0.18954   0.46051   0.00000  Uiso   1.00
C142   C     0.77965   0.20653   0.48234   0.00000  Uiso   1.00
C143   C     0.84505   0.17673   0.48060   0.00000  Uiso   1.00
C144   C     0.82901   0.17445   0.02184   0.00000  Uiso   1.00
C145   C     0.78712   0.18508   0.04175   0.00000  Uiso   1.00
C146   C     0.76445   0.20399   0.02305   0.00000  Uiso   1.00
F147   F     0.72532   0.21563   0.04426   0.00000  Uiso   1.00
F148   F     0.92532   0.07528   0.01745   0.00000  Uiso   1.00
F149   F     0.77821   0.32748   0.28026   0.00000  Uiso   1.00
F150   F     0.71923   0.24076   0.48260   0.00000  Uiso   1.00
F151   F     0.74154   0.23283   0.40326   0.00000  Uiso   1.00
F152   F     0.76599   0.17361   0.07828   0.00000  Uiso   1.00
H153   H     0.85086   0.16205   0.40260   0.00000  Uiso   1.00
I154   I     0.70365   0.21308   0.19505   0.00000  Uiso   1.00
I155   I     0.97159   0.11735   0.30690   0.00000  Uiso   1.00
I156   I     0.91066   0.01719   0.20701   0.00000  Uiso   1.00
I157   I     0.83118   0.22561   0.11343   0.00000  Uiso   1.00
I158   I     0.90819   0.06393   0.10658   0.00000  Uiso   1.00
I159   I     0.96307   0.11355   0.44385   0.00000  Uiso   1.00
I160   I     0.92905   0.19904   0.41382   0.00000  Uiso   1.00
O161   O     0.83333   0.16667   0.25000   0.00000  Uiso   1.00
O162   O     0.82360   0.12393   0.16625   0.00000  Uiso   1.00
O163   O     0.79354   0.20646   0.33749   0.00000  Uiso   1.00
O164   O     0.87755   0.17493   0.15877   0.00000  Uiso   1.00
O165   O     0.83865   0.16135   0.33749   0.00000  Uiso   1.00
O166   O     0.84515   0.08101   0.27820   0.00000  Uiso   1.00
O167   O     0.81247   0.26136   0.26767   0.00000  Uiso   1.00
O168   O     0.74119   0.13251   0.23607   0.00000  Uiso   1.00
O169   O     0.93452   0.19179   0.21805   0.00000  Uiso   1.00
O170   O     0.73656   0.18960   0.27820   0.00000  Uiso   1.00
O171   O     0.92106   0.15277   0.26767   0.00000  Uiso   1.00
O172   O     0.80467   0.06903   0.23607   0.00000  Uiso   1.00
O173   O     0.87104   0.25527   0.21805   0.00000  Uiso   1.00
Zn174  Zn    0.85910   0.14090   0.28277   0.00000  Uiso   1.00
Zn175  Zn    0.80125   0.12378   0.22257   0.00000  Uiso   1.00
Zn176  Zn    0.87833   0.19664   0.21188   0.00000  Uiso   1.00
Zn177  Zn    0.79465   0.20535   0.28277   0.00000  Uiso   1.00
C178   C     0.05282   0.49352   0.25831   0.00000  Uiso   1.00
C179   C     0.22031   0.49868   0.46105   0.00000  Uiso   1.00
C180   C     0.23809   0.47200   0.47820   0.00000  Uiso   1.00
C181   C     0.28100   0.50685   0.24134   0.00000  Uiso   1.00
C182   C     0.21944   0.46614   0.01856   0.00000  Uiso   1.00
C183   C     0.18705   0.49121   0.04129   0.00000  Uiso   1.00
C184   C     0.23355   0.43850   0.03788   0.00000  Uiso   1.00
C185   C     0.22015   0.44021   0.07906   0.00000  Uiso   1.00
C186   C     0.18140   0.49922   0.08236   0.00000  Uiso   1.00
C187   C     0.32674   0.50975   0.23853   0.00000  Uiso   1.00
C188   C     0.00764   0.49018   0.26242   0.00000  Uiso   1.00
C189   C     0.09984   0.55131   0.42137   0.00000  Uiso   1.00
C190   C     0.18316   0.65613   0.24058   0.00000  Uiso   1.00
C191   C     0.15118   0.34547   0.26096   0.00000  Uiso   1.00
C192   C     0.15588   0.38954   0.25871   0.00000  Uiso   1.00
C193   C     0.17719   0.61112   0.24168   0.00000  Uiso   1.00
C194   C     0.18813   0.47880   0.14397   0.00000  Uiso   1.00
C195   C     0.14515   0.52103   0.35622   0.00000  Uiso   1.00
C196   C     0.13481   0.52953   0.39952   0.00000  Uiso   1.00
C197   C     0.19605   0.47207   0.10129   0.00000  Uiso   1.00
C198   C     0.08842   0.55561   0.46247   0.00000  Uiso   1.00
C199   C     0.15967   0.51485   0.41937   0.00000  Uiso   1.00
C200   C     0.15162   0.52288   0.46051   0.00000  Uiso   1.00
C201   C     0.11298   0.53986   0.48234   0.00000  Uiso   1.00
C202   C     0.17838   0.51006   0.48060   0.00000  Uiso   1.00
C203   C     0.16234   0.50778   0.02184   0.00000  Uiso   1.00
C204   C     0.12045   0.51841   0.04175   0.00000  Uiso   1.00
C205   C     0.09778   0.53732   0.02305   0.00000  Uiso   1.00
F206   F     0.05865   0.54896   0.04426   0.00000  Uiso   1.00
F207   F     0.25865   0.40861   0.01745   0.00000  Uiso   1.00
F208   F     0.11154   0.66082   0.28026   0.00000  Uiso   1.00
F209   F     0.05256   0.57409   0.48260   0.00000  Uiso   1.00
F210   F     0.07487   0.56617   0.40326   0.00000  Uiso   1.00
F211   F     0.09932   0.50695   0.07828   0.00000  Uiso   1.00
H212   H     0.18420   0.49538   0.40260   0.00000  Uiso   1.00
I213   I     0.03698   0.54641   0.19505   0.00000  Uiso   1.00
I214   I     0.30493   0.45068   0.30690   0.00000  Uiso   1.00
I215   I     0.24400   0.35053   0.20701   0.00000  Uiso   1.00
I216   I     0.16451   0.55894   0.11343   0.00000  Uiso   1.00
I217   I     0.24152   0.39726   0.10658   0.00000  Uiso   1.00
I218   I     0.29641   0.44689   0.44385   0.00000  Uiso   1.00
I219   I     0.26239   0.53237   0.41382   0.00000  Uiso   1.00
O220   O     0.16667   0.50000   0.25000   0.00000  Uiso   1.00
O221   O     0.15693   0.45726   0.16625   0.00000  Uiso   1.00
O222   O     0.12687   0.53979   0.33749   0.00000  Uiso   1.00
O223   O     0.21088   0.50826   0.15877   0.00000  Uiso   1.00
O224   O     0.17198   0.49468   0.33749   0.00000  Uiso   1.00
O225   O     0.17849   0.41434   0.27820   0.00000  Uiso   1.00
O226   O     0.14581   0.59469   0.26767   0.00000  Uiso   1.00
O227   O     0.07452   0.46584   0.23607   0.00000  Uiso   1.00
O228   O     0.26785   0.52512   0.21805   0.00000  Uiso   1.00
O229   O     0.06990   0.52293   0.27820   0.00000  Uiso   1.00
O230   O     0.25440   0.48610   0.26767   0.00000  Uiso   1.00
O231   O     0.13800   0.40236   0.23607   0.00000  Uiso   1.00
O232   O     0.20437   0.58860   0.21805   0.00000  Uiso   1.00
Zn233  Zn    0.19244   0.47423   0.28277   0.00000  Uiso   1.00
Zn234  Zn    0.13459   0.45711   0.22257   0.00000  Uiso   1.00
Zn235  Zn    0.21166   0.52997   0.21188   0.00000  Uiso   1.00
Zn236  Zn    0.12798   0.53868   0.28277   0.00000  Uiso   1.00
C237   C     0.38615   0.49352   0.25831   0.00000  Uiso   1.00
C238   C     0.55365   0.49868   0.46105   0.00000  Uiso   1.00
C239   C     0.57142   0.47200   0.47820   0.00000  Uiso   1.00
C240   C     0.61434   0.50685   0.24134   0.00000  Uiso   1.00
C241   C     0.55278   0.46614   0.01856   0.00000  Uiso   1.00
C242   C     0.52038   0.49121   0.04129   0.00000  Uiso   1.00
C243   C     0.56689   0.43850   0.03788   0.00000  Uiso   1.00
C244   C     0.55348   0.44021   0.07906   0.00000  Uiso   1.00
C245   C     0.51473   0.49922   0.08236   0.00000  Uiso   1.00
C246   C     0.66007   0.50975   0.23853   0.00000  Uiso   1.00
C247   C     0.34097   0.49018   0.26242   0.00000  Uiso   1.00
C248   C     0.43317   0.55131   0.42137   0.00000  Uiso   1.00
C249   C     0.51649   0.65613   0.24058   0.00000  Uiso   1.00
C250   C     0.48451   0.34547   0.26096   0.00000  Uiso   1.00
C251   C     0.48922   0.38954   0.25871   0.00000  Uiso   1.00
C252   C     0.51052   0.61112   0.24168   0.00000  Uiso   1.00
C253   C     0.52147   0.47880   0.14397   0.00000  Uiso   1.00
C254   C     0.47849   0.52103   0.35622   0.00000  Uiso   1.00
C255   C     0.46814   0.52953   0.39952   0.00000  Uiso   1.00
C256   C     0.52939   0.47207   0.10129   0.00000  Uiso   1.00
C257   C     0.42175   0.55561   0.46247   0.00000  Uiso   1.00
C258   C     0.49300   0.51485   0.41937   0.00000  Uiso   1.00
C259   C     0.48495   0.52288   0.46051   0.00000  Uiso   1.00
C260   C     0.44632   0.53986   0.48234   0.00000  Uiso   1.00
C261   C     0.51171   0.51006   0.48060   0.00000  Uiso   1.00
C262   C     0.49568   0.50778   0.02184   0.00000  Uiso   1.00
C263   C     0.45378   0.51841   0.04175   0.00000  Uiso   1.00
C264   C     0.43112   0.53732   0.02305   0.00000  Uiso   1.00
F265   F     0.39199   0.54896   0.04426   0.00000  Uiso   1.00
F266   F     0.59198   0.40861   0.01745   0.00000  Uiso   1.00
F267   F     0.44488   0.66082   0.28026   0.00000  Uiso   1.00
F268   F     0.38590   0.57409   0.48260   0.00000  Uiso   1.00
F269   F     0.40820   0.56617   0.40326   0.00000  Uiso   1.00
F270   F     0.43266   0.50695   0.07828   0.00000  Uiso   1.00
H271   H     0.51753   0.49538   0.40260   0.00000  Uiso   1.00
I272   I     0.37032   0.54641   0.19505   0.00000  Uiso   1.00
I273   I     0.63826   0.45068   0.30690   0.00000  Uiso   1.00
I274   I     0.57733   0.35053   0.20701   0.00000  Uiso   1.00
I275   I     0.49785   0.55894   0.11343   0.00000  Uiso   1.00
I276   I     0.57485   0.39726   0.10658   0.00000  Uiso   1.00
I277   I     0.62974   0.44689   0.44385   0.00000  Uiso   1.00
I278   I     0.59572   0.53237   0.41382   0.00000  Uiso   1.00
O279   O     0.50000   0.50000   0.25000   0.00000  Uiso   1.00
O280   O     0.49027   0.45726   0.16625   0.00000  Uiso   1.00
O281   O     0.46020   0.53979   0.33749   0.00000  Uiso   1.00
O282   O     0.54421   0.50826   0.15877   0.00000  Uiso   1.00
O283   O     0.50532   0.49468   0.33749   0.00000  Uiso   1.00
O284   O     0.51182   0.41434   0.27820   0.00000  Uiso   1.00
O285   O     0.47914   0.59469   0.26767   0.00000  Uiso   1.00
O286   O     0.40785   0.46584   0.23607   0.00000  Uiso   1.00
O287   O     0.60119   0.52512   0.21805   0.00000  Uiso   1.00
O288   O     0.40323   0.52293   0.27820   0.00000  Uiso   1.00
O289   O     0.58773   0.48610   0.26767   0.00000  Uiso   1.00
O290   O     0.47133   0.40236   0.23607   0.00000  Uiso   1.00
O291   O     0.53771   0.58860   0.21805   0.00000  Uiso   1.00
Zn292  Zn    0.52577   0.47423   0.28277   0.00000  Uiso   1.00
Zn293  Zn    0.46792   0.45711   0.22257   0.00000  Uiso   1.00
Zn294  Zn    0.54500   0.52997   0.21188   0.00000  Uiso   1.00
Zn295  Zn    0.46131   0.53868   0.28277   0.00000  Uiso   1.00
C296   C     0.71948   0.49352   0.25831   0.00000  Uiso   1.00
C297   C     0.88698   0.49868   0.46105   0.00000  Uiso   1.00
C298   C     0.90476   0.47200   0.47820   0.00000  Uiso   1.00
C299   C     0.94767   0.50685   0.24134   0.00000  Uiso   1.00
C300   C     0.88611   0.46614   0.01856   0.00000  Uiso   1.00
C301   C     0.85371   0.49121   0.04129   0.00000  Uiso   1.00
C302   C     0.90022   0.43850   0.03788   0.00000  Uiso   1.00
C303   C     0.88681   0.44021   0.07906   0.00000  Uiso   1.00
C304   C     0.84807   0.49922   0.08236   0.00000  Uiso   1.00
C305   C     0.99341   0.50975   0.23853   0.00000  Uiso   1.00
C306   C     0.67430   0.49018   0.26242   0.00000  Uiso   1.00
C307   C     0.76650   0.55131   0.42137   0.00000  Uiso   1.00
C308   C     0.84983   0.65613   0.24058   0.00000  Uiso   1.00
C309   C     0.81785   0.34547   0.26096   0.00000  Uiso   1.00
C310   C     0.82255   0.38954   0.25871   0.00000  Uiso   1.00
C311   C     0.84386   0.61112   0.24168   0.00000  Uiso   1.00
C312   C     0.85480   0.47880   0.14397   0.00000  Uiso   1.00
C313   C     0.81182   0.52103   0.35622   0.00000  Uiso   1.00
C314   C     0.80147   0.52953   0.39952   0.00000  Uiso   1.00
C315   C     0.86272   0.47207   0.10129   0.00000  Uiso   1.00
C316   C     0.75509   0.55561   0.46247   0.00000  Uiso   1.00
C317   C     0.82633   0.51485   0.41937   0.00000  Uiso   1.00
C318   C     0.81828   0.52288   0.46051   0.00000  Uiso   1.00
C319   C     0.77965   0.53986   0.48234   0.00000  Uiso   1.00
C320   C     0.84505   0.51006   0.48060   0.00000  Uiso   1.00
C321   C     0.82901   0.50778   0.02184   0.00000  Uiso   1.00
C322   C     0.78712   0.51841   0.04175   0.00000  Uiso   1.00
C323   C     0.76445   0.53732   0.02305   0.00000  Uiso   1.00
F324   F     0.72532   0.54896   0.04426   0.00000  Uiso   1.00
F325   F     0.92532   0.40861   0.01745   0.00000  Uiso   1.00
F326   F     0.77821   0.66082   0.28026   0.00000  Uiso   1.00
F327   F     0.71923   0.57409   0.48260   0.00000  Uiso   1.00
F328   F     0.74154   0.56617   0.40326   0.00000  Uiso   1.00
F329   F     0.76599   0.50695   0.07828   0.00000  Uiso   1.00
H330   H     0.85086   0.49538   0.40260   0.00000  Uiso   1.00
I331   I     0.70365   0.54641   0.19505   0.00000  Uiso   1.00
I332   I     0.97159   0.45068   0.30690   0.00000  Uiso   1.00
I333   I     0.91066   0.35053   0.20701   0.00000  Uiso   1.00
I334   I     0.83118   0.55894   0.11343   0.00000  Uiso   1.00
I335   I     0.90819   0.39726   0.10658   0.00000  Uiso   1.00
I336   I     0.96307   0.44689   0.44385   0.00000  Uiso   1.00
I337   I     0.92905   0.53237   0.41382   0.00000  Uiso   1.00
O338   O     0.83333   0.50000   0.25000   0.00000  Uiso   1.00
O339   O     0.82360   0.45726   0.16625   0.00000  Uiso   1.00
O340   O     0.79354   0.53979   0.33749   0.00000  Uiso   1.00
O341   O     0.87755   0.50826   0.15877   0.00000  Uiso   1.00
O342   O     0.83865   0.49468   0.33749   0.00000  Uiso   1.00
O343   O     0.84515   0.41434   0.27820   0.00000  Uiso   1.00
O344   O     0.81247   0.59469   0.26767   0.00000  Uiso   1.00
O345   O     0.74119   0.46584   0.23607   0.00000  Uiso   1.00
O346   O     0.93452   0.52512   0.21805   0.00000  Uiso   1.00
O347   O     0.73656   0.52293   0.27820   0.00000  Uiso   1.00
O348   O     0.92106   0.48610   0.26767   0.00000  Uiso   1.00
O349   O     0.80467   0.40236   0.23607   0.00000  Uiso   1.00
O350   O     0.87104   0.58860   0.21805   0.00000  Uiso   1.00
Zn351  Zn    0.85910   0.47423   0.28277   0.00000  Uiso   1.00
Zn352  Zn    0.80125   0.45711   0.22257   0.00000  Uiso   1.00
Zn353  Zn    0.87833   0.52997   0.21188   0.00000  Uiso   1.00
Zn354  Zn    0.79465   0.53868   0.28277   0.00000  Uiso   1.00
C355   C     0.05282   0.82686   0.25831   0.00000  Uiso   1.00
C356   C     0.22031   0.83201   0.46105   0.00000  Uiso   1.00
C357   C     0.23809   0.80534   0.47820   0.00000  Uiso   1.00
C358   C     0.28100   0.84018   0.24134   0.00000  Uiso   1.00
C359   C     0.21944   0.79948   0.01856   0.00000  Uiso   1.00
C360   C     0.18705   0.82454   0.04129   0.00000  Uiso   1.00
C361   C     0.23355   0.77183   0.03788   0.00000  Uiso   1.00
C362   C     0.22015   0.77354   0.07906   0.00000  Uiso   1.00
C363   C     0.18140   0.83255   0.08236   0.00000  Uiso   1.00
C364   C     0.32674   0.84308   0.23853   0.00000  Uiso   1.00
C365   C     0.00764   0.82351   0.26242   0.00000  Uiso   1.00
C366   C     0.09984   0.88464   0.42137   0.00000  Uiso   1.00
C367   C     0.18316   0.98947   0.24058   0.00000  Uiso   1.00
C368   C     0.15118   0.67880   0.26096   0.00000  Uiso   1.00
C369   C     0.15588   0.72287   0.25871   0.00000  Uiso   1.00
C370   C     0.17719   0.94445   0.24168   0.00000  Uiso   1.00
C371   C     0.18813   0.81213   0.14397   0.00000  Uiso   1.00
C372   C     0.14515   0.85436   0.35622   0.00000  Uiso   1.00
C373   C     0.13481   0.86287   0.39952   0.00000  Uiso   1.00
C374   C     0.19605   0.80541   0.10129   0.00000  Uiso   1.00
C375   C     0.08842   0.88894   0.46247   0.00000  Uiso   1.00
C376   C     0.15967   0.84818   0.41937   0.00000  Uiso   1.00
C377   C     0.15162   0.85621   0.46051   0.00000  Uiso   1.00
C378   C     0.11298   0.87319   0.48234   0.00000  Uiso   1.00
C379   C     0.17838   0.84340   0.48060   0.00000  Uiso   1.00
C380   C     0.16234   0.84111   0.02184   0.00000  Uiso   1.00
C381   C     0.12045   0.85174   0.04175   0.00000  Uiso   1.00
C382   C     0.09778   0.87065   0.02305   0.00000  Uiso   1.00
F383   F     0.05865   0.88230   0.04426   0.00000  Uiso   1.00
F384   F     0.25865   0.74194   0.01745   0.00000  Uiso   1.00
F385   F     0.11154   0.99415   0.28026   0.00000  Uiso   1.00
F386   F     0.05256   0.90742   0.48260   0.00000  Uiso   1.00
F387   F     0.07487   0.89950   0.40326   0.00000  Uiso   1.00
F388   F     0.09932   0.84028   0.07828   0.00000  Uiso   1.00
H389   H     0.18420   0.82872   0.40260   0.00000  Uiso   1.00
I390   I     0.03698   0.87974   0.19505   0.00000  Uiso   1.00
I391   I     0.30493   0.78401   0.30690   0.00000  Uiso   1.00
I392   I     0.24400   0.68386   0.20701   0.00000  Uiso   1.00
I393   I     0.16451   0.89227   0.11343   0.00000  Uiso   1.00
I394   I     0.24152   0.73059   0.10658   0.00000  Uiso   1.00
I395   I     0.29641   0.78022   0.44385   0.00000  Uiso   1.00
I396   I     0.26239   0.86570   0.41382   0.00000  Uiso   1.00
O397   O     0.16667   0.83333   0.25000   0.00000  Uiso   1.00
O398   O     0.15693   0.79060   0.16625   0.00000  Uiso   1.00
O399   O     0.12687   0.87313   0.33749   0.00000  Uiso   1.00
O400   O     0.21088   0.84159   0.15877   0.00000  Uiso   1.00
O401   O     0.17198   0.82802   0.33749   0.00000  Uiso   1.00
O402   O     0.17849   0.74768   0.27820   0.00000  Uiso   1.00
O403   O     0.14581   0.92803   0.26767   0.00000  Uiso   1.00
O404   O     0.07452   0.79917   0.23607   0.00000  Uiso   1.00
O405   O     0.26785   0.85845   0.21805   0.00000  Uiso   1.00
O406   O     0.06990   0.85627   0.27820   0.00000  Uiso   1.00
O407   O     0.25440   0.81944   0.26767   0.00000  Uiso   1.00
O408   O     0.13800   0.73570   0.23607   0.00000  Uiso   1.00
O409   O     0.20437   0.92193   0.21805   0.00000  Uiso   1.00
Zn410  Zn    0.19244   0.80756   0.28277   0.00000  Uiso   1.00
Zn411  Zn    0.13459   0.79044   0.22257   0.00000  Uiso   1.00
Zn412  Zn    0.21166   0.86331   0.21188   0.00000  Uiso   1.00
Zn413  Zn    0.12798   0.87202   0.28277   0.00000  Uiso   1.00
C414   C     0.38615   0.82686   0.25831   0.00000  Uiso   1.00
C415   C     0.55365   0.83201   0.46105   0.00000  Uiso   1.00
C416   C     0.57142   0.80534   0.47820   0.00000  Uiso   1.00
C417   C     0.61434   0.84018   0.24134   0.00000  Uiso   1.00
C418   C     0.55278   0.79948   0.01856   0.00000  Uiso   1.00
C419   C     0.52038   0.82454   0.04129   0.00000  Uiso   1.00
C420   C     0.56689   0.77183   0.03788   0.00000  Uiso   1.00
C421   C     0.55348   0.77354   0.07906   0.00000  Uiso   1.00
C422   C     0.51473   0.83255   0.08236   0.00000  Uiso   1.00
C423   C     0.66007   0.84308   0.23853   0.00000  Uiso   1.00
C424   C     0.34097   0.82351   0.26242   0.00000  Uiso   1.00
C425   C     0.43317   0.88464   0.42137   0.00000  Uiso   1.00
C426   C     0.51649   0.98947   0.24058   0.00000  Uiso   1.00
C427   C     0.48451   0.67880   0.26096   0.00000  Uiso   1.00
C428   C     0.48922   0.72287   0.25871   0.00000  Uiso   1.00
C429   C     0.51052   0.94445   0.24168   0.00000  Uiso   1.00
C430   C     0.52147   0.81213   0.14397   0.00000  Uiso   1.00
C431   C     0.47849   0.85436   0.35622   0.00000  Uiso   1.00
C432   C     0.46814   0.86287   0.39952   0.00000  Uiso   1.00
C433   C     0.52939   0.80541   0.10129   0.00000  Uiso   1.00
C434   C     0.42175   0.88894   0.46247   0.00000  Uiso   1.00
C435   C     0.49300   0.84818   0.41937   0.00000  Uiso   1.00
C436   C     0.48495   0.85621   0.46051   0.00000  Uiso   1.00
C437   C     0.44632   0.87319   0.48234   0.00000  Uiso   1.00
C438   C     0.51171   0.84340   0.48060   0.00000  Uiso   1.00
C439   C     0.49568   0.84111   0.02184   0.00000  Uiso   1.00
C440   C     0.45378   0.85174   0.04175   0.00000  Uiso   1.00
C441   C     0.43112   0.87065   0.02305   0.00000  Uiso   1.00
F442   F     0.39199   0.88230   0.04426   0.00000  Uiso   1.00
F443   F     0.59198   0.74194   0.01745   0.00000  Uiso   1.00
F444   F     0.44488   0.99415   0.28026   0.00000  Uiso   1.00
F445   F     0.38590   0.90742   0.48260   0.00000  Uiso   1.00
F446   F     0.40820   0.89950   0.40326   0.00000  Uiso   1.00
F447   F     0.43266   0.84028   0.07828   0.00000  Uiso   1.00
H448   H     0.51753   0.82872   0.40260   0.00000  Uiso   1.00
I449   I     0.37032   0.87974   0.19505   0.00000  Uiso   1.00
I450   I     0.63826   0.78401   0.30690   0.00000  Uiso   1.00
I451   I     0.57733   0.68386   0.20701   0.00000  Uiso   1.00
I452   I     0.49785   0.89227   0.11343   0.00000  Uiso   1.00
I453   I     0.57485   0.73059   0.10658   0.00000  Uiso   1.00
I454   I     0.62974   0.78022   0.44385   0.00000  Uiso   1.00
I455   I     0.59572   0.86570   0.41382   0.00000  Uiso   1.00
O456   O     0.50000   0.83333   0.25000   0.00000  Uiso   1.00
O457   O     0.49027   0.79060   0.16625   0.00000  Uiso   1.00
O458   O     0.46020   0.87313   0.33749   0.00000  Uiso   1.00
O459   O     0.54421   0.84159   0.15877   0.00000  Uiso   1.00
O460   O     0.50532   0.82802   0.33749   0.00000  Uiso   1.00
O461   O     0.51182   0.74768   0.27820   0.00000  Uiso   1.00
O462   O     0.47914   0.92803   0.26767   0.00000  Uiso   1.00
O463   O     0.40785   0.79917   0.23607   0.00000  Uiso   1.00
O464   O     0.60119   0.85845   0.21805   0.00000  Uiso   1.00
O465   O     0.40323   0.85627   0.27820   0.00000  Uiso   1.00
O466   O     0.58773   0.81944   0.26767   0.00000  Uiso   1.00
O467   O     0.47133   0.73570   0.23607   0.00000  Uiso   1.00
O468   O     0.53771   0.92193   0.21805   0.00000  Uiso   1.00
Zn469  Zn    0.52577   0.80756   0.28277   0.00000  Uiso   1.00
Zn470  Zn    0.46792   0.79044   0.22257   0.00000  Uiso   1.00
Zn471  Zn    0.54500   0.86331   0.21188   0.00000  Uiso   1.00
Zn472  Zn    0.46131   0.87202   0.28277   0.00000  Uiso   1.00
C473   C     0.71948   0.82686   0.25831   0.00000  Uiso   1.00
C474   C     0.88698   0.83201   0.46105   0.00000  Uiso   1.00
C475   C     0.90476   0.80534   0.47820   0.00000  Uiso   1.00
C476   C     0.94767   0.84018   0.24134   0.00000  Uiso   1.00
C477   C     0.88611   0.79948   0.01856   0.00000  Uiso   1.00
C478   C     0.85371   0.82454   0.04129   0.00000  Uiso   1.00
C479   C     0.90022   0.77183   0.03788   0.00000  Uiso   1.00
C480   C     0.88681   0.77354   0.07906   0.00000  Uiso   1.00
C481   C     0.84807   0.83255   0.08236   0.00000  Uiso   1.00
C482   C     0.99341   0.84308   0.23853   0.00000  Uiso   1.00
C483   C     0.67430   0.82351   0.26242   0.00000  Uiso   1.00
C484   C     0.76650   0.88464   0.42137   0.00000  Uiso   1.00
C485   C     0.84983   0.98947   0.24058   0.00000  Uiso   1.00
C486   C     0.81785   0.67880   0.26096   0.00000  Uiso   1.00
C487   C     0.82255   0.72287   0.25871   0.00000  Uiso   1.00
C488   C     0.84386   0.94445   0.24168   0.00000  Uiso   1.00
C489   C     0.85480   0.81213   0.14397   0.00000  Uiso   1.00
C490   C     0.81182   0.85436   0.35622   0.00000  Uiso   1.00
C491   C     0.80147   0.86287   0.39952   0.00000  Uiso   1.00
C492   C     0.86272   0.80541   0.10129   0.00000  Uiso   1.00
C493   C     0.75509   0.88894   0.46247   0.00000  Uiso   1.00
C494   C     0.82633   0.84818   0.41937   0.00000  Uiso   1.00
C495   C     0.81828   0.85621   0.46051   0.00000  Uiso   1.00
C496   C     0.77965   0.87319   0.48234   0.00000  Uiso   1.00
C497   C     0.84505   0.84340   0.48060   0.00000  Uiso   1.00
C498   C     0.82901   0.84111   0.02184   0.00000  Uiso   1.00
C499   C     0.78712   0.85174   0.04175   0.00000  Uiso   1.00
C500   C     0.76445   0.87065   0.02305   0.00000  Uiso   1.00
F501   F     0.72532   0.88230   0.04426   0.00000  Uiso   1.00
F502   F     0.92532   0.74194   0.01745   0.00000  Uiso   1.00
F503   F     0.77821   0.99415   0.28026   0.00000  Uiso   1.00
F504   F     0.71923   0.90742   0.48260   0.00000  Uiso   1.00
F505   F     0.74154   0.89950   0.40326   0.00000  Uiso   1.00
F506   F     0.76599   0.84028   0.07828   0.00000  Uiso   1.00
H507   H     0.85086   0.82872   0.40260   0.00000  Uiso   1.00
I508   I     0.70365   0.87974   0.19505   0.00000  Uiso   1.00
I509   I     0.97159   0.78401   0.30690   0.00000  Uiso   1.00
I510   I     0.91066   0.68386   0.20701   0.00000  Uiso   1.00
I511   I     0.83118   0.89227   0.11343   0.00000  Uiso   1.00
I512   I     0.90819   0.73059   0.10658   0.00000  Uiso   1.00
I513   I     0.96307   0.78022   0.44385   0.00000  Uiso   1.00
I514   I     0.92905   0.86570   0.41382   0.00000  Uiso   1.00
O515   O     0.83333   0.83333   0.25000   0.00000  Uiso   1.00
O516   O     0.82360   0.79060   0.16625   0.00000  Uiso   1.00
O517   O     0.79354   0.87313   0.33749   0.00000  Uiso   1.00
O518   O     0.87755   0.84159   0.15877   0.00000  Uiso   1.00
O519   O     0.83865   0.82802   0.33749   0.00000  Uiso   1.00
O520   O     0.84515   0.74768   0.27820   0.00000  Uiso   1.00
O521   O     0.81247   0.92803   0.26767   0.00000  Uiso   1.00
O522   O     0.74119   0.79917   0.23607   0.00000  Uiso   1.00
O523   O     0.93452   0.85845   0.21805   0.00000  Uiso   1.00
O524   O     0.73656   0.85627   0.27820   0.00000  Uiso   1.00
O525   O     0.92106   0.81944   0.26767   0.00000  Uiso   1.00
O526   O     0.80467   0.73570   0.23607   0.00000  Uiso   1.00
O527   O     0.87104   0.92193   0.21805   0.00000  Uiso   1.00
Zn528  Zn    0.85910   0.80756   0.28277   0.00000  Uiso   1.00
Zn529  Zn    0.80125   0.79044   0.22257   0.00000  Uiso   1.00
Zn530  Zn    0.87833   0.86331   0.21188   0.00000  Uiso   1.00
Zn531  Zn    0.79465   0.87202   0.28277   0.00000  Uiso   1.00
C532   C     0.05282   0.16019   0.75831   0.00000  Uiso   1.00
C533   C     0.22031   0.16535   0.96105   0.00000  Uiso   1.00
C534   C     0.23809   0.13867   0.97820   0.00000  Uiso   1.00
C535   C     0.28100   0.17352   0.74134   0.00000  Uiso   1.00
C536   C     0.21944   0.13281   0.51856   0.00000  Uiso   1.00
C537   C     0.18705   0.15787   0.54129   0.00000  Uiso   1.00
C538   C     0.23355   0.10516   0.53788   0.00000  Uiso   1.00
C539   C     0.22015   0.10687   0.57906   0.00000  Uiso   1.00
C540   C     0.18140   0.16588   0.58236   0.00000  Uiso   1.00
C541   C     0.32674   0.17642   0.73853   0.00000  Uiso   1.00
C542   C     0.00764   0.15685   0.76242   0.00000  Uiso   1.00
C543   C     0.09984   0.21797   0.92137   0.00000  Uiso   1.00
C544   C     0.18316   0.32280   0.74058   0.00000  Uiso   1.00
C545   C     0.15118   0.01213   0.76096   0.00000  Uiso   1.00
C546   C     0.15588   0.05620   0.75871   0.00000  Uiso   1.00
C547   C     0.17719   0.27778   0.74168   0.00000  Uiso   1.00
C548   C     0.18813   0.14546   0.64397   0.00000  Uiso   1.00
C549   C     0.14515   0.18769   0.85622   0.00000  Uiso   1.00
C550   C     0.13481   0.19620   0.89952   0.00000  Uiso   1.00
C551   C     0.19605   0.13874   0.60129   0.00000  Uiso   1.00
C552   C     0.08842   0.22227   0.96247   0.00000  Uiso   1.00
C553   C     0.15967   0.18152   0.91937   0.00000  Uiso   1.00
C554   C     0.15162   0.18954   0.96051   0.00000  Uiso   1.00
C555   C     0.11298   0.20653   0.98234   0.00000  Uiso   1.00
C556   C     0.17838   0.17673   0.98060   0.00000  Uiso   1.00
C557   C     0.16234   0.17445   0.52184   0.00000  Uiso   1.00
C558   C     0.12045   0.18508   0.54175   0.00000  Uiso   1.00
C559   C     0.09778   0.20399   0.52305   0.00000  Uiso   1.00
F560   F     0.05865   0.21563   0.54426   0.00000  Uiso   1.00
F561   F     0.25865   0.07528   0.51745   0.00000  Uiso   1.00
F562   F     0.11154   0.32748   0.78026   0.00000  Uiso   1.00
F563   F     0.05256   0.24076   0.98260   0.00000  Uiso   1.00
F564   F     0.07487   0.23283   0.90326   0.00000  Uiso   1.00
F565   F     0.09932   0.17361   0.57828   0.00000  Uiso   1.00
H566   H     0.18420   0.16205   0.90260   0.00000  Uiso   1.00
I567   I     0.03698   0.21308   0.69505   0.00000  Uiso   1.00
I568   I     0.30493   0.11735   0.80690   0.00000  Uiso   1.00
I569   I     0.24400   0.01719   0.70701   0.00000  Uiso   1.00
I570   I     0.16451   0.22561   0.61343   0.00000  Uiso   1.00
I571   I     0.24152   0.06393   0.60658   0.00000  Uiso   1.00
I572   I     0.29641   0.11355   0.94385   0.00000  Uiso   1.00
I573   I     0.26239   0.19904   0.91382   0.00000  Uiso   1.00
O574   O     0.16667   0.16667   0.75000   0.00000  Uiso   1.00
O575   O     0.15693   0.12393   0.66625   0.00000  Uiso   1.00
O576   O     0.12687   0.20646   0.83749   0.00000  Uiso   1.00
O577   O     0.21088   0.17493   0.65877   0.00000  Uiso   1.00
O578   O     0.17198   0.16135   0.83749   0.00000  Uiso   1.00
O579   O     0.17849   0.08101   0.77820   0.00000  Uiso   1.00
O580   O     0.14581   0.26136   0.76767   0.00000  Uiso   1.00
O581   O     0.07452   0.13251   0.73607   0.00000  Uiso   1.00
O582   O     0.26785   0.19179   0.71805   0.00000  Uiso   1.00
O583   O     0.06990   0.18960   0.77820   0.00000  Uiso   1.00
O584   O     0.25440   0.15277   0.76767   0.00000  Uiso   1.00
O585   O     0.13800   0.06903   0.73607   0.00000  Uiso   1.00
O586   O     0.20437   0.25527   0.71805   0.00000  Uiso   1.00
Zn587  Zn    0.19244   0.14090   0.78277   0.00000  Uiso   1.00
Zn588  Zn    0.13459   0.12378   0.72257   0.00000  Uiso   1.00
Zn589  Zn    0.21166   0.19664   0.71188   0.00000  Uiso   1.00
Zn590  Zn    0.12798   0.20535   0.78277   0.00000  Uiso   1.00
C591   C     0.38615   0.16019   0.75831   0.00000  Uiso   1.00
C592   C     0.55365   0.16535   0.96105   0.00000  Uiso   1.00
C593   C     0.57142   0.13867   0.97820   0.00000  Uiso   1.00
C594   C     0.61434   0.17352   0.74134   0.00000  Uiso   1.00
C595   C     0.55278   0.13281   0.51856   0.00000  Uiso   1.00
C596   C     0.52038   0.15787   0.54129   0.00000  Uiso   1.00
C597   C     0.56689   0.10516   0.53788   0.00000  Uiso   1.00
C598   C     0.55348   0.10687   0.57906   0.00000  Uiso   1.00
C599   C     0.51473   0.16588   0.58236   0.00000  Uiso   1.00
C600   C     0.66007   0.17642   0.73853   0.00000  Uiso   1.00
C601   C     0.34097   0.15685   0.76242   0.00000  Uiso   1.00
C602   C     0.43317   0.21797   0.92137   0.00000  Uiso   1.00
C603   C     0.51649   0.32280   0.74058   0.00000  Uiso   1.00
C604   C     0.48451   0.01213   0.76096   0.00000  Uiso   1.00
C605   C     0.48922   0.05620   0.75871   0.00000  Uiso   1.00
C606   C     0.51052   0.27778   0.74168   0.00000  Uiso   1.00
C607   C     0.52147   0.14546   0.64397   0.00000  Uiso   1.00
C608   C     0.47849   0.18769   0.85622   0.00000  Uiso   1.00
C609   C     0.46814   0.19620   0.89952   0.00000  Uiso   1.00
C610   C     0.52939   0.13874   0.60129   0.00000  Uiso   1.00
C611   C     0.42175   0.22227   0.96247   0.00000  Uiso   1.00
C612   C     0.49300   0.18152   0.91937   0.00000  Uiso   1.00
C613   C     0.48495   0.18954   0.96051   0.00000  Uiso   1.00
C614   C     0.44632   0.20653   0.98234   0.00000  Uiso   1.00
C615   C     0.51171   0.17673   0.98060   0.00000  Uiso   1.00
C616   C     0.49568   0.17445   0.52184   0.00000  Uiso   1.00
C617   C     0.45378   0.18508   0.54175   0.00000  Uiso   1.00
C618   C     0.43112   0.20399   0.52305   0.00000  Uiso   1.00
F619   F     0.39199   0.21563   0.54426   0.00000  Uiso   1.00
F620   F     0.59198   0.07528   0.51745   0.00000  Uiso   1.00
F621   F     0.44488   0.32748   0.78026   0.00000  Uiso   1.00
F622   F     0.38590   0.24076   0.98260   0.00000  Uiso   1.00
F623   F     0.40820   0.23283   0.90326   0.00000  Uiso   1.00
F624   F     0.43266   0.17361   0.57828   0.00000  Uiso   1.00
H625   H     0.51753   0.16205   0.90260   0.00000  Uiso   1.00
I626   I     0.37032   0.21308   0.69505   0.00000  Uiso   1.00
I627   I     0.63826   0.11735   0.80690   0.00000  Uiso   1.00
I628   I     0.57733   0.01719   0.70701   0.00000  Uiso   1.00
I629   I     0.49785   0.22561   0.61343   0.00000  Uiso   1.00
I630   I     0.57485   0.06393   0.60658   0.00000  Uiso   1.00
I631   I     0.62974   0.11355   0.94385   0.00000  Uiso   1.00
I632   I     0.59572   0.19904   0.91382   0.00000  Uiso   1.00
O633   O     0.50000   0.16667   0.75000   0.00000  Uiso   1.00
O634   O     0.49027   0.12393   0.66625   0.00000  Uiso   1.00
O635   O     0.46020   0.20646   0.83749   0.00000  Uiso   1.00
O636   O     0.54421   0.17493   0.65877   0.00000  Uiso   1.00
O637   O     0.50532   0.16135   0.83749   0.00000  Uiso   1.00
O638   O     0.51182   0.08101   0.77820   0.00000  Uiso   1.00
O639   O     0.47914   0.26136   0.76767   0.00000  Uiso   1.00
O640   O     0.40785   0.13251   0.73607   0.00000  Uiso   1.00
O641   O     0.60119   0.19179   0.71805   0.00000  Uiso   1.00
O642   O     0.40323   0.18960   0.77820   0.00000  Uiso   1.00
O643   O     0.58773   0.15277   0.76767   0.00000  Uiso   1.00
O644   O     0.47133   0.06903   0.73607   0.00000  Uiso   1.00
O645   O     0.53771   0.25527   0.71805   0.00000  Uiso   1.00
Zn646  Zn    0.52577   0.14090   0.78277   0.00000  Uiso   1.00
Zn647  Zn    0.46792   0.12378   0.72257   0.00000  Uiso   1.00
Zn648  Zn    0.54500   0.19664   0.71188   0.00000  Uiso   1.00
Zn649  Zn    0.46131   0.20535   0.78277   0.00000  Uiso   1.00
C650   C     0.71948   0.16019   0.75831   0.00000  Uiso   1.00
C651   C     0.88698   0.16535   0.96105   0.00000  Uiso   1.00
C652   C     0.90476   0.13867   0.97820   0.00000  Uiso   1.00
C653   C     0.94767   0.17352   0.74134   0.00000  Uiso   1.00
C654   C     0.88611   0.13281   0.51856   0.00000  Uiso   1.00
C655   C     0.85371   0.15787   0.54129   0.00000  Uiso   1.00
C656   C     0.90022   0.10516   0.53788   0.00000  Uiso   1.00
C657   C     0.88681   0.10687   0.57906   0.00000  Uiso   1.00
C658   C     0.84807   0.16588   0.58236   0.00000  Uiso   1.00
C659   C     0.99341   0.17642   0.73853   0.00000  Uiso   1.00
C660   C     0.67430   0.15685   0.76242   0.00000  Uiso   1.00
C661   C     0.76650   0.21797   0.92137   0.00000  Uiso   1.00
C662   C     0.84983   0.32280   0.74058   0.00000  Uiso   1.00
C663   C     0.81785   0.01213   0.76096   0.00000  Uiso   1.00
C664   C     0.82255   0.05620   0.75871   0.00000  Uiso   1.00
C665   C     0.84386   0.27778   0.74168   0.00000  Uiso   1.00
C666   C     0.85480   0.14546   0.64397   0.00000  Uiso   1.00
C667   C     0.81182   0.18769   0.85622   0.00000  Uiso   1.00
C668   C     0.80147   0.19620   0.89952   0.00000  Uiso   1.00
C669   C     0.86272   0.13874   0.60129   0.00000  Uiso   1.00
C670   C     0.75509   0.22227   0.96247   0.00000  Uiso   1.00
C671   C     0.82633   0.18152   0.91937   0.00000  Uiso   1.00
C672   C     0.81828   0.18954   0.96051   0.00000  Uiso   1.00
C673   C     0.77965   0.20653   0.98234   0.00000  Uiso   1.00
C674   C     0.84505   0.17673   0.98060   0.00000  Uiso   1.00
C675   C     0.82901   0.17445   0.52184   0.00000  Uiso   1.00
C676   C     0.78712   0.18508   0.54175   0.00000  Uiso   1.00
C677   C     0.76445   0.20399   0.52305   0.00000  Uiso   1.00
F678   F     0.72532   0.21563   0.54426   0.00000  Uiso   1.00
F679   F     0.92532   0.07528   0.51745   0.00000  Uiso   1.00
F680   F     0.77821   0.32748   0.78026   0.00000  Uiso   1.00
F681   F     0.71923   0.24076   0.98260   0.00000  Uiso   1.00
F682   F     0.74154   0.23283   0.90326   0.00000  Uiso   1.00
F683   F     0.76599   0.17361   0.57828   0.00000  Uiso   1.00
H684   H     0.85086   0.16205   0.90260   0.00000  Uiso   1.00
I685   I     0.70365   0.21308   0.69505   0.00000  Uiso   1.00
I686   I     0.97159   0.11735   0.80690   0.00000  Uiso   1.00
I687   I     0.91066   0.01719   0.70701   0.00000  Uiso   1.00
I688   I     0.83118   0.22561   0.61343   0.00000  Uiso   1.00
I689   I     0.90819   0.06393   0.60658   0.00000  Uiso   1.00
I690   I     0.96307   0.11355   0.94385   0.00000  Uiso   1.00
I691   I     0.92905   0.19904   0.91382   0.00000  Uiso   1.00
O692   O     0.83333   0.16667   0.75000   0.00000  Uiso   1.00
O693   O     0.82360   0.12393   0.66625   0.00000  Uiso   1.00
O694   O     0.79354   0.20646   0.83749   0.00000  Uiso   1.00
O695   O     0.87755   0.17493   0.65877   0.00000  Uiso   1.00
O696   O     0.83865   0.16135   0.83749   0.00000  Uiso   1.00
O697   O     0.84515   0.08101   0.77820   0.00000  Uiso   1.00
O698   O     0.81247   0.26136   0.76767   0.00000  Uiso   1.00
O699   O     0.74119   0.13251   0.73607   0.00000  Uiso   1.00
O700   O     0.93452   0.19179   0.71805   0.00000  Uiso   1.00
O701   O     0.73656   0.18960   0.77820   0.00000  Uiso   1.00
O702   O     0.92106   0.15277   0.76767   0.00000  Uiso   1.00
O703   O     0.80467   0.06903   0.73607   0.00000  Uiso   1.00
O704   O     0.87104   0.25527   0.71805   0.00000  Uiso   1.00
Zn705  Zn    0.85910   0.14090   0.78277   0.00000  Uiso   1.00
Zn706  Zn    0.80125   0.12378   0.72257   0.00000  Uiso   1.00
Zn707  Zn    0.87833   0.19664   0.71188   0.00000  Uiso   1.00
Zn708  Zn    0.79465   0.20535   0.78277   0.00000  Uiso   1.00
C709   C     0.05282   0.49352   0.75831   0.00000  Uiso   1.00
C710   C     0.22031   0.49868   0.96105   0.00000  Uiso   1.00
C711   C     0.23809   0.47200   0.97820   0.00000  Uiso   1.00
C712   C     0.28100   0.50685   0.74134   0.00000  Uiso   1.00
C713   C     0.21944   0.46614   0.51856   0.00000  Uiso   1.00
C714   C     0.18705   0.49121   0.54129   0.00000  Uiso   1.00
C715   C     0.23355   0.43850   0.53788   0.00000  Uiso   1.00
C716   C     0.22015   0.44021   0.57906   0.00000  Uiso   1.00
C717   C     0.18140   0.49922   0.58236   0.00000  Uiso   1.00
C718   C     0.32674   0.50975   0.73853   0.00000  Uiso   1.00
C719   C     0.00764   0.49018   0.76242   0.00000  Uiso   1.00
C720   C     0.09984   0.55131   0.92137   0.00000  Uiso   1.00
C721   C     0.18316   0.65613   0.74058   0.00000  Uiso   1.00
C722   C     0.15118   0.34547   0.76096   0.00000  Uiso   1.00
C723   C     0.15588   0.38954   0.75871   0.00000  Uiso   1.00
C724   C     0.17719   0.61112   0.74168   0.00000  Uiso   1.00
C725   C     0.18813   0.47880   0.64397   0.00000  Uiso   1.00
C726   C     0.14515   0.52103   0.85622   0.00000  Uiso   1.00
C727   C     0.13481   0.52953   0.89952   0.00000  Uiso   1.00
C728   C     0.19605   0.47207   0.60129   0.00000  Uiso   1.00
C729   C     0.08842   0.55561   0.96247   0.00000  Uiso   1.00
C730   C     0.15967   0.51485   0.91937   0.00000  Uiso   1.00
C731   C     0.15162   0.52288   0.96051   0.00000  Uiso   1.00
C732   C     0.11298   0.53986   0.98234   0.00000  Uiso   1.00
C733   C     0.17838   0.51006   0.98060   0.00000  Uiso   1.00
C734   C     0.16234   0.50778   0.52184   0.00000  Uiso   1.00
C735   C     0.12045   0.51841   0.54175   0.00000  Uiso   1.00
C736   C     0.09778   0.53732   0.52305   0.00000  Uiso   1.00
F737   F     0.05865   0.54896   0.54426   0.00000  Uiso   1.00
F738   F     0.25865   0.40861   0.51745   0.00000  Uiso   1.00
F739   F     0.11154   0.66082   0.78026   0.00000  Uiso   1.00
F740   F     0.05256   0.57409   0.98260   0.00000  Uiso   1.00
F741   F     0.07487   0.56617   0.90326   0.00000  Uiso   1.00
F742   F     0.09932   0.50695   0.57828   0.00000  Uiso   1.00
H743   H     0.18420   0.49538   0.90260   0.00000  Uiso   1.00
I744   I     0.03698   0.54641   0.69505   0.00000  Uiso   1.00
I745   I     0.30493   0.45068   0.80690   0.00000  Uiso   1.00
I746   I     0.24400   0.35053   0.70701   0.00000  Uiso   1.00
I747   I     0.16451   0.55894   0.61343   0.00000  Uiso   1.00
I748   I     0.24152   0.39726   0.60658   0.00000  Uiso   1.00
I749   I     0.29641   0.44689   0.94385   0.00000  Uiso   1.00
I750   I     0.26239   0.53237   0.91382   0.00000  Uiso   1.00
O751   O     0.16667   0.50000   0.75000   0.00000  Uiso   1.00
O752   O     0.15693   0.45726   0.66625   0.00000  Uiso   1.00
O753   O     0.12687   0.53979   0.83749   0.00000  Uiso   1.00
O754   O     0.21088   0.50826   0.65877   0.00000  Uiso   1.00
O755   O     0.17198   0.49468   0.83749   0.00000  Uiso   1.00
O756   O     0.17849   0.41434   0.77820   0.00000  Uiso   1.00
O757   O     0.14581   0.59469   0.76767   0.00000  Uiso   1.00
O758   O     0.07452   0.46584   0.73607   0.00000  Uiso   1.00
O759   O     0.26785   0.52512   0.71805   0.00000  Uiso   1.00
O760   O     0.06990   0.52293   0.77820   0.00000  Uiso   1.00
O761   O     0.25440   0.48610   0.76767   0.00000  Uiso   1.00
O762   O     0.13800   0.40236   0.73607   0.00000  Uiso   1.00
O763   O     0.20437   0.58860   0.71805   0.00000  Uiso   1.00
Zn764  Zn    0.19244   0.47423   0.78277   0.00000  Uiso   1.00
Zn765  Zn    0.13459   0.45711   0.72257   0.00000  Uiso   1.00
Zn766  Zn    0.21166   0.52997   0.71188   0.00000  Uiso   1.00
Zn767  Zn    0.12798   0.53868   0.78277   0.00000  Uiso   1.00
C768   C     0.38615   0.49352   0.75831   0.00000  Uiso   1.00
C769   C     0.55365   0.49868   0.96105   0.00000  Uiso   1.00
C770   C     0.57142   0.47200   0.97820   0.00000  Uiso   1.00
C771   C     0.61434   0.50685   0.74134   0.00000  Uiso   1.00
C772   C     0.55278   0.46614   0.51856   0.00000  Uiso   1.00
C773   C     0.52038   0.49121   0.54129   0.00000  Uiso   1.00
C774   C     0.56689   0.43850   0.53788   0.00000  Uiso   1.00
C775   C     0.55348   0.44021   0.57906   0.00000  Uiso   1.00
C776   C     0.51473   0.49922   0.58236   0.00000  Uiso   1.00
C777   C     0.66007   0.50975   0.73853   0.00000  Uiso   1.00
C778   C     0.34097   0.49018   0.76242   0.00000  Uiso   1.00
C779   C     0.43317   0.55131   0.92137   0.00000  Uiso   1.00
C780   C     0.51649   0.65613   0.74058   0.00000  Uiso   1.00
C781   C     0.48451   0.34547   0.76096   0.00000  Uiso   1.00
C782   C     0.48922   0.38954   0.75871   0.00000  Uiso   1.00
C783   C     0.51052   0.61112   0.74168   0.00000  Uiso   1.00
C784   C     0.52147   0.47880   0.64397   0.00000  Uiso   1.00
C785   C     0.47849   0.52103   0.85622   0.00000  Uiso   1.00
C786   C     0.46814   0.52953   0.89952   0.00000  Uiso   1.00
C787   C     0.52939   0.47207   0.60129   0.00000  Uiso   1.00
C788   C     0.42175   0.55561   0.96247   0.00000  Uiso   1.00
C789   C     0.49300   0.51485   0.91937   0.00000  Uiso   1.00
C790   C     0.48495   0.52288   0.96051   0.00000  Uiso   1.00
C791   C     0.44632   0.53986   0.98234   0.00000  Uiso   1.00
C792   C     0.51171   0.51006   0.98060   0.00000  Uiso   1.00
C793   C     0.49568   0.50778   0.52184   0.00000  Uiso   1.00
C794   C     0.45378   0.51841   0.54175   0.00000  Uiso   1.00
C795   C     0.43112   0.53732   0.52305   0.00000  Uiso   1.00
F796   F     0.39199   0.54896   0.54426   0.00000  Uiso   1.00
F797   F     0.59198   0.40861   0.51745   0.00000  Uiso   1.00
F798   F     0.44488   0.66082   0.78026   0.00000  Uiso   1.00
F799   F     0.38590   0.57409   0.98260   0.00000  Uiso   1.00
F800   F     0.40820   0.56617   0.90326   0.00000  Uiso   1.00
F801   F     0.43266   0.50695   0.57828   0.00000  Uiso   1.00
H802   H     0.51753   0.49538   0.90260   0.00000  Uiso   1.00
I803   I     0.37032   0.54641   0.69505   0.00000  Uiso   1.00
I804   I     0.63826   0.45068   0.80690   0.00000  Uiso   1.00
I805   I     0.57733   0.35053   0.70701   0.00000  Uiso   1.00
I806   I     0.49785   0.55894   0.61343   0.00000  Uiso   1.00
I807   I     0.57485   0.39726   0.60658   0.00000  Uiso   1.00
I808   I     0.62974   0.44689   0.94385   0.00000  Uiso   1.00
I809   I     0.59572   0.53237   0.91382   0.00000  Uiso   1.00
O810   O     0.50000   0.50000   0.75000   0.00000  Uiso   1.00
O811   O     0.49027   0.45726   0.66625   0.00000  Uiso   1.00
O812   O     0.46020   0.53979   0.83749   0.00000  Uiso   1.00
O813   O     0.54421   0.50826   0.65877   0.00000  Uiso   1.00
O814   O     0.50532   0.49468   0.83749   0.00000  Uiso   1.00
O815   O     0.51182   0.41434   0.77820   0.00000  Uiso   1.00
O816   O     0.47914   0.59469   0.76767   0.00000  Uiso   1.00
O817   O     0.40785   0.46584   0.73607   0.00000  Uiso   1.00
O818   O     0.60119   0.52512   0.71805   0.00000  Uiso   1.00
O819   O     0.40323   0.52293   0.77820   0.00000  Uiso   1.00
O820   O     0.58773   0.48610   0.76767   0.00000  Uiso   1.00
O821   O     0.47133   0.40236   0.73607   0.00000  Uiso   1.00
O822   O     0.53771   0.58860   0.71805   0.00000  Uiso   1.00
Zn823  Zn    0.52577   0.47423   0.78277   0.00000  Uiso   1.00
Zn824  Zn    0.46792   0.45711   0.72257   0.00000  Uiso   1.00
Zn825  Zn    0.54500   0.52997   0.71188   0.00000  Uiso   1.00
Zn826  Zn    0.46131   0.53868   0.78277   0.00000  Uiso   1.00
C827   C     0.71948   0.49352   0.75831   0.00000  Uiso   1.00
C828   C     0.88698   0.49868   0.96105   0.00000  Uiso   1.00
C829   C     0.90476   0.47200   0.97820   0.00000  Uiso   1.00
C830   C     0.94767   0.50685   0.74134   0.00000  Uiso   1.00
C831   C     0.88611   0.46614   0.51856   0.00000  Uiso   1.00
C832   C     0.85371   0.49121   0.54129   0.00000  Uiso   1.00
C833   C     0.90022   0.43850   0.53788   0.00000  Uiso   1.00
C834   C     0.88681   0.44021   0.57906   0.00000  Uiso   1.00
C835   C     0.84807   0.49922   0.58236   0.00000  Uiso   1.00
C836   C     0.99341   0.50975   0.73853   0.00000  Uiso   1.00
C837   C     0.67430   0.49018   0.76242   0.00000  Uiso   1.00
C838   C     0.76650   0.55131   0.92137   0.00000  Uiso   1.00
C839   C     0.84983   0.65613   0.74058   0.00000  Uiso   1.00
C840   C     0.81785   0.34547   0.76096   0.00000  Uiso   1.00
C841   C     0.82255   0.38954   0.75871   0.00000  Uiso   1.00
C842   C     0.84386   0.61112   0.74168   0.00000  Uiso   1.00
C843   C     0.85480   0.47880   0.64397   0.00000  Uiso   1.00
C844   C     0.81182   0.52103   0.85622   0.00000  Uiso   1.00
C845   C     0.80147   0.52953   0.89952   0.00000  Uiso   1.00
C846   C     0.86272   0.47207   0.60129   0.00000  Uiso   1.00
C847   C     0.75509   0.55561   0.96247   0.00000  Uiso   1.00
C848   C     0.82633   0.51485   0.91937   0.00000  Uiso   1.00
C849   C     0.81828   0.52288   0.96051   0.00000  Uiso   1.00
C850   C     0.77965   0.53986   0.98234   0.00000  Uiso   1.00
C851   C     0.84505   0.51006   0.98060   0.00000  Uiso   1.00
C852   C     0.82901   0.50778   0.52184   0.00000  Uiso   1.00
C853   C     0.78712   0.51841   0.54175   0.00000  Uiso   1.00
C854   C     0.76445   0.53732   0.52305   0.00000  Uiso   1.00
F855   F     0.72532   0.54896   0.54426   0.00000  Uiso   1.00
F856   F     0.92532   0.40861   0.51745   0.00000  Uiso   1.00
F857   F     0.77821   0.66082   0.78026   0.00000  Uiso   1.00
F858   F     0.71923   0.57409   0.98260   0.00000  Uiso   1.00
F859   F     0.74154   0.56617   0.90326   0.00000  Uiso   1.00
F860   F     0.76599   0.50695   0.57828   0.00000  Uiso   1.00
H861   H     0.85086   0.49538   0.90260   0.00000  Uiso   1.00
I862   I     0.70365   0.54641   0.69505   0.00000  Uiso   1.00
I863   I     0.97159   0.45068   0.80690   0.00000  Uiso   1.00
I864   I     0.91066   0.35053   0.70701   0.00000  Uiso   1.00
I865   I     0.83118   0.55894   0.61343   0.00000  Uiso   1.00
I866   I     0.90819   0.39726   0.60658   0.00000  Uiso   1.00
I867   I     0.96307   0.44689   0.94385   0.00000  Uiso   1.00
I868   I     0.92905   0.53237   0.91382   0.00000  Uiso   1.00
O869   O     0.83333   0.50000   0.75000   0.00000  Uiso   1.00
O870   O     0.82360   0.45726   0.66625   0.00000  Uiso   1.00
O871   O     0.79354   0.53979   0.83749   0.00000  Uiso   1.00
O872   O     0.87755   0.50826   0.65877   0.00000  Uiso   1.00
O873   O     0.83865   0.49468   0.83749   0.00000  Uiso   1.00
O874   O     0.84515   0.41434   0.77820   0.00000  Uiso   1.00
O875   O     0.81247   0.59469   0.76767   0.00000  Uiso   1.00
O876   O     0.74119   0.46584   0.73607   0.00000  Uiso   1.00
O877   O     0.93452   0.52512   0.71805   0.00000  Uiso   1.00
O878   O     0.73656   0.52293   0.77820   0.00000  Uiso   1.00
O879   O     0.92106   0.48610   0.76767   0.00000  Uiso   1.00
O880   O     0.80467   0.40236   0.73607   0.00000  Uiso   1.00
O881   O     0.87104   0.58860   0.71805   0.00000  Uiso   1.00
Zn882  Zn    0.85910   0.47423   0.78277   0.00000  Uiso   1.00
Zn883  Zn    0.80125   0.45711   0.72257   0.00000  Uiso   1.00
Zn884  Zn    0.87833   0.52997   0.71188   0.00000  Uiso   1.00
Zn885  Zn    0.79465   0.53868   0.78277   0.00000  Uiso   1.00
C886   C     0.05282   0.82686   0.75831   0.00000  Uiso   1.00
C887   C     0.22031   0.83201   0.96105   0.00000  Uiso   1.00
C888   C     0.23809   0.80534   0.97820   0.00000  Uiso   1.00
C889   C     0.28100   0.84018   0.74134   0.00000  Uiso   1.00
C890   C     0.21944   0.79948   0.51856   0.00000  Uiso   1.00
C891   C     0.18705   0.82454   0.54129   0.00000  Uiso   1.00
C892   C     0.23355   0.77183   0.53788   0.00000  Uiso   1.00
C893   C     0.22015   0.77354   0.57906   0.00000  Uiso   1.00
C894   C     0.18140   0.83255   0.58236   0.00000  Uiso   1.00
C895   C     0.32674   0.84308   0.73853   0.00000  Uiso   1.00
C896   C     0.00764   0.82351   0.76242   0.00000  Uiso   1.00
C897   C     0.09984   0.88464   0.92137   0.00000  Uiso   1.00
C898   C     0.18316   0.98947   0.74058   0.00000  Uiso   1.00
C899   C     0.15118   0.67880   0.76096   0.00000  Uiso   1.00
C900   C     0.15588   0.72287   0.75871   0.00000  Uiso   1.00
C901   C     0.17719   0.94445   0.74168   0.00000  Uiso   1.00
C902   C     0.18813   0.81213   0.64397   0.00000  Uiso   1.00
C903   C     0.14515   0.85436   0.85622   0.00000  Uiso   1.00
C904   C     0.13481   0.86287   0.89952   0.00000  Uiso   1.00
C905   C     0.19605   0.80541   0.60129   0.00000  Uiso   1.00
C906   C     0.08842   0.88894   0.96247   0.00000  Uiso   1.00
C907   C     0.15967   0.84818   0.91937   0.00000  Uiso   1.00
C908   C     0.15162   0.85621   0.96051   0.00000  Uiso   1.00
C909   C     0.11298   0.87319   0.98234   0.00000  Uiso   1.00
C910   C     0.17838   0.84340   0.98060   0.00000  Uiso   1.00
C911   C     0.16234   0.84111   0.52184   0.00000  Uiso   1.00
C912   C     0.12045   0.85174   0.54175   0.00000  Uiso   1.00
C913   C     0.09778   0.87065   0.52305   0.00000  Uiso   1.00
F914   F     0.05865   0.88230   0.54426   0.00000  Uiso   1.00
F915   F     0.25865   0.74194   0.51745   0.00000  Uiso   1.00
F916   F     0.11154   0.99415   0.78026   0.00000  Uiso   1.00
F917   F     0.05256   0.90742   0.98260   0.00000  Uiso   1.00
F918   F     0.07487   0.89950   0.90326   0.00000  Uiso   1.00
F919   F     0.09932   0.84028   0.57828   0.00000  Uiso   1.00
H920   H     0.18420   0.82872   0.90260   0.00000  Uiso   1.00
I921   I     0.03698   0.87974   0.69505   0.00000  Uiso   1.00
I922   I     0.30493   0.78401   0.80690   0.00000  Uiso   1.00
I923   I     0.24400   0.68386   0.70701   0.00000  Uiso   1.00
I924   I     0.16451   0.89227   0.61343   0.00000  Uiso   1.00
I925   I     0.24152   0.73059   0.60658   0.00000  Uiso   1.00
I926   I     0.29641   0.78022   0.94385   0.00000  Uiso   1.00
I927   I     0.26239   0.86570   0.91382   0.00000  Uiso   1.00
O928   O     0.16667   0.83333   0.75000   0.00000  Uiso   1.00
O929   O     0.15693   0.79060   0.66625   0.00000  Uiso   1.00
O930   O     0.12687   0.87313   0.83749   0.00000  Uiso   1.00
O931   O     0.21088   0.84159   0.65877   0.00000  Uiso   1.00
O932   O     0.17198   0.82802   0.83749   0.00000  Uiso   1.00
O933   O     0.17849   0.74768   0.77820   0.00000  Uiso   1.00
O934   O     0.14581   0.92803   0.76767   0.00000  Uiso   1.00
O935   O     0.07452   0.79917   0.73607   0.00000  Uiso   1.00
O936   O     0.26785   0.85845   0.71805   0.00000  Uiso   1.00
O937   O     0.06990   0.85627   0.77820   0.00000  Uiso   1.00
O938   O     0.25440   0.81944   0.76767   0.00000  Uiso   1.00
O939   O     0.13800   0.73570   0.73607   0.00000  Uiso   1.00
O940   O     0.20437   0.92193   0.71805   0.00000  Uiso   1.00
Zn941  Zn    0.19244   0.80756   0.78277   0.00000  Uiso   1.00
Zn942  Zn    0.13459   0.79044   0.72257   0.00000  Uiso   1.00
Zn943  Zn    0.21166   0.86331   0.71188   0.00000  Uiso   1.00
Zn944  Zn    0.12798   0.87202   0.78277   0.00000  Uiso   1.00
C945   C     0.38615   0.82686   0.75831   0.00000  Uiso   1.00
C946   C     0.55365   0.83201   0.96105   0.00000  Uiso   1.00
C947   C     0.57142   0.80534   0.97820   0.00000  Uiso   1.00
C948   C     0.61434   0.84018   0.74134   0.00000  Uiso   1.00
C949   C     0.55278   0.79948   0.51856   0.00000  Uiso   1.00
C950   C     0.52038   0.82454   0.54129   0.00000  Uiso   1.00
C951   C     0.56689   0.77183   0.53788   0.00000  Uiso   1.00
C952   C     0.55348   0.77354   0.57906   0.00000  Uiso   1.00
C953   C     0.51473   0.83255   0.58236   0.00000  Uiso   1.00
C954   C     0.66007   0.84308   0.73853   0.00000  Uiso   1.00
C955   C     0.34097   0.82351   0.76242   0.00000  Uiso   1.00
C956   C     0.43317   0.88464   0.92137   0.00000  Uiso   1.00
C957   C     0.51649   0.98947   0.74058   0.00000  Uiso   1.00
C958   C     0.48451   0.67880   0.76096   0.00000  Uiso   1.00
C959   C     0.48922   0.72287   0.75871   0.00000  Uiso   1.00
C960   C     0.51052   0.94445   0.74168   0.00000  Uiso   1.00
C961   C     0.52147   0.81213   0.64397   0.00000  Uiso   1.00
C962   C     0.47849   0.85436   0.85622   0.00000  Uiso   1.00
C963   C     0.46814   0.86287   0.89952   0.00000  Uiso   1.00
C964   C     0.52939   0.80541   0.60129   0.00000  Uiso   1.00
C965   C     0.42175   0.88894   0.96247   0.00000  Uiso   1.00
C966   C     0.49300   0.84818   0.91937   0.00000  Uiso   1.00
C967   C     0.48495   0.85621   0.96051   0.00000  Uiso   1.00
C968   C     0.44632   0.87319   0.98234   0.00000  Uiso   1.00
C969   C     0.51171   0.84340   0.98060   0.00000  Uiso   1.00
C970   C     0.49568   0.84111   0.52184   0.00000  Uiso   1.00
C971   C     0.45378   0.85174   0.54175   0.00000  Uiso   1.00
C972   C     0.43112   0.87065   0.52305   0.00000  Uiso   1.00
F973   F     0.39199   0.88230   0.54426   0.00000  Uiso   1.00
F974   F     0.59198   0.74194   0.51745   0.00000  Uiso   1.00
F975   F     0.44488   0.99415   0.78026   0.00000  Uiso   1.00
F976   F     0.38590   0.90742   0.98260   0.00000  Uiso   1.00
F977   F     0.40820   0.89950   0.90326   0.00000  Uiso   1.00
F978   F     0.43266   0.84028   0.57828   0.00000  Uiso   1.00
H979   H     0.51753   0.82872   0.90260   0.00000  Uiso   1.00
I980   I     0.37032   0.87974   0.69505   0.00000  Uiso   1.00
I981   I     0.63826   0.78401   0.80690   0.00000  Uiso   1.00
I982   I     0.57733   0.68386   0.70701   0.00000  Uiso   1.00
I983   I     0.49785   0.89227   0.61343   0.00000  Uiso   1.00
I984   I     0.57485   0.73059   0.60658   0.00000  Uiso   1.00
I985   I     0.62974   0.78022   0.94385   0.00000  Uiso   1.00
I986   I     0.59572   0.86570   0.91382   0.00000  Uiso   1.00
O987   O     0.50000   0.83333   0.75000   0.00000  Uiso   1.00
O988   O     0.49027   0.79060   0.66625   0.00000  Uiso   1.00
O989   O     0.46020   0.87313   0.83749   0.00000  Uiso   1.00
O990   O     0.54421   0.84159   0.65877   0.00000  Uiso   1.00
O991   O     0.50532   0.82802   0.83749   0.00000  Uiso   1.00
O992   O     0.51182   0.74768   0.77820   0.00000  Uiso   1.00
O993   O     0.47914   0.92803   0.76767   0.00000  Uiso   1.00
O994   O     0.40785   0.79917   0.73607   0.00000  Uiso   1.00
O995   O     0.60119   0.85845   0.71805   0.00000  Uiso   1.00
O996   O     0.40323   0.85627   0.77820   0.00000  Uiso   1.00
O997   O     0.58773   0.81944   0.76767   0.00000  Uiso   1.00
O998   O     0.47133   0.73570   0.73607   0.00000  Uiso   1.00
O999   O     0.53771   0.92193   0.71805   0.00000  Uiso   1.00
Zn1000 Zn    0.52577   0.80756   0.78277   0.00000  Uiso   1.00
Zn1001 Zn    0.46792   0.79044   0.72257   0.00000  Uiso   1.00
Zn1002 Zn    0.54500   0.86331   0.71188   0.00000  Uiso   1.00
Zn1003 Zn    0.46131   0.87202   0.78277   0.00000  Uiso   1.00
C1004  C     0.71948   0.82686   0.75831   0.00000  Uiso   1.00
C1005  C     0.88698   0.83201   0.96105   0.00000  Uiso   1.00
C1006  C     0.90476   0.80534   0.97820   0.00000  Uiso   1.00
C1007  C     0.94767   0.84018   0.74134   0.00000  Uiso   1.00
C1008  C     0.88611   0.79948   0.51856   0.00000  Uiso   1.00
C1009  C     0.85371   0.82454   0.54129   0.00000  Uiso   1.00
C1010  C     0.90022   0.77183   0.53788   0.00000  Uiso   1.00
C1011  C     0.88681   0.77354   0.57906   0.00000  Uiso   1.00
C1012  C     0.84807   0.83255   0.58236   0.00000  Uiso   1.00
C1013  C     0.99341   0.84308   0.73853   0.00000  Uiso   1.00
C1014  C     0.67430   0.82351   0.76242   0.00000  Uiso   1.00
C1015  C     0.76650   0.88464   0.92137   0.00000  Uiso   1.00
C1016  C     0.84983   0.98947   0.74058   0.00000  Uiso   1.00
C1017  C     0.81785   0.67880   0.76096   0.00000  Uiso   1.00
C1018  C     0.82255   0.72287   0.75871   0.00000  Uiso   1.00
C1019  C     0.84386   0.94445   0.74168   0.00000  Uiso   1.00
C1020  C     0.85480   0.81213   0.64397   0.00000  Uiso   1.00
C1021  C     0.81182   0.85436   0.85622   0.00000  Uiso   1.00
C1022  C     0.80147   0.86287   0.89952   0.00000  Uiso   1.00
C1023  C     0.86272   0.80541   0.60129   0.00000  Uiso   1.00
C1024  C     0.75509   0.88894   0.96247   0.00000  Uiso   1.00
C1025  C     0.82633   0.84818   0.91937   0.00000  Uiso   1.00
C1026  C     0.81828   0.85621   0.96051   0.00000  Uiso   1.00
C1027  C     0.77965   0.87319   0.98234   0.00000  Uiso   1.00
C1028  C     0.84505   0.84340   0.98060   0.00000  Uiso   1.00
C1029  C     0.82901   0.84111   0.52184   0.00000  Uiso   1.00
C1030  C     0.78712   0.85174   0.54175   0.00000  Uiso   1.00
C1031  C     0.76445   0.87065   0.52305   0.00000  Uiso   1.00
F1032  F     0.72532   0.88230   0.54426   0.00000  Uiso   1.00
F1033  F     0.92532   0.74194   0.51745   0.00000  Uiso   1.00
F1034  F     0.77821   0.99415   0.78026   0.00000  Uiso   1.00
F1035  F     0.71923   0.90742   0.98260   0.00000  Uiso   1.00
F1036  F     0.74154   0.89950   0.90326   0.00000  Uiso   1.00
F1037  F     0.76599   0.84028   0.57828   0.00000  Uiso   1.00
H1038  H     0.85086   0.82872   0.90260   0.00000  Uiso   1.00
I1039  I     0.70365   0.87974   0.69505   0.00000  Uiso   1.00
I1040  I     0.97159   0.78401   0.80690   0.00000  Uiso   1.00
I1041  I     0.91066   0.68386   0.70701   0.00000  Uiso   1.00
I1042  I     0.83118   0.89227   0.61343   0.00000  Uiso   1.00
I1043  I     0.90819   0.73059   0.60658   0.00000  Uiso   1.00
I1044  I     0.96307   0.78022   0.94385   0.00000  Uiso   1.00
I1045  I     0.92905   0.86570   0.91382   0.00000  Uiso   1.00
O1046  O     0.83333   0.83333   0.75000   0.00000  Uiso   1.00
O1047  O     0.82360   0.79060   0.66625   0.00000  Uiso   1.00
O1048  O     0.79354   0.87313   0.83749   0.00000  Uiso   1.00
O1049  O     0.87755   0.84159   0.65877   0.00000  Uiso   1.00
O1050  O     0.83865   0.82802   0.83749   0.00000  Uiso   1.00
O1051  O     0.84515   0.74768   0.77820   0.00000  Uiso   1.00
O1052  O     0.81247   0.92803   0.76767   0.00000  Uiso   1.00
O1053  O     0.74119   0.79917   0.73607   0.00000  Uiso   1.00
O1054  O     0.93452   0.85845   0.71805   0.00000  Uiso   1.00
O1055  O     0.73656   0.85627   0.77820   0.00000  Uiso   1.00
O1056  O     0.92106   0.81944   0.76767   0.00000  Uiso   1.00
O1057  O     0.80467   0.73570   0.73607   0.00000  Uiso   1.00
O1058  O     0.87104   0.92193   0.71805   0.00000  Uiso   1.00
Zn1059 Zn    0.85910   0.80756   0.78277   0.00000  Uiso   1.00
Zn1060 Zn    0.80125   0.79044   0.72257   0.00000  Uiso   1.00
Zn1061 Zn    0.87833   0.86331   0.71188   0.00000  Uiso   1.00
Zn1062 Zn    0.79465   0.87202   0.78277   0.00000  Uiso   1.00
loop_
_geom_bond_atom_site_label_1
_geom_bond_atom_site_label_2
_geom_bond_distance
_geom_bond_site_symmetry_2
_ccdc_geom_bond_type
C1     O50     1.265   .     A
C1     O52     1.267   .     A
C1     C11     1.430   .     S
C2     C3      1.410   .     A
C2     I42     2.154   .     S
C2     C25     1.421   .     A
C3     I41     2.147   .     S
C3     C536    1.416   .     S
C4     O53     1.272   .     A
C4     O51     1.290   .     A
C4     C10     1.459   .     S
C5     C7      1.413   .     A
C5     C6      1.418   .     A
C5     C534    1.416   1_554 S
C6     C9      1.411   .     A
C6     C26     1.415   .     A
C7     C8      1.398   .     A
C7     F30     1.355   .     S
C8     C20     1.403   .     A
C8     I40     2.126   .     S
C9     C20     1.401   .     A
C9     I39     2.158   .     S
C10    C70     1.354   .     S
C10    I95     2.138   .     S
C11    C128    1.354   1_455 S
C11    I155    2.142   1_455 S
C12    C19     1.406   .     A
C12    F33     1.358   .     S
C12    C21     1.393   .     A
C13    C16     1.454   .     S
C13    C191    1.341   .     S
C13    I215    2.136   .     S
C14    C15     1.432   .     S
C14    C367    1.341   1_545 S
C14    F385    1.362   1_545 S
C15    O48     1.281   .     A
C15    O54     1.274   .     A
C16    O55     1.271   .     A
C16    O49     1.270   .     A
C17    C20     1.456   .     S
C17    O44     1.276   .     A
C17    O46     1.273   .     A
C18    O45     1.283   .     A
C18    O47     1.292   .     A
C18    C19     1.474   .     S
C19    C22     1.397   .     A
C21    F32     1.358   .     S
C21    C24     1.408   .     A
C22    H35     1.079   .     S
C22    C23     1.404   .     A
C23    C24     1.419   .     A
C23    C25     1.423   .     A
C24    C559    1.399   .     S
C25    C557    1.417   .     S
C26    C27     1.414   .     A
C26    C556    1.417   1_554 S
C27    F34     1.358   .     S
C27    C28     1.388   .     A
C28    F29     1.358   .     S
C28    C555    1.399   1_554 S
F31    C191    1.362   .     S
I36    C128    2.138   1_455 S
I37    C70     2.142   .     S
I38    C367    2.136   1_545 S
O43    Zn59    1.933   .     S
O43    Zn56    1.967   .     S
O43    Zn57    1.942   .     S
O43    Zn58    1.931   .     S
O44    Zn57    1.924   .     S
O45    Zn59    1.937   .     S
O46    Zn58    1.929   .     S
O47    Zn56    1.919   .     S
O48    Zn56    1.929   .     S
O49    Zn59    1.932   .     S
O50    Zn57    1.935   .     S
O51    Zn58    1.947   .     S
O52    Zn59    1.939   .     S
O53    Zn56    1.929   .     S
O54    Zn57    1.941   .     S
O55    Zn58    1.934   .     S
C60    O109    1.265   .     A
C60    O111    1.267   .     A
C60    C70     1.430   .     S
C61    C62     1.410   .     A
C61    I101    2.154   .     S
C61    C84     1.421   .     A
C62    I100    2.147   .     S
C62    C595    1.416   .     S
C63    O112    1.272   .     A
C63    O110    1.290   .     A
C63    C69     1.459   .     S
C64    C66     1.413   .     A
C64    C65     1.418   .     A
C64    C593    1.416   1_554 S
C65    C68     1.411   .     A
C65    C85     1.415   .     A
C66    C67     1.398   .     A
C66    F89     1.355   .     S
C67    C79     1.403   .     A
C67    I99     2.126   .     S
C68    C79     1.401   .     A
C68    I98     2.158   .     S
C69    C129    1.354   .     S
C69    I154    2.138   .     S
C71    C78     1.406   .     A
C71    F92     1.358   .     S
C71    C80     1.393   .     A
C72    C75     1.454   .     S
C72    C250    1.341   .     S
C72    I274    2.136   .     S
C73    C74     1.432   .     S
C73    C426    1.341   1_545 S
C73    F444    1.362   1_545 S
C74    O107    1.281   .     A
C74    O113    1.274   .     A
C75    O114    1.271   .     A
C75    O108    1.270   .     A
C76    C79     1.456   .     S
C76    O103    1.276   .     A
C76    O105    1.273   .     A
C77    O104    1.283   .     A
C77    O106    1.292   .     A
C77    C78     1.474   .     S
C78    C81     1.397   .     A
C80    F91     1.358   .     S
C80    C83     1.408   .     A
C81    H94     1.079   .     S
C81    C82     1.404   .     A
C82    C83     1.419   .     A
C82    C84     1.423   .     A
C83    C618    1.399   .     S
C84    C616    1.417   .     S
C85    C86     1.414   .     A
C85    C615    1.417   1_554 S
C86    F93     1.358   .     S
C86    C87     1.388   .     A
C87    F88     1.358   .     S
C87    C614    1.399   1_554 S
F90    C250    1.362   .     S
I96    C129    2.142   .     S
I97    C426    2.136   1_545 S
O102   Zn118   1.933   .     S
O102   Zn115   1.967   .     S
O102   Zn116   1.942   .     S
O102   Zn117   1.931   .     S
O103   Zn116   1.924   .     S
O104   Zn118   1.937   .     S
O105   Zn117   1.929   .     S
O106   Zn115   1.919   .     S
O107   Zn115   1.929   .     S
O108   Zn118   1.932   .     S
O109   Zn116   1.935   .     S
O110   Zn117   1.947   .     S
O111   Zn118   1.939   .     S
O112   Zn115   1.929   .     S
O113   Zn116   1.941   .     S
O114   Zn117   1.934   .     S
C119   O168    1.265   .     A
C119   O170    1.267   .     A
C119   C129    1.430   .     S
C120   C121    1.410   .     A
C120   I160    2.154   .     S
C120   C143    1.421   .     A
C121   I159    2.147   .     S
C121   C654    1.416   .     S
C122   O171    1.272   .     A
C122   O169    1.290   .     A
C122   C128    1.459   .     S
C123   C125    1.413   .     A
C123   C124    1.418   .     A
C123   C652    1.416   1_554 S
C124   C127    1.411   .     A
C124   C144    1.415   .     A
C125   C126    1.398   .     A
C125   F148    1.355   .     S
C126   C138    1.403   .     A
C126   I158    2.126   .     S
C127   C138    1.401   .     A
C127   I157    2.158   .     S
C128   C11     1.354   1_655 S
C128   I36     2.138   1_655 S
C130   C137    1.406   .     A
C130   F151    1.358   .     S
C130   C139    1.393   .     A
C131   C134    1.454   .     S
C131   C309    1.341   .     S
C131   I333    2.136   .     S
C132   C133    1.432   .     S
C132   C485    1.341   1_545 S
C132   F503    1.362   1_545 S
C133   O166    1.281   .     A
C133   O172    1.274   .     A
C134   O173    1.271   .     A
C134   O167    1.270   .     A
C135   C138    1.456   .     S
C135   O162    1.276   .     A
C135   O164    1.273   .     A
C136   O163    1.283   .     A
C136   O165    1.292   .     A
C136   C137    1.474   .     S
C137   C140    1.397   .     A
C139   F150    1.358   .     S
C139   C142    1.408   .     A
C140   H153    1.079   .     S
C140   C141    1.404   .     A
C141   C142    1.419   .     A
C141   C143    1.423   .     A
C142   C677    1.399   .     S
C143   C675    1.417   .     S
C144   C145    1.414   .     A
C144   C674    1.417   1_554 S
C145   F152    1.358   .     S
C145   C146    1.388   .     A
C146   F147    1.358   .     S
C146   C673    1.399   1_554 S
F149   C309    1.362   .     S
I155   C11     2.142   1_655 S
I156   C485    2.136   1_545 S
O161   Zn177   1.933   .     S
O161   Zn174   1.967   .     S
O161   Zn175   1.942   .     S
O161   Zn176   1.931   .     S
O162   Zn175   1.924   .     S
O163   Zn177   1.937   .     S
O164   Zn176   1.929   .     S
O165   Zn174   1.919   .     S
O166   Zn174   1.929   .     S
O167   Zn177   1.932   .     S
O168   Zn175   1.935   .     S
O169   Zn176   1.947   .     S
O170   Zn177   1.939   .     S
O171   Zn174   1.929   .     S
O172   Zn175   1.941   .     S
O173   Zn176   1.934   .     S
C178   O227    1.265   .     A
C178   O229    1.267   .     A
C178   C188    1.430   .     S
C179   C180    1.410   .     A
C179   I219    2.154   .     S
C179   C202    1.421   .     A
C180   I218    2.147   .     S
C180   C713    1.416   .     S
C181   O230    1.272   .     A
C181   O228    1.290   .     A
C181   C187    1.459   .     S
C182   C184    1.413   .     A
C182   C183    1.418   .     A
C182   C711    1.416   1_554 S
C183   C186    1.411   .     A
C183   C203    1.415   .     A
C184   C185    1.398   .     A
C184   F207    1.355   .     S
C185   C197    1.403   .     A
C185   I217    2.126   .     S
C186   C197    1.401   .     A
C186   I216    2.158   .     S
C187   C247    1.354   .     S
C187   I272    2.138   .     S
C188   C305    1.354   1_455 S
C188   I332    2.142   1_455 S
C189   C196    1.406   .     A
C189   F210    1.358   .     S
C189   C198    1.393   .     A
C190   C193    1.454   .     S
C190   C368    1.341   .     S
C190   I392    2.136   .     S
C191   C192    1.432   .     S
C192   O225    1.281   .     A
C192   O231    1.274   .     A
C193   O232    1.271   .     A
C193   O226    1.270   .     A
C194   C197    1.456   .     S
C194   O221    1.276   .     A
C194   O223    1.273   .     A
C195   O222    1.283   .     A
C195   O224    1.292   .     A
C195   C196    1.474   .     S
C196   C199    1.397   .     A
C198   F209    1.358   .     S
C198   C201    1.408   .     A
C199   H212    1.079   .     S
C199   C200    1.404   .     A
C200   C201    1.419   .     A
C200   C202    1.423   .     A
C201   C736    1.399   .     S
C202   C734    1.417   .     S
C203   C204    1.414   .     A
C203   C733    1.417   1_554 S
C204   F211    1.358   .     S
C204   C205    1.388   .     A
C205   F206    1.358   .     S
C205   C732    1.399   1_554 S
F208   C368    1.362   .     S
I213   C305    2.138   1_455 S
I214   C247    2.142   .     S
O220   Zn236   1.933   .     S
O220   Zn233   1.967   .     S
O220   Zn234   1.942   .     S
O220   Zn235   1.931   .     S
O221   Zn234   1.924   .     S
O222   Zn236   1.937   .     S
O223   Zn235   1.929   .     S
O224   Zn233   1.919   .     S
O225   Zn233   1.929   .     S
O226   Zn236   1.932   .     S
O227   Zn234   1.935   .     S
O228   Zn235   1.947   .     S
O229   Zn236   1.939   .     S
O230   Zn233   1.929   .     S
O231   Zn234   1.941   .     S
O232   Zn235   1.934   .     S
C237   O286    1.265   .     A
C237   O288    1.267   .     A
C237   C247    1.430   .     S
C238   C239    1.410   .     A
C238   I278    2.154   .     S
C238   C261    1.421   .     A
C239   I277    2.147   .     S
C239   C772    1.416   .     S
C240   O289    1.272   .     A
C240   O287    1.290   .     A
C240   C246    1.459   .     S
C241   C243    1.413   .     A
C241   C242    1.418   .     A
C241   C770    1.416   1_554 S
C242   C245    1.411   .     A
C242   C262    1.415   .     A
C243   C244    1.398   .     A
C243   F266    1.355   .     S
C244   C256    1.403   .     A
C244   I276    2.126   .     S
C245   C256    1.401   .     A
C245   I275    2.158   .     S
C246   C306    1.354   .     S
C246   I331    2.138   .     S
C248   C255    1.406   .     A
C248   F269    1.358   .     S
C248   C257    1.393   .     A
C249   C252    1.454   .     S
C249   C427    1.341   .     S
C249   I451    2.136   .     S
C250   C251    1.432   .     S
C251   O284    1.281   .     A
C251   O290    1.274   .     A
C252   O291    1.271   .     A
C252   O285    1.270   .     A
C253   C256    1.456   .     S
C253   O280    1.276   .     A
C253   O282    1.273   .     A
C254   O281    1.283   .     A
C254   O283    1.292   .     A
C254   C255    1.474   .     S
C255   C258    1.397   .     A
C257   F268    1.358   .     S
C257   C260    1.408   .     A
C258   H271    1.079   .     S
C258   C259    1.404   .     A
C259   C260    1.419   .     A
C259   C261    1.423   .     A
C260   C795    1.399   .     S
C261   C793    1.417   .     S
C262   C263    1.414   .     A
C262   C792    1.417   1_554 S
C263   F270    1.358   .     S
C263   C264    1.388   .     A
C264   F265    1.358   .     S
C264   C791    1.399   1_554 S
F267   C427    1.362   .     S
I273   C306    2.142   .     S
O279   Zn295   1.933   .     S
O279   Zn292   1.967   .     S
O279   Zn293   1.942   .     S
O279   Zn294   1.931   .     S
O280   Zn293   1.924   .     S
O281   Zn295   1.937   .     S
O282   Zn294   1.929   .     S
O283   Zn292   1.919   .     S
O284   Zn292   1.929   .     S
O285   Zn295   1.932   .     S
O286   Zn293   1.935   .     S
O287   Zn294   1.947   .     S
O288   Zn295   1.939   .     S
O289   Zn292   1.929   .     S
O290   Zn293   1.941   .     S
O291   Zn294   1.934   .     S
C296   O345    1.265   .     A
C296   O347    1.267   .     A
C296   C306    1.430   .     S
C297   C298    1.410   .     A
C297   I337    2.154   .     S
C297   C320    1.421   .     A
C298   I336    2.147   .     S
C298   C831    1.416   .     S
C299   O348    1.272   .     A
C299   O346    1.290   .     A
C299   C305    1.459   .     S
C300   C302    1.413   .     A
C300   C301    1.418   .     A
C300   C829    1.416   1_554 S
C301   C304    1.411   .     A
C301   C321    1.415   .     A
C302   C303    1.398   .     A
C302   F325    1.355   .     S
C303   C315    1.403   .     A
C303   I335    2.126   .     S
C304   C315    1.401   .     A
C304   I334    2.158   .     S
C305   C188    1.354   1_655 S
C305   I213    2.138   1_655 S
C307   C314    1.406   .     A
C307   F328    1.358   .     S
C307   C316    1.393   .     A
C308   C311    1.454   .     S
C308   C486    1.341   .     S
C308   I510    2.136   .     S
C309   C310    1.432   .     S
C310   O343    1.281   .     A
C310   O349    1.274   .     A
C311   O350    1.271   .     A
C311   O344    1.270   .     A
C312   C315    1.456   .     S
C312   O339    1.276   .     A
C312   O341    1.273   .     A
C313   O340    1.283   .     A
C313   O342    1.292   .     A
C313   C314    1.474   .     S
C314   C317    1.397   .     A
C316   F327    1.358   .     S
C316   C319    1.408   .     A
C317   H330    1.079   .     S
C317   C318    1.404   .     A
C318   C319    1.419   .     A
C318   C320    1.423   .     A
C319   C854    1.399   .     S
C320   C852    1.417   .     S
C321   C322    1.414   .     A
C321   C851    1.417   1_554 S
C322   F329    1.358   .     S
C322   C323    1.388   .     A
C323   F324    1.358   .     S
C323   C850    1.399   1_554 S
F326   C486    1.362   .     S
I332   C188    2.142   1_655 S
O338   Zn354   1.933   .     S
O338   Zn351   1.967   .     S
O338   Zn352   1.942   .     S
O338   Zn353   1.931   .     S
O339   Zn352   1.924   .     S
O340   Zn354   1.937   .     S
O341   Zn353   1.929   .     S
O342   Zn351   1.919   .     S
O343   Zn351   1.929   .     S
O344   Zn354   1.932   .     S
O345   Zn352   1.935   .     S
O346   Zn353   1.947   .     S
O347   Zn354   1.939   .     S
O348   Zn351   1.929   .     S
O349   Zn352   1.941   .     S
O350   Zn353   1.934   .     S
C355   O404    1.265   .     A
C355   O406    1.267   .     A
C355   C365    1.430   .     S
C356   C357    1.410   .     A
C356   I396    2.154   .     S
C356   C379    1.421   .     A
C357   I395    2.147   .     S
C357   C890    1.416   .     S
C358   O407    1.272   .     A
C358   O405    1.290   .     A
C358   C364    1.459   .     S
C359   C361    1.413   .     A
C359   C360    1.418   .     A
C359   C888    1.416   1_554 S
C360   C363    1.411   .     A
C360   C380    1.415   .     A
C361   C362    1.398   .     A
C361   F384    1.355   .     S
C362   C374    1.403   .     A
C362   I394    2.126   .     S
C363   C374    1.401   .     A
C363   I393    2.158   .     S
C364   C424    1.354   .     S
C364   I449    2.138   .     S
C365   C482    1.354   1_455 S
C365   I509    2.142   1_455 S
C366   C373    1.406   .     A
C366   F387    1.358   .     S
C366   C375    1.393   .     A
C367   C370    1.454   .     S
C367   C14     1.341   1_565 S
C367   I38     2.136   1_565 S
C368   C369    1.432   .     S
C369   O402    1.281   .     A
C369   O408    1.274   .     A
C370   O409    1.271   .     A
C370   O403    1.270   .     A
C371   C374    1.456   .     S
C371   O398    1.276   .     A
C371   O400    1.273   .     A
C372   O399    1.283   .     A
C372   O401    1.292   .     A
C372   C373    1.474   .     S
C373   C376    1.397   .     A
C375   F386    1.358   .     S
C375   C378    1.408   .     A
C376   H389    1.079   .     S
C376   C377    1.404   .     A
C377   C378    1.419   .     A
C377   C379    1.423   .     A
C378   C913    1.399   .     S
C379   C911    1.417   .     S
C380   C381    1.414   .     A
C380   C910    1.417   1_554 S
C381   F388    1.358   .     S
C381   C382    1.388   .     A
C382   F383    1.358   .     S
C382   C909    1.399   1_554 S
F385   C14     1.362   1_565 S
I390   C482    2.138   1_455 S
I391   C424    2.142   .     S
O397   Zn413   1.933   .     S
O397   Zn410   1.967   .     S
O397   Zn411   1.942   .     S
O397   Zn412   1.931   .     S
O398   Zn411   1.924   .     S
O399   Zn413   1.937   .     S
O400   Zn412   1.929   .     S
O401   Zn410   1.919   .     S
O402   Zn410   1.929   .     S
O403   Zn413   1.932   .     S
O404   Zn411   1.935   .     S
O405   Zn412   1.947   .     S
O406   Zn413   1.939   .     S
O407   Zn410   1.929   .     S
O408   Zn411   1.941   .     S
O409   Zn412   1.934   .     S
C414   O463    1.265   .     A
C414   O465    1.267   .     A
C414   C424    1.430   .     S
C415   C416    1.410   .     A
C415   I455    2.154   .     S
C415   C438    1.421   .     A
C416   I454    2.147   .     S
C416   C949    1.416   .     S
C417   O466    1.272   .     A
C417   O464    1.290   .     A
C417   C423    1.459   .     S
C418   C420    1.413   .     A
C418   C419    1.418   .     A
C418   C947    1.416   1_554 S
C419   C422    1.411   .     A
C419   C439    1.415   .     A
C420   C421    1.398   .     A
C420   F443    1.355   .     S
C421   C433    1.403   .     A
C421   I453    2.126   .     S
C422   C433    1.401   .     A
C422   I452    2.158   .     S
C423   C483    1.354   .     S
C423   I508    2.138   .     S
C425   C432    1.406   .     A
C425   F446    1.358   .     S
C425   C434    1.393   .     A
C426   C429    1.454   .     S
C426   C73     1.341   1_565 S
C426   I97     2.136   1_565 S
C427   C428    1.432   .     S
C428   O461    1.281   .     A
C428   O467    1.274   .     A
C429   O468    1.271   .     A
C429   O462    1.270   .     A
C430   C433    1.456   .     S
C430   O457    1.276   .     A
C430   O459    1.273   .     A
C431   O458    1.283   .     A
C431   O460    1.292   .     A
C431   C432    1.474   .     S
C432   C435    1.397   .     A
C434   F445    1.358   .     S
C434   C437    1.408   .     A
C435   H448    1.079   .     S
C435   C436    1.404   .     A
C436   C437    1.419   .     A
C436   C438    1.423   .     A
C437   C972    1.399   .     S
C438   C970    1.417   .     S
C439   C440    1.414   .     A
C439   C969    1.417   1_554 S
C440   F447    1.358   .     S
C440   C441    1.388   .     A
C441   F442    1.358   .     S
C441   C968    1.399   1_554 S
F444   C73     1.362   1_565 S
I450   C483    2.142   .     S
O456   Zn472   1.933   .     S
O456   Zn469   1.967   .     S
O456   Zn470   1.942   .     S
O456   Zn471   1.931   .     S
O457   Zn470   1.924   .     S
O458   Zn472   1.937   .     S
O459   Zn471   1.929   .     S
O460   Zn469   1.919   .     S
O461   Zn469   1.929   .     S
O462   Zn472   1.932   .     S
O463   Zn470   1.935   .     S
O464   Zn471   1.947   .     S
O465   Zn472   1.939   .     S
O466   Zn469   1.929   .     S
O467   Zn470   1.941   .     S
O468   Zn471   1.934   .     S
C473   O522    1.265   .     A
C473   O524    1.267   .     A
C473   C483    1.430   .     S
C474   C475    1.410   .     A
C474   I514    2.154   .     S
C474   C497    1.421   .     A
C475   I513    2.147   .     S
C475   C1008   1.416   .     S
C476   O525    1.272   .     A
C476   O523    1.290   .     A
C476   C482    1.459   .     S
C477   C479    1.413   .     A
C477   C478    1.418   .     A
C477   C1006   1.416   1_554 S
C478   C481    1.411   .     A
C478   C498    1.415   .     A
C479   C480    1.398   .     A
C479   F502    1.355   .     S
C480   C492    1.403   .     A
C480   I512    2.126   .     S
C481   C492    1.401   .     A
C481   I511    2.158   .     S
C482   C365    1.354   1_655 S
C482   I390    2.138   1_655 S
C484   C491    1.406   .     A
C484   F505    1.358   .     S
C484   C493    1.393   .     A
C485   C488    1.454   .     S
C485   C132    1.341   1_565 S
C485   I156    2.136   1_565 S
C486   C487    1.432   .     S
C487   O520    1.281   .     A
C487   O526    1.274   .     A
C488   O527    1.271   .     A
C488   O521    1.270   .     A
C489   C492    1.456   .     S
C489   O516    1.276   .     A
C489   O518    1.273   .     A
C490   O517    1.283   .     A
C490   O519    1.292   .     A
C490   C491    1.474   .     S
C491   C494    1.397   .     A
C493   F504    1.358   .     S
C493   C496    1.408   .     A
C494   H507    1.079   .     S
C494   C495    1.404   .     A
C495   C496    1.419   .     A
C495   C497    1.423   .     A
C496   C1031   1.399   .     S
C497   C1029   1.417   .     S
C498   C499    1.414   .     A
C498   C1028   1.417   1_554 S
C499   F506    1.358   .     S
C499   C500    1.388   .     A
C500   F501    1.358   .     S
C500   C1027   1.399   1_554 S
F503   C132    1.362   1_565 S
I509   C365    2.142   1_655 S
O515   Zn531   1.933   .     S
O515   Zn528   1.967   .     S
O515   Zn529   1.942   .     S
O515   Zn530   1.931   .     S
O516   Zn529   1.924   .     S
O517   Zn531   1.937   .     S
O518   Zn530   1.929   .     S
O519   Zn528   1.919   .     S
O520   Zn528   1.929   .     S
O521   Zn531   1.932   .     S
O522   Zn529   1.935   .     S
O523   Zn530   1.947   .     S
O524   Zn531   1.939   .     S
O525   Zn528   1.929   .     S
O526   Zn529   1.941   .     S
O527   Zn530   1.934   .     S
C532   O581    1.265   .     A
C532   O583    1.267   .     A
C532   C542    1.430   .     S
C533   C534    1.410   .     A
C533   I573    2.154   .     S
C533   C556    1.421   .     A
C534   I572    2.147   .     S
C534   C5      1.416   1_556 S
C535   O584    1.272   .     A
C535   O582    1.290   .     A
C535   C541    1.459   .     S
C536   C538    1.413   .     A
C536   C537    1.418   .     A
C537   C540    1.411   .     A
C537   C557    1.415   .     A
C538   C539    1.398   .     A
C538   F561    1.355   .     S
C539   C551    1.403   .     A
C539   I571    2.126   .     S
C540   C551    1.401   .     A
C540   I570    2.158   .     S
C541   C601    1.354   .     S
C541   I626    2.138   .     S
C542   C659    1.354   1_455 S
C542   I686    2.142   1_455 S
C543   C550    1.406   .     A
C543   F564    1.358   .     S
C543   C552    1.393   .     A
C544   C547    1.454   .     S
C544   C722    1.341   .     S
C544   I746    2.136   .     S
C545   C546    1.432   .     S
C545   C898    1.341   1_545 S
C545   F916    1.362   1_545 S
C546   O579    1.281   .     A
C546   O585    1.274   .     A
C547   O586    1.271   .     A
C547   O580    1.270   .     A
C548   C551    1.456   .     S
C548   O575    1.276   .     A
C548   O577    1.273   .     A
C549   O576    1.283   .     A
C549   O578    1.292   .     A
C549   C550    1.474   .     S
C550   C553    1.397   .     A
C552   F563    1.358   .     S
C552   C555    1.408   .     A
C553   H566    1.079   .     S
C553   C554    1.404   .     A
C554   C555    1.419   .     A
C554   C556    1.423   .     A
C555   C28     1.399   1_556 S
C556   C26     1.417   1_556 S
C557   C558    1.414   .     A
C558   F565    1.358   .     S
C558   C559    1.388   .     A
C559   F560    1.358   .     S
F562   C722    1.362   .     S
I567   C659    2.138   1_455 S
I568   C601    2.142   .     S
I569   C898    2.136   1_545 S
O574   Zn590   1.933   .     S
O574   Zn587   1.967   .     S
O574   Zn588   1.942   .     S
O574   Zn589   1.931   .     S
O575   Zn588   1.924   .     S
O576   Zn590   1.937   .     S
O577   Zn589   1.929   .     S
O578   Zn587   1.919   .     S
O579   Zn587   1.929   .     S
O580   Zn590   1.932   .     S
O581   Zn588   1.935   .     S
O582   Zn589   1.947   .     S
O583   Zn590   1.939   .     S
O584   Zn587   1.929   .     S
O585   Zn588   1.941   .     S
O586   Zn589   1.934   .     S
C591   O640    1.265   .     A
C591   O642    1.267   .     A
C591   C601    1.430   .     S
C592   C593    1.410   .     A
C592   I632    2.154   .     S
C592   C615    1.421   .     A
C593   I631    2.147   .     S
C593   C64     1.416   1_556 S
C594   O643    1.272   .     A
C594   O641    1.290   .     A
C594   C600    1.459   .     S
C595   C597    1.413   .     A
C595   C596    1.418   .     A
C596   C599    1.411   .     A
C596   C616    1.415   .     A
C597   C598    1.398   .     A
C597   F620    1.355   .     S
C598   C610    1.403   .     A
C598   I630    2.126   .     S
C599   C610    1.401   .     A
C599   I629    2.158   .     S
C600   C660    1.354   .     S
C600   I685    2.138   .     S
C602   C609    1.406   .     A
C602   F623    1.358   .     S
C602   C611    1.393   .     A
C603   C606    1.454   .     S
C603   C781    1.341   .     S
C603   I805    2.136   .     S
C604   C605    1.432   .     S
C604   C957    1.341   1_545 S
C604   F975    1.362   1_545 S
C605   O638    1.281   .     A
C605   O644    1.274   .     A
C606   O645    1.271   .     A
C606   O639    1.270   .     A
C607   C610    1.456   .     S
C607   O634    1.276   .     A
C607   O636    1.273   .     A
C608   O635    1.283   .     A
C608   O637    1.292   .     A
C608   C609    1.474   .     S
C609   C612    1.397   .     A
C611   F622    1.358   .     S
C611   C614    1.408   .     A
C612   H625    1.079   .     S
C612   C613    1.404   .     A
C613   C614    1.419   .     A
C613   C615    1.423   .     A
C614   C87     1.399   1_556 S
C615   C85     1.417   1_556 S
C616   C617    1.414   .     A
C617   F624    1.358   .     S
C617   C618    1.388   .     A
C618   F619    1.358   .     S
F621   C781    1.362   .     S
I627   C660    2.142   .     S
I628   C957    2.136   1_545 S
O633   Zn649   1.933   .     S
O633   Zn646   1.967   .     S
O633   Zn647   1.942   .     S
O633   Zn648   1.931   .     S
O634   Zn647   1.924   .     S
O635   Zn649   1.937   .     S
O636   Zn648   1.929   .     S
O637   Zn646   1.919   .     S
O638   Zn646   1.929   .     S
O639   Zn649   1.932   .     S
O640   Zn647   1.935   .     S
O641   Zn648   1.947   .     S
O642   Zn649   1.939   .     S
O643   Zn646   1.929   .     S
O644   Zn647   1.941   .     S
O645   Zn648   1.934   .     S
C650   O699    1.265   .     A
C650   O701    1.267   .     A
C650   C660    1.430   .     S
C651   C652    1.410   .     A
C651   I691    2.154   .     S
C651   C674    1.421   .     A
C652   I690    2.147   .     S
C652   C123    1.416   1_556 S
C653   O702    1.272   .     A
C653   O700    1.290   .     A
C653   C659    1.459   .     S
C654   C656    1.413   .     A
C654   C655    1.418   .     A
C655   C658    1.411   .     A
C655   C675    1.415   .     A
C656   C657    1.398   .     A
C656   F679    1.355   .     S
C657   C669    1.403   .     A
C657   I689    2.126   .     S
C658   C669    1.401   .     A
C658   I688    2.158   .     S
C659   C542    1.354   1_655 S
C659   I567    2.138   1_655 S
C661   C668    1.406   .     A
C661   F682    1.358   .     S
C661   C670    1.393   .     A
C662   C665    1.454   .     S
C662   C840    1.341   .     S
C662   I864    2.136   .     S
C663   C664    1.432   .     S
C663   C1016   1.341   1_545 S
C663   F1034   1.362   1_545 S
C664   O697    1.281   .     A
C664   O703    1.274   .     A
C665   O704    1.271   .     A
C665   O698    1.270   .     A
C666   C669    1.456   .     S
C666   O693    1.276   .     A
C666   O695    1.273   .     A
C667   O694    1.283   .     A
C667   O696    1.292   .     A
C667   C668    1.474   .     S
C668   C671    1.397   .     A
C670   F681    1.358   .     S
C670   C673    1.408   .     A
C671   H684    1.079   .     S
C671   C672    1.404   .     A
C672   C673    1.419   .     A
C672   C674    1.423   .     A
C673   C146    1.399   1_556 S
C674   C144    1.417   1_556 S
C675   C676    1.414   .     A
C676   F683    1.358   .     S
C676   C677    1.388   .     A
C677   F678    1.358   .     S
F680   C840    1.362   .     S
I686   C542    2.142   1_655 S
I687   C1016   2.136   1_545 S
O692   Zn708   1.933   .     S
O692   Zn705   1.967   .     S
O692   Zn706   1.942   .     S
O692   Zn707   1.931   .     S
O693   Zn706   1.924   .     S
O694   Zn708   1.937   .     S
O695   Zn707   1.929   .     S
O696   Zn705   1.919   .     S
O697   Zn705   1.929   .     S
O698   Zn708   1.932   .     S
O699   Zn706   1.935   .     S
O700   Zn707   1.947   .     S
O701   Zn708   1.939   .     S
O702   Zn705   1.929   .     S
O703   Zn706   1.941   .     S
O704   Zn707   1.934   .     S
C709   O758    1.265   .     A
C709   O760    1.267   .     A
C709   C719    1.430   .     S
C710   C711    1.410   .     A
C710   I750    2.154   .     S
C710   C733    1.421   .     A
C711   I749    2.147   .     S
C711   C182    1.416   1_556 S
C712   O761    1.272   .     A
C712   O759    1.290   .     A
C712   C718    1.459   .     S
C713   C715    1.413   .     A
C713   C714    1.418   .     A
C714   C717    1.411   .     A
C714   C734    1.415   .     A
C715   C716    1.398   .     A
C715   F738    1.355   .     S
C716   C728    1.403   .     A
C716   I748    2.126   .     S
C717   C728    1.401   .     A
C717   I747    2.158   .     S
C718   C778    1.354   .     S
C718   I803    2.138   .     S
C719   C836    1.354   1_455 S
C719   I863    2.142   1_455 S
C720   C727    1.406   .     A
C720   F741    1.358   .     S
C720   C729    1.393   .     A
C721   C724    1.454   .     S
C721   C899    1.341   .     S
C721   I923    2.136   .     S
C722   C723    1.432   .     S
C723   O756    1.281   .     A
C723   O762    1.274   .     A
C724   O763    1.271   .     A
C724   O757    1.270   .     A
C725   C728    1.456   .     S
C725   O752    1.276   .     A
C725   O754    1.273   .     A
C726   O753    1.283   .     A
C726   O755    1.292   .     A
C726   C727    1.474   .     S
C727   C730    1.397   .     A
C729   F740    1.358   .     S
C729   C732    1.408   .     A
C730   H743    1.079   .     S
C730   C731    1.404   .     A
C731   C732    1.419   .     A
C731   C733    1.423   .     A
C732   C205    1.399   1_556 S
C733   C203    1.417   1_556 S
C734   C735    1.414   .     A
C735   F742    1.358   .     S
C735   C736    1.388   .     A
C736   F737    1.358   .     S
F739   C899    1.362   .     S
I744   C836    2.138   1_455 S
I745   C778    2.142   .     S
O751   Zn767   1.933   .     S
O751   Zn764   1.967   .     S
O751   Zn765   1.942   .     S
O751   Zn766   1.931   .     S
O752   Zn765   1.924   .     S
O753   Zn767   1.937   .     S
O754   Zn766   1.929   .     S
O755   Zn764   1.919   .     S
O756   Zn764   1.929   .     S
O757   Zn767   1.932   .     S
O758   Zn765   1.935   .     S
O759   Zn766   1.947   .     S
O760   Zn767   1.939   .     S
O761   Zn764   1.929   .     S
O762   Zn765   1.941   .     S
O763   Zn766   1.934   .     S
C768   O817    1.265   .     A
C768   O819    1.267   .     A
C768   C778    1.430   .     S
C769   C770    1.410   .     A
C769   I809    2.154   .     S
C769   C792    1.421   .     A
C770   I808    2.147   .     S
C770   C241    1.416   1_556 S
C771   O820    1.272   .     A
C771   O818    1.290   .     A
C771   C777    1.459   .     S
C772   C774    1.413   .     A
C772   C773    1.418   .     A
C773   C776    1.411   .     A
C773   C793    1.415   .     A
C774   C775    1.398   .     A
C774   F797    1.355   .     S
C775   C787    1.403   .     A
C775   I807    2.126   .     S
C776   C787    1.401   .     A
C776   I806    2.158   .     S
C777   C837    1.354   .     S
C777   I862    2.138   .     S
C779   C786    1.406   .     A
C779   F800    1.358   .     S
C779   C788    1.393   .     A
C780   C783    1.454   .     S
C780   C958    1.341   .     S
C780   I982    2.136   .     S
C781   C782    1.432   .     S
C782   O815    1.281   .     A
C782   O821    1.274   .     A
C783   O822    1.271   .     A
C783   O816    1.270   .     A
C784   C787    1.456   .     S
C784   O811    1.276   .     A
C784   O813    1.273   .     A
C785   O812    1.283   .     A
C785   O814    1.292   .     A
C785   C786    1.474   .     S
C786   C789    1.397   .     A
C788   F799    1.358   .     S
C788   C791    1.408   .     A
C789   H802    1.079   .     S
C789   C790    1.404   .     A
C790   C791    1.419   .     A
C790   C792    1.423   .     A
C791   C264    1.399   1_556 S
C792   C262    1.417   1_556 S
C793   C794    1.414   .     A
C794   F801    1.358   .     S
C794   C795    1.388   .     A
C795   F796    1.358   .     S
F798   C958    1.362   .     S
I804   C837    2.142   .     S
O810   Zn826   1.933   .     S
O810   Zn823   1.967   .     S
O810   Zn824   1.942   .     S
O810   Zn825   1.931   .     S
O811   Zn824   1.924   .     S
O812   Zn826   1.937   .     S
O813   Zn825   1.929   .     S
O814   Zn823   1.919   .     S
O815   Zn823   1.929   .     S
O816   Zn826   1.932   .     S
O817   Zn824   1.935   .     S
O818   Zn825   1.947   .     S
O819   Zn826   1.939   .     S
O820   Zn823   1.929   .     S
O821   Zn824   1.941   .     S
O822   Zn825   1.934   .     S
C827   O876    1.265   .     A
C827   O878    1.267   .     A
C827   C837    1.430   .     S
C828   C829    1.410   .     A
C828   I868    2.154   .     S
C828   C851    1.421   .     A
C829   I867    2.147   .     S
C829   C300    1.416   1_556 S
C830   O879    1.272   .     A
C830   O877    1.290   .     A
C830   C836    1.459   .     S
C831   C833    1.413   .     A
C831   C832    1.418   .     A
C832   C835    1.411   .     A
C832   C852    1.415   .     A
C833   C834    1.398   .     A
C833   F856    1.355   .     S
C834   C846    1.403   .     A
C834   I866    2.126   .     S
C835   C846    1.401   .     A
C835   I865    2.158   .     S
C836   C719    1.354   1_655 S
C836   I744    2.138   1_655 S
C838   C845    1.406   .     A
C838   F859    1.358   .     S
C838   C847    1.393   .     A
C839   C842    1.454   .     S
C839   C1017   1.341   .     S
C839   I1041   2.136   .     S
C840   C841    1.432   .     S
C841   O874    1.281   .     A
C841   O880    1.274   .     A
C842   O881    1.271   .     A
C842   O875    1.270   .     A
C843   C846    1.456   .     S
C843   O870    1.276   .     A
C843   O872    1.273   .     A
C844   O871    1.283   .     A
C844   O873    1.292   .     A
C844   C845    1.474   .     S
C845   C848    1.397   .     A
C847   F858    1.358   .     S
C847   C850    1.408   .     A
C848   H861    1.079   .     S
C848   C849    1.404   .     A
C849   C850    1.419   .     A
C849   C851    1.423   .     A
C850   C323    1.399   1_556 S
C851   C321    1.417   1_556 S
C852   C853    1.414   .     A
C853   F860    1.358   .     S
C853   C854    1.388   .     A
C854   F855    1.358   .     S
F857   C1017   1.362   .     S
I863   C719    2.142   1_655 S
O869   Zn885   1.933   .     S
O869   Zn882   1.967   .     S
O869   Zn883   1.942   .     S
O869   Zn884   1.931   .     S
O870   Zn883   1.924   .     S
O871   Zn885   1.937   .     S
O872   Zn884   1.929   .     S
O873   Zn882   1.919   .     S
O874   Zn882   1.929   .     S
O875   Zn885   1.932   .     S
O876   Zn883   1.935   .     S
O877   Zn884   1.947   .     S
O878   Zn885   1.939   .     S
O879   Zn882   1.929   .     S
O880   Zn883   1.941   .     S
O881   Zn884   1.934   .     S
C886   O935    1.265   .     A
C886   O937    1.267   .     A
C886   C896    1.430   .     S
C887   C888    1.410   .     A
C887   I927    2.154   .     S
C887   C910    1.421   .     A
C888   I926    2.147   .     S
C888   C359    1.416   1_556 S
C889   O938    1.272   .     A
C889   O936    1.290   .     A
C889   C895    1.459   .     S
C890   C892    1.413   .     A
C890   C891    1.418   .     A
C891   C894    1.411   .     A
C891   C911    1.415   .     A
C892   C893    1.398   .     A
C892   F915    1.355   .     S
C893   C905    1.403   .     A
C893   I925    2.126   .     S
C894   C905    1.401   .     A
C894   I924    2.158   .     S
C895   C955    1.354   .     S
C895   I980    2.138   .     S
C896   C1013   1.354   1_455 S
C896   I1040   2.142   1_455 S
C897   C904    1.406   .     A
C897   F918    1.358   .     S
C897   C906    1.393   .     A
C898   C901    1.454   .     S
C898   C545    1.341   1_565 S
C898   I569    2.136   1_565 S
C899   C900    1.432   .     S
C900   O933    1.281   .     A
C900   O939    1.274   .     A
C901   O940    1.271   .     A
C901   O934    1.270   .     A
C902   C905    1.456   .     S
C902   O929    1.276   .     A
C902   O931    1.273   .     A
C903   O930    1.283   .     A
C903   O932    1.292   .     A
C903   C904    1.474   .     S
C904   C907    1.397   .     A
C906   F917    1.358   .     S
C906   C909    1.408   .     A
C907   H920    1.079   .     S
C907   C908    1.404   .     A
C908   C909    1.419   .     A
C908   C910    1.423   .     A
C909   C382    1.399   1_556 S
C910   C380    1.417   1_556 S
C911   C912    1.414   .     A
C912   F919    1.358   .     S
C912   C913    1.388   .     A
C913   F914    1.358   .     S
F916   C545    1.362   1_565 S
I921   C1013   2.138   1_455 S
I922   C955    2.142   .     S
O928   Zn944   1.933   .     S
O928   Zn941   1.967   .     S
O928   Zn942   1.942   .     S
O928   Zn943   1.931   .     S
O929   Zn942   1.924   .     S
O930   Zn944   1.937   .     S
O931   Zn943   1.929   .     S
O932   Zn941   1.919   .     S
O933   Zn941   1.929   .     S
O934   Zn944   1.932   .     S
O935   Zn942   1.935   .     S
O936   Zn943   1.947   .     S
O937   Zn944   1.939   .     S
O938   Zn941   1.929   .     S
O939   Zn942   1.941   .     S
O940   Zn943   1.934   .     S
C945   O994    1.265   .     A
C945   O996    1.267   .     A
C945   C955    1.430   .     S
C946   C947    1.410   .     A
C946   I986    2.154   .     S
C946   C969    1.421   .     A
C947   I985    2.147   .     S
C947   C418    1.416   1_556 S
C948   O997    1.272   .     A
C948   O995    1.290   .     A
C948   C954    1.459   .     S
C949   C951    1.413   .     A
C949   C950    1.418   .     A
C950   C953    1.411   .     A
C950   C970    1.415   .     A
C951   C952    1.398   .     A
C951   F974    1.355   .     S
C952   C964    1.403   .     A
C952   I984    2.126   .     S
C953   C964    1.401   .     A
C953   I983    2.158   .     S
C954   C1014   1.354   .     S
C954   I1039   2.138   .     S
C956   C963    1.406   .     A
C956   F977    1.358   .     S
C956   C965    1.393   .     A
C957   C960    1.454   .     S
C957   C604    1.341   1_565 S
C957   I628    2.136   1_565 S
C958   C959    1.432   .     S
C959   O992    1.281   .     A
C959   O998    1.274   .     A
C960   O999    1.271   .     A
C960   O993    1.270   .     A
C961   C964    1.456   .     S
C961   O988    1.276   .     A
C961   O990    1.273   .     A
C962   O989    1.283   .     A
C962   O991    1.292   .     A
C962   C963    1.474   .     S
C963   C966    1.397   .     A
C965   F976    1.358   .     S
C965   C968    1.408   .     A
C966   H979    1.079   .     S
C966   C967    1.404   .     A
C967   C968    1.419   .     A
C967   C969    1.423   .     A
C968   C441    1.399   1_556 S
C969   C439    1.417   1_556 S
C970   C971    1.414   .     A
C971   F978    1.358   .     S
C971   C972    1.388   .     A
C972   F973    1.358   .     S
F975   C604    1.362   1_565 S
I981   C1014   2.142   .     S
O987   Zn1003  1.933   .     S
O987   Zn1000  1.967   .     S
O987   Zn1001  1.942   .     S
O987   Zn1002  1.931   .     S
O988   Zn1001  1.924   .     S
O989   Zn1003  1.937   .     S
O990   Zn1002  1.929   .     S
O991   Zn1000  1.919   .     S
O992   Zn1000  1.929   .     S
O993   Zn1003  1.932   .     S
O994   Zn1001  1.935   .     S
O995   Zn1002  1.947   .     S
O996   Zn1003  1.939   .     S
O997   Zn1000  1.929   .     S
O998   Zn1001  1.941   .     S
O999   Zn1002  1.934   .     S
C1004  O1053   1.265   .     A
C1004  O1055   1.267   .     A
C1004  C1014   1.430   .     S
C1005  C1006   1.410   .     A
C1005  I1045   2.154   .     S
C1005  C1028   1.421   .     A
C1006  I1044   2.147   .     S
C1006  C477    1.416   1_556 S
C1007  O1056   1.272   .     A
C1007  O1054   1.290   .     A
C1007  C1013   1.459   .     S
C1008  C1010   1.413   .     A
C1008  C1009   1.418   .     A
C1009  C1012   1.411   .     A
C1009  C1029   1.415   .     A
C1010  C1011   1.398   .     A
C1010  F1033   1.355   .     S
C1011  C1023   1.403   .     A
C1011  I1043   2.126   .     S
C1012  C1023   1.401   .     A
C1012  I1042   2.158   .     S
C1013  C896    1.354   1_655 S
C1013  I921    2.138   1_655 S
C1015  C1022   1.406   .     A
C1015  F1036   1.358   .     S
C1015  C1024   1.393   .     A
C1016  C1019   1.454   .     S
C1016  C663    1.341   1_565 S
C1016  I687    2.136   1_565 S
C1017  C1018   1.432   .     S
C1018  O1051   1.281   .     A
C1018  O1057   1.274   .     A
C1019  O1058   1.271   .     A
C1019  O1052   1.270   .     A
C1020  C1023   1.456   .     S
C1020  O1047   1.276   .     A
C1020  O1049   1.273   .     A
C1021  O1048   1.283   .     A
C1021  O1050   1.292   .     A
C1021  C1022   1.474   .     S
C1022  C1025   1.397   .     A
C1024  F1035   1.358   .     S
C1024  C1027   1.408   .     A
C1025  H1038   1.079   .     S
C1025  C1026   1.404   .     A
C1026  C1027   1.419   .     A
C1026  C1028   1.423   .     A
C1027  C500    1.399   1_556 S
C1028  C498    1.417   1_556 S
C1029  C1030   1.414   .     A
C1030  F1037   1.358   .     S
C1030  C1031   1.388   .     A
C1031  F1032   1.358   .     S
F1034  C663    1.362   1_565 S
I1040  C896    2.142   1_655 S
O1046  Zn1062  1.933   .     S
O1046  Zn1059  1.967   .     S
O1046  Zn1060  1.942   .     S
O1046  Zn1061  1.931   .     S
O1047  Zn1060  1.924   .     S
O1048  Zn1062  1.937   .     S
O1049  Zn1061  1.929   .     S
O1050  Zn1059  1.919   .     S
O1051  Zn1059  1.929   .     S
O1052  Zn1062  1.932   .     S
O1053  Zn1060  1.935   .     S
O1054  Zn1061  1.947   .     S
O1055  Zn1062  1.939   .     S
O1056  Zn1059  1.929   .     S
O1057  Zn1060  1.941   .     S
O1058  Zn1061  1.934   .     S
