data_str_m1_o10_o16_pcu_sym.87
_audit_creation_date              2020-01-03
_audit_creation_method            'Materials Studio'
_symmetry_space_group_name_H-M    'P1'
_symmetry_Int_Tables_number       1
_symmetry_cell_setting            triclinic
loop_
_symmetry_equiv_pos_as_xyz
  x,y,z
_cell_length_a                    32.8140
_cell_length_b                    32.6165
_cell_length_c                    30.8075
_cell_angle_alpha                 96.1774
_cell_angle_beta                  74.2405
_cell_angle_gamma                 98.6740
loop_
_atom_site_label
_atom_site_type_symbol
_atom_site_fract_x
_atom_site_fract_y
_atom_site_fract_z
_atom_site_U_iso_or_equiv
_atom_site_adp_type
_atom_site_occupancy
C1     C     0.05317   0.15980   0.25981   0.00000  Uiso   1.00
C2     C     0.16807   0.15440   0.05906   0.00000  Uiso   1.00
C3     C     0.23428   0.12724   0.05422   0.00000  Uiso   1.00
C4     C     0.28089   0.17386   0.24011   0.00000  Uiso   1.00
C5     C     0.13579   0.18840   0.42145   0.00000  Uiso   1.00
C6     C     0.32676   0.17678   0.23668   0.00000  Uiso   1.00
C7     C     0.00807   0.15645   0.26475   0.00000  Uiso   1.00
C8     C     0.18187   0.32305   0.23660   0.00000  Uiso   1.00
C9     C     0.15216   0.01204   0.26351   0.00000  Uiso   1.00
C10    C     0.15587   0.05609   0.26052   0.00000  Uiso   1.00
C11    C     0.17690   0.27809   0.24010   0.00000  Uiso   1.00
C12    C     0.07798   0.18034   0.49006   0.00000  Uiso   1.00
C13    C     0.18587   0.14814   0.12917   0.00000  Uiso   1.00
C14    C     0.14788   0.18429   0.37121   0.00000  Uiso   1.00
C15    C     0.24664   0.13114   0.00680   0.00000  Uiso   1.00
C16    C     0.19569   0.14126   0.08004   0.00000  Uiso   1.00
C17    C     0.09242   0.19127   0.44529   0.00000  Uiso   1.00
C18    C     0.26282   0.10981   0.07709   0.00000  Uiso   1.00
C19    C     0.31447   0.12879   0.30127   0.00000  Uiso   1.00
C20    C     0.22027   0.01042   0.20289   0.00000  Uiso   1.00
C21    C     0.28688   0.11470   0.47766   0.00000  Uiso   1.00
C22    C     0.06029   0.20300   0.42313   0.00000  Uiso   1.00
C23    C     0.10512   0.16624   0.01097   0.00000  Uiso   1.00
C24    C     0.23196   0.21674   0.39019   0.00000  Uiso   1.00
C25    C     0.02442   0.20300   0.20095   0.00000  Uiso   1.00
C26    C     0.14956   0.16849   0.49026   0.00000  Uiso   1.00
C27    C     0.16530   0.18154   0.44553   0.00000  Uiso   1.00
C28    C     0.17861   0.15681   0.01214   0.00000  Uiso   1.00
C29    C     0.22060   0.15050   0.48691   0.00000  Uiso   1.00
C30    C     0.23643   0.16725   0.44430   0.00000  Uiso   1.00
C31    C     0.21017   0.18666   0.42616   0.00000  Uiso   1.00
F32    F     0.11672   0.32769   0.29314   0.00000  Uiso   1.00
F33    F     0.27869   0.17009   0.42269   0.00000  Uiso   1.00
F34    F     0.08635   0.14752   0.05002   0.00000  Uiso   1.00
F35    F     0.03621   0.17994   0.01287   0.00000  Uiso   1.00
H36    H     0.14043   0.16712   0.08076   0.00000  Uiso   1.00
H37    H     0.23923   0.03385   0.22094   0.00000  Uiso   1.00
H38    H     0.28149   0.10018   0.44505   0.00000  Uiso   1.00
H39    H     0.31358   0.14036   0.47128   0.00000  Uiso   1.00
H40    H     0.29678   0.09000   0.49304   0.00000  Uiso   1.00
H41    H     0.02859   0.20549   0.44715   0.00000  Uiso   1.00
H42    H     0.07159   0.23396   0.40931   0.00000  Uiso   1.00
H43    H     0.05541   0.17916   0.39582   0.00000  Uiso   1.00
H44    H     0.25831   0.23733   0.40072   0.00000  Uiso   1.00
H45    H     0.24571   0.19966   0.35764   0.00000  Uiso   1.00
H46    H     0.21017   0.23774   0.38537   0.00000  Uiso   1.00
H47    H     0.25092   0.11092   0.11442   0.00000  Uiso   1.00
H48    H     0.00807   0.21768   0.18069   0.00000  Uiso   1.00
H49    H     0.04301   0.22830   0.21733   0.00000  Uiso   1.00
H50    H     0.04672   0.18329   0.17720   0.00000  Uiso   1.00
H51    H     0.26492   0.07660   0.06552   0.00000  Uiso   1.00
H52    H     0.29521   0.12772   0.06885   0.00000  Uiso   1.00
H53    H     0.00131   0.11575   0.31874   0.00000  Uiso   1.00
H54    H     0.29256   0.14687   0.32757   0.00000  Uiso   1.00
H55    H     0.29647   0.10195   0.28630   0.00000  Uiso   1.00
H56    H     0.24174   0.32122   0.18330   0.00000  Uiso   1.00
H57    H     0.20950   0.02607   0.17845   0.00000  Uiso   1.00
O58    O     0.16667   0.16667   0.25000   0.00000  Uiso   1.00
O59    O     0.15451   0.12637   0.15458   0.00000  Uiso   1.00
O60    O     0.12940   0.20391   0.34968   0.00000  Uiso   1.00
O61    O     0.20824   0.17759   0.14606   0.00000  Uiso   1.00
O62    O     0.17451   0.15880   0.34968   0.00000  Uiso   1.00
O63    O     0.17930   0.08019   0.28213   0.00000  Uiso   1.00
O64    O     0.14632   0.26085   0.27013   0.00000  Uiso   1.00
O65    O     0.07412   0.13291   0.23413   0.00000  Uiso   1.00
O66    O     0.26693   0.19272   0.21360   0.00000  Uiso   1.00
O67    O     0.07071   0.18878   0.28213   0.00000  Uiso   1.00
O68    O     0.25491   0.15226   0.27013   0.00000  Uiso   1.00
O69    O     0.13760   0.06944   0.23413   0.00000  Uiso   1.00
O70    O     0.20345   0.25620   0.21360   0.00000  Uiso   1.00
Zn71   Zn    0.19338   0.13994   0.28734   0.00000  Uiso   1.00
Zn72   Zn    0.13379   0.12458   0.21875   0.00000  Uiso   1.00
Zn73   Zn    0.21056   0.19775   0.20657   0.00000  Uiso   1.00
Zn74   Zn    0.12893   0.20439   0.28733   0.00000  Uiso   1.00
C75    C     0.38650   0.15980   0.25981   0.00000  Uiso   1.00
C76    C     0.50140   0.15440   0.05906   0.00000  Uiso   1.00
C77    C     0.56761   0.12724   0.05422   0.00000  Uiso   1.00
C78    C     0.61422   0.17386   0.24011   0.00000  Uiso   1.00
C79    C     0.46913   0.18840   0.42145   0.00000  Uiso   1.00
C80    C     0.66009   0.17678   0.23668   0.00000  Uiso   1.00
C81    C     0.34141   0.15645   0.26475   0.00000  Uiso   1.00
C82    C     0.51520   0.32305   0.23660   0.00000  Uiso   1.00
C83    C     0.48550   0.01204   0.26351   0.00000  Uiso   1.00
C84    C     0.48921   0.05609   0.26052   0.00000  Uiso   1.00
C85    C     0.51024   0.27809   0.24010   0.00000  Uiso   1.00
C86    C     0.41131   0.18034   0.49006   0.00000  Uiso   1.00
C87    C     0.51920   0.14814   0.12917   0.00000  Uiso   1.00
C88    C     0.48122   0.18429   0.37121   0.00000  Uiso   1.00
C89    C     0.57997   0.13114   0.00680   0.00000  Uiso   1.00
C90    C     0.52903   0.14126   0.08004   0.00000  Uiso   1.00
C91    C     0.42575   0.19127   0.44529   0.00000  Uiso   1.00
C92    C     0.59615   0.10981   0.07709   0.00000  Uiso   1.00
C93    C     0.64780   0.12879   0.30127   0.00000  Uiso   1.00
C94    C     0.55361   0.01042   0.20289   0.00000  Uiso   1.00
C95    C     0.62022   0.11470   0.47766   0.00000  Uiso   1.00
C96    C     0.39362   0.20300   0.42313   0.00000  Uiso   1.00
C97    C     0.43845   0.16624   0.01097   0.00000  Uiso   1.00
C98    C     0.56529   0.21674   0.39019   0.00000  Uiso   1.00
C99    C     0.35775   0.20300   0.20095   0.00000  Uiso   1.00
C100   C     0.48289   0.16849   0.49026   0.00000  Uiso   1.00
C101   C     0.49863   0.18154   0.44553   0.00000  Uiso   1.00
C102   C     0.51195   0.15681   0.01214   0.00000  Uiso   1.00
C103   C     0.55394   0.15050   0.48691   0.00000  Uiso   1.00
C104   C     0.56977   0.16725   0.44430   0.00000  Uiso   1.00
C105   C     0.54350   0.18666   0.42616   0.00000  Uiso   1.00
F106   F     0.45005   0.32769   0.29314   0.00000  Uiso   1.00
F107   F     0.61202   0.17009   0.42269   0.00000  Uiso   1.00
F108   F     0.41968   0.14752   0.05002   0.00000  Uiso   1.00
F109   F     0.36955   0.17994   0.01287   0.00000  Uiso   1.00
H110   H     0.47376   0.16712   0.08076   0.00000  Uiso   1.00
H111   H     0.57256   0.03385   0.22094   0.00000  Uiso   1.00
H112   H     0.61482   0.10018   0.44505   0.00000  Uiso   1.00
H113   H     0.64691   0.14036   0.47128   0.00000  Uiso   1.00
H114   H     0.63011   0.09000   0.49304   0.00000  Uiso   1.00
H115   H     0.36193   0.20549   0.44715   0.00000  Uiso   1.00
H116   H     0.40493   0.23396   0.40931   0.00000  Uiso   1.00
H117   H     0.38874   0.17916   0.39582   0.00000  Uiso   1.00
H118   H     0.59164   0.23733   0.40072   0.00000  Uiso   1.00
H119   H     0.57904   0.19966   0.35764   0.00000  Uiso   1.00
H120   H     0.54350   0.23774   0.38537   0.00000  Uiso   1.00
H121   H     0.58426   0.11092   0.11442   0.00000  Uiso   1.00
H122   H     0.34140   0.21768   0.18069   0.00000  Uiso   1.00
H123   H     0.37635   0.22830   0.21733   0.00000  Uiso   1.00
H124   H     0.38005   0.18329   0.17720   0.00000  Uiso   1.00
H125   H     0.59825   0.07660   0.06552   0.00000  Uiso   1.00
H126   H     0.62854   0.12772   0.06885   0.00000  Uiso   1.00
H127   H     0.33465   0.11575   0.31874   0.00000  Uiso   1.00
H128   H     0.62590   0.14687   0.32757   0.00000  Uiso   1.00
H129   H     0.62980   0.10195   0.28630   0.00000  Uiso   1.00
H130   H     0.57507   0.32122   0.18330   0.00000  Uiso   1.00
H131   H     0.54283   0.02607   0.17845   0.00000  Uiso   1.00
O132   O     0.50000   0.16667   0.25000   0.00000  Uiso   1.00
O133   O     0.48784   0.12637   0.15458   0.00000  Uiso   1.00
O134   O     0.46274   0.20391   0.34968   0.00000  Uiso   1.00
O135   O     0.54157   0.17759   0.14606   0.00000  Uiso   1.00
O136   O     0.50785   0.15880   0.34968   0.00000  Uiso   1.00
O137   O     0.51264   0.08019   0.28213   0.00000  Uiso   1.00
O138   O     0.47965   0.26085   0.27013   0.00000  Uiso   1.00
O139   O     0.40745   0.13291   0.23413   0.00000  Uiso   1.00
O140   O     0.60026   0.19272   0.21360   0.00000  Uiso   1.00
O141   O     0.40405   0.18878   0.28213   0.00000  Uiso   1.00
O142   O     0.58824   0.15226   0.27013   0.00000  Uiso   1.00
O143   O     0.47093   0.06944   0.23413   0.00000  Uiso   1.00
O144   O     0.53678   0.25620   0.21360   0.00000  Uiso   1.00
Zn145  Zn    0.52672   0.13994   0.28734   0.00000  Uiso   1.00
Zn146  Zn    0.46713   0.12458   0.21875   0.00000  Uiso   1.00
Zn147  Zn    0.54389   0.19775   0.20657   0.00000  Uiso   1.00
Zn148  Zn    0.46226   0.20439   0.28733   0.00000  Uiso   1.00
C149   C     0.71984   0.15980   0.25981   0.00000  Uiso   1.00
C150   C     0.83473   0.15440   0.05906   0.00000  Uiso   1.00
C151   C     0.90094   0.12724   0.05422   0.00000  Uiso   1.00
C152   C     0.94756   0.17386   0.24011   0.00000  Uiso   1.00
C153   C     0.80246   0.18840   0.42145   0.00000  Uiso   1.00
C154   C     0.99343   0.17678   0.23668   0.00000  Uiso   1.00
C155   C     0.67474   0.15645   0.26475   0.00000  Uiso   1.00
C156   C     0.84853   0.32305   0.23660   0.00000  Uiso   1.00
C157   C     0.81883   0.01204   0.26351   0.00000  Uiso   1.00
C158   C     0.82254   0.05609   0.26052   0.00000  Uiso   1.00
C159   C     0.84357   0.27809   0.24010   0.00000  Uiso   1.00
C160   C     0.74465   0.18034   0.49006   0.00000  Uiso   1.00
C161   C     0.85253   0.14814   0.12917   0.00000  Uiso   1.00
C162   C     0.81455   0.18429   0.37121   0.00000  Uiso   1.00
C163   C     0.91330   0.13114   0.00680   0.00000  Uiso   1.00
C164   C     0.86236   0.14126   0.08004   0.00000  Uiso   1.00
C165   C     0.75908   0.19127   0.44529   0.00000  Uiso   1.00
C166   C     0.92949   0.10981   0.07709   0.00000  Uiso   1.00
C167   C     0.98114   0.12879   0.30127   0.00000  Uiso   1.00
C168   C     0.88694   0.01042   0.20289   0.00000  Uiso   1.00
C169   C     0.95355   0.11470   0.47766   0.00000  Uiso   1.00
C170   C     0.72696   0.20300   0.42313   0.00000  Uiso   1.00
C171   C     0.77179   0.16624   0.01097   0.00000  Uiso   1.00
C172   C     0.89862   0.21674   0.39019   0.00000  Uiso   1.00
C173   C     0.69109   0.20300   0.20095   0.00000  Uiso   1.00
C174   C     0.81622   0.16849   0.49026   0.00000  Uiso   1.00
C175   C     0.83197   0.18154   0.44553   0.00000  Uiso   1.00
C176   C     0.84528   0.15681   0.01214   0.00000  Uiso   1.00
C177   C     0.88727   0.15050   0.48691   0.00000  Uiso   1.00
C178   C     0.90310   0.16725   0.44430   0.00000  Uiso   1.00
C179   C     0.87683   0.18666   0.42616   0.00000  Uiso   1.00
F180   F     0.78338   0.32769   0.29314   0.00000  Uiso   1.00
F181   F     0.94536   0.17009   0.42269   0.00000  Uiso   1.00
F182   F     0.75302   0.14752   0.05002   0.00000  Uiso   1.00
F183   F     0.70288   0.17994   0.01287   0.00000  Uiso   1.00
H184   H     0.80710   0.16712   0.08076   0.00000  Uiso   1.00
H185   H     0.90590   0.03385   0.22094   0.00000  Uiso   1.00
H186   H     0.94816   0.10018   0.44505   0.00000  Uiso   1.00
H187   H     0.98025   0.14036   0.47128   0.00000  Uiso   1.00
H188   H     0.96344   0.09000   0.49304   0.00000  Uiso   1.00
H189   H     0.69526   0.20549   0.44715   0.00000  Uiso   1.00
H190   H     0.73826   0.23396   0.40931   0.00000  Uiso   1.00
H191   H     0.72208   0.17916   0.39582   0.00000  Uiso   1.00
H192   H     0.92498   0.23733   0.40072   0.00000  Uiso   1.00
H193   H     0.91238   0.19966   0.35764   0.00000  Uiso   1.00
H194   H     0.87684   0.23774   0.38537   0.00000  Uiso   1.00
H195   H     0.91759   0.11092   0.11442   0.00000  Uiso   1.00
H196   H     0.67474   0.21768   0.18069   0.00000  Uiso   1.00
H197   H     0.70968   0.22830   0.21733   0.00000  Uiso   1.00
H198   H     0.71339   0.18329   0.17720   0.00000  Uiso   1.00
H199   H     0.93158   0.07660   0.06552   0.00000  Uiso   1.00
H200   H     0.96188   0.12772   0.06885   0.00000  Uiso   1.00
H201   H     0.66798   0.11575   0.31874   0.00000  Uiso   1.00
H202   H     0.95923   0.14687   0.32757   0.00000  Uiso   1.00
H203   H     0.96313   0.10195   0.28630   0.00000  Uiso   1.00
H204   H     0.90841   0.32122   0.18330   0.00000  Uiso   1.00
H205   H     0.87617   0.02607   0.17845   0.00000  Uiso   1.00
O206   O     0.83333   0.16667   0.25000   0.00000  Uiso   1.00
O207   O     0.82118   0.12637   0.15458   0.00000  Uiso   1.00
O208   O     0.79607   0.20391   0.34968   0.00000  Uiso   1.00
O209   O     0.87491   0.17759   0.14606   0.00000  Uiso   1.00
O210   O     0.84118   0.15880   0.34968   0.00000  Uiso   1.00
O211   O     0.84597   0.08019   0.28213   0.00000  Uiso   1.00
O212   O     0.81298   0.26085   0.27013   0.00000  Uiso   1.00
O213   O     0.74078   0.13291   0.23413   0.00000  Uiso   1.00
O214   O     0.93360   0.19272   0.21360   0.00000  Uiso   1.00
O215   O     0.73738   0.18878   0.28213   0.00000  Uiso   1.00
O216   O     0.92158   0.15226   0.27013   0.00000  Uiso   1.00
O217   O     0.80426   0.06944   0.23413   0.00000  Uiso   1.00
O218   O     0.87012   0.25620   0.21360   0.00000  Uiso   1.00
Zn219  Zn    0.86005   0.13994   0.28734   0.00000  Uiso   1.00
Zn220  Zn    0.80046   0.12458   0.21875   0.00000  Uiso   1.00
Zn221  Zn    0.87723   0.19775   0.20657   0.00000  Uiso   1.00
Zn222  Zn    0.79560   0.20439   0.28733   0.00000  Uiso   1.00
C223   C     0.05317   0.49313   0.25981   0.00000  Uiso   1.00
C224   C     0.16807   0.48774   0.05906   0.00000  Uiso   1.00
C225   C     0.23428   0.46057   0.05422   0.00000  Uiso   1.00
C226   C     0.28089   0.50719   0.24011   0.00000  Uiso   1.00
C227   C     0.13579   0.52173   0.42145   0.00000  Uiso   1.00
C228   C     0.32676   0.51011   0.23668   0.00000  Uiso   1.00
C229   C     0.00807   0.48979   0.26475   0.00000  Uiso   1.00
C230   C     0.18187   0.65638   0.23660   0.00000  Uiso   1.00
C231   C     0.15216   0.34538   0.26351   0.00000  Uiso   1.00
C232   C     0.15587   0.38942   0.26052   0.00000  Uiso   1.00
C233   C     0.17690   0.61142   0.24010   0.00000  Uiso   1.00
C234   C     0.07798   0.51368   0.49006   0.00000  Uiso   1.00
C235   C     0.18587   0.48148   0.12917   0.00000  Uiso   1.00
C236   C     0.14788   0.51762   0.37121   0.00000  Uiso   1.00
C237   C     0.24664   0.46447   0.00680   0.00000  Uiso   1.00
C238   C     0.19569   0.47459   0.08004   0.00000  Uiso   1.00
C239   C     0.09242   0.52460   0.44529   0.00000  Uiso   1.00
C240   C     0.26282   0.44314   0.07709   0.00000  Uiso   1.00
C241   C     0.31447   0.46212   0.30127   0.00000  Uiso   1.00
C242   C     0.22027   0.34375   0.20289   0.00000  Uiso   1.00
C243   C     0.28688   0.44804   0.47766   0.00000  Uiso   1.00
C244   C     0.06029   0.53633   0.42313   0.00000  Uiso   1.00
C245   C     0.10512   0.49957   0.01097   0.00000  Uiso   1.00
C246   C     0.23196   0.55008   0.39019   0.00000  Uiso   1.00
C247   C     0.02442   0.53634   0.20095   0.00000  Uiso   1.00
C248   C     0.14956   0.50182   0.49026   0.00000  Uiso   1.00
C249   C     0.16530   0.51487   0.44553   0.00000  Uiso   1.00
C250   C     0.17861   0.49015   0.01214   0.00000  Uiso   1.00
C251   C     0.22060   0.48383   0.48691   0.00000  Uiso   1.00
C252   C     0.23643   0.50058   0.44430   0.00000  Uiso   1.00
C253   C     0.21017   0.51999   0.42616   0.00000  Uiso   1.00
F254   F     0.11672   0.66102   0.29314   0.00000  Uiso   1.00
F255   F     0.27869   0.50342   0.42269   0.00000  Uiso   1.00
F256   F     0.08635   0.48085   0.05002   0.00000  Uiso   1.00
F257   F     0.03621   0.51328   0.01287   0.00000  Uiso   1.00
H258   H     0.14043   0.50045   0.08076   0.00000  Uiso   1.00
H259   H     0.23923   0.36718   0.22094   0.00000  Uiso   1.00
H260   H     0.28149   0.43352   0.44505   0.00000  Uiso   1.00
H261   H     0.31358   0.47369   0.47128   0.00000  Uiso   1.00
H262   H     0.29678   0.42333   0.49304   0.00000  Uiso   1.00
H263   H     0.02859   0.53882   0.44715   0.00000  Uiso   1.00
H264   H     0.07159   0.56729   0.40931   0.00000  Uiso   1.00
H265   H     0.05541   0.51250   0.39582   0.00000  Uiso   1.00
H266   H     0.25831   0.57067   0.40072   0.00000  Uiso   1.00
H267   H     0.24571   0.53299   0.35764   0.00000  Uiso   1.00
H268   H     0.21017   0.57107   0.38537   0.00000  Uiso   1.00
H269   H     0.25092   0.44425   0.11442   0.00000  Uiso   1.00
H270   H     0.00807   0.55102   0.18069   0.00000  Uiso   1.00
H271   H     0.04301   0.56163   0.21733   0.00000  Uiso   1.00
H272   H     0.04672   0.51663   0.17720   0.00000  Uiso   1.00
H273   H     0.26492   0.40993   0.06552   0.00000  Uiso   1.00
H274   H     0.29521   0.46105   0.06885   0.00000  Uiso   1.00
H275   H     0.00131   0.44908   0.31874   0.00000  Uiso   1.00
H276   H     0.29256   0.48021   0.32757   0.00000  Uiso   1.00
H277   H     0.29647   0.43529   0.28630   0.00000  Uiso   1.00
H278   H     0.24174   0.65455   0.18330   0.00000  Uiso   1.00
H279   H     0.20950   0.35940   0.17845   0.00000  Uiso   1.00
O280   O     0.16667   0.50000   0.25000   0.00000  Uiso   1.00
O281   O     0.15451   0.45970   0.15458   0.00000  Uiso   1.00
O282   O     0.12940   0.53724   0.34968   0.00000  Uiso   1.00
O283   O     0.20824   0.51092   0.14606   0.00000  Uiso   1.00
O284   O     0.17451   0.49213   0.34968   0.00000  Uiso   1.00
O285   O     0.17930   0.41352   0.28213   0.00000  Uiso   1.00
O286   O     0.14632   0.59418   0.27013   0.00000  Uiso   1.00
O287   O     0.07412   0.46625   0.23413   0.00000  Uiso   1.00
O288   O     0.26693   0.52605   0.21360   0.00000  Uiso   1.00
O289   O     0.07071   0.52211   0.28213   0.00000  Uiso   1.00
O290   O     0.25491   0.48559   0.27013   0.00000  Uiso   1.00
O291   O     0.13760   0.40277   0.23413   0.00000  Uiso   1.00
O292   O     0.20345   0.58953   0.21360   0.00000  Uiso   1.00
Zn293  Zn    0.19338   0.47327   0.28734   0.00000  Uiso   1.00
Zn294  Zn    0.13379   0.45791   0.21875   0.00000  Uiso   1.00
Zn295  Zn    0.21056   0.53109   0.20657   0.00000  Uiso   1.00
Zn296  Zn    0.12893   0.53773   0.28733   0.00000  Uiso   1.00
C297   C     0.38650   0.49313   0.25981   0.00000  Uiso   1.00
C298   C     0.50140   0.48774   0.05906   0.00000  Uiso   1.00
C299   C     0.56761   0.46057   0.05422   0.00000  Uiso   1.00
C300   C     0.61422   0.50719   0.24011   0.00000  Uiso   1.00
C301   C     0.46913   0.52173   0.42145   0.00000  Uiso   1.00
C302   C     0.66009   0.51011   0.23668   0.00000  Uiso   1.00
C303   C     0.34141   0.48979   0.26475   0.00000  Uiso   1.00
C304   C     0.51520   0.65638   0.23660   0.00000  Uiso   1.00
C305   C     0.48550   0.34538   0.26351   0.00000  Uiso   1.00
C306   C     0.48921   0.38942   0.26052   0.00000  Uiso   1.00
C307   C     0.51024   0.61142   0.24010   0.00000  Uiso   1.00
C308   C     0.41131   0.51368   0.49006   0.00000  Uiso   1.00
C309   C     0.51920   0.48148   0.12917   0.00000  Uiso   1.00
C310   C     0.48122   0.51762   0.37121   0.00000  Uiso   1.00
C311   C     0.57997   0.46447   0.00680   0.00000  Uiso   1.00
C312   C     0.52903   0.47459   0.08004   0.00000  Uiso   1.00
C313   C     0.42575   0.52460   0.44529   0.00000  Uiso   1.00
C314   C     0.59615   0.44314   0.07709   0.00000  Uiso   1.00
C315   C     0.64780   0.46212   0.30127   0.00000  Uiso   1.00
C316   C     0.55361   0.34375   0.20289   0.00000  Uiso   1.00
C317   C     0.62022   0.44804   0.47766   0.00000  Uiso   1.00
C318   C     0.39362   0.53633   0.42313   0.00000  Uiso   1.00
C319   C     0.43845   0.49957   0.01097   0.00000  Uiso   1.00
C320   C     0.56529   0.55008   0.39019   0.00000  Uiso   1.00
C321   C     0.35775   0.53634   0.20095   0.00000  Uiso   1.00
C322   C     0.48289   0.50182   0.49026   0.00000  Uiso   1.00
C323   C     0.49863   0.51487   0.44553   0.00000  Uiso   1.00
C324   C     0.51195   0.49015   0.01214   0.00000  Uiso   1.00
C325   C     0.55394   0.48383   0.48691   0.00000  Uiso   1.00
C326   C     0.56977   0.50058   0.44430   0.00000  Uiso   1.00
C327   C     0.54350   0.51999   0.42616   0.00000  Uiso   1.00
F328   F     0.45005   0.66102   0.29314   0.00000  Uiso   1.00
F329   F     0.61202   0.50342   0.42269   0.00000  Uiso   1.00
F330   F     0.41968   0.48085   0.05002   0.00000  Uiso   1.00
F331   F     0.36955   0.51328   0.01287   0.00000  Uiso   1.00
H332   H     0.47376   0.50045   0.08076   0.00000  Uiso   1.00
H333   H     0.57256   0.36718   0.22094   0.00000  Uiso   1.00
H334   H     0.61482   0.43352   0.44505   0.00000  Uiso   1.00
H335   H     0.64691   0.47369   0.47128   0.00000  Uiso   1.00
H336   H     0.63011   0.42333   0.49304   0.00000  Uiso   1.00
H337   H     0.36193   0.53882   0.44715   0.00000  Uiso   1.00
H338   H     0.40493   0.56729   0.40931   0.00000  Uiso   1.00
H339   H     0.38874   0.51250   0.39582   0.00000  Uiso   1.00
H340   H     0.59164   0.57067   0.40072   0.00000  Uiso   1.00
H341   H     0.57904   0.53299   0.35764   0.00000  Uiso   1.00
H342   H     0.54350   0.57107   0.38537   0.00000  Uiso   1.00
H343   H     0.58426   0.44425   0.11442   0.00000  Uiso   1.00
H344   H     0.34140   0.55102   0.18069   0.00000  Uiso   1.00
H345   H     0.37635   0.56163   0.21733   0.00000  Uiso   1.00
H346   H     0.38005   0.51663   0.17720   0.00000  Uiso   1.00
H347   H     0.59825   0.40993   0.06552   0.00000  Uiso   1.00
H348   H     0.62854   0.46105   0.06885   0.00000  Uiso   1.00
H349   H     0.33465   0.44908   0.31874   0.00000  Uiso   1.00
H350   H     0.62590   0.48021   0.32757   0.00000  Uiso   1.00
H351   H     0.62980   0.43529   0.28630   0.00000  Uiso   1.00
H352   H     0.57507   0.65455   0.18330   0.00000  Uiso   1.00
H353   H     0.54283   0.35940   0.17845   0.00000  Uiso   1.00
O354   O     0.50000   0.50000   0.25000   0.00000  Uiso   1.00
O355   O     0.48784   0.45970   0.15458   0.00000  Uiso   1.00
O356   O     0.46274   0.53724   0.34968   0.00000  Uiso   1.00
O357   O     0.54157   0.51092   0.14606   0.00000  Uiso   1.00
O358   O     0.50785   0.49213   0.34968   0.00000  Uiso   1.00
O359   O     0.51264   0.41352   0.28213   0.00000  Uiso   1.00
O360   O     0.47965   0.59418   0.27013   0.00000  Uiso   1.00
O361   O     0.40745   0.46625   0.23413   0.00000  Uiso   1.00
O362   O     0.60026   0.52605   0.21360   0.00000  Uiso   1.00
O363   O     0.40405   0.52211   0.28213   0.00000  Uiso   1.00
O364   O     0.58824   0.48559   0.27013   0.00000  Uiso   1.00
O365   O     0.47093   0.40277   0.23413   0.00000  Uiso   1.00
O366   O     0.53678   0.58953   0.21360   0.00000  Uiso   1.00
Zn367  Zn    0.52672   0.47327   0.28734   0.00000  Uiso   1.00
Zn368  Zn    0.46713   0.45791   0.21875   0.00000  Uiso   1.00
Zn369  Zn    0.54389   0.53109   0.20657   0.00000  Uiso   1.00
Zn370  Zn    0.46226   0.53773   0.28733   0.00000  Uiso   1.00
C371   C     0.71984   0.49313   0.25981   0.00000  Uiso   1.00
C372   C     0.83473   0.48774   0.05906   0.00000  Uiso   1.00
C373   C     0.90094   0.46057   0.05422   0.00000  Uiso   1.00
C374   C     0.94756   0.50719   0.24011   0.00000  Uiso   1.00
C375   C     0.80246   0.52173   0.42145   0.00000  Uiso   1.00
C376   C     0.99343   0.51011   0.23668   0.00000  Uiso   1.00
C377   C     0.67474   0.48979   0.26475   0.00000  Uiso   1.00
C378   C     0.84853   0.65638   0.23660   0.00000  Uiso   1.00
C379   C     0.81883   0.34538   0.26351   0.00000  Uiso   1.00
C380   C     0.82254   0.38942   0.26052   0.00000  Uiso   1.00
C381   C     0.84357   0.61142   0.24010   0.00000  Uiso   1.00
C382   C     0.74465   0.51368   0.49006   0.00000  Uiso   1.00
C383   C     0.85253   0.48148   0.12917   0.00000  Uiso   1.00
C384   C     0.81455   0.51762   0.37121   0.00000  Uiso   1.00
C385   C     0.91330   0.46447   0.00680   0.00000  Uiso   1.00
C386   C     0.86236   0.47459   0.08004   0.00000  Uiso   1.00
C387   C     0.75908   0.52460   0.44529   0.00000  Uiso   1.00
C388   C     0.92949   0.44314   0.07709   0.00000  Uiso   1.00
C389   C     0.98114   0.46212   0.30127   0.00000  Uiso   1.00
C390   C     0.88694   0.34375   0.20289   0.00000  Uiso   1.00
C391   C     0.95355   0.44804   0.47766   0.00000  Uiso   1.00
C392   C     0.72696   0.53633   0.42313   0.00000  Uiso   1.00
C393   C     0.77179   0.49957   0.01097   0.00000  Uiso   1.00
C394   C     0.89862   0.55008   0.39019   0.00000  Uiso   1.00
C395   C     0.69109   0.53634   0.20095   0.00000  Uiso   1.00
C396   C     0.81622   0.50182   0.49026   0.00000  Uiso   1.00
C397   C     0.83197   0.51487   0.44553   0.00000  Uiso   1.00
C398   C     0.84528   0.49015   0.01214   0.00000  Uiso   1.00
C399   C     0.88727   0.48383   0.48691   0.00000  Uiso   1.00
C400   C     0.90310   0.50058   0.44430   0.00000  Uiso   1.00
C401   C     0.87683   0.51999   0.42616   0.00000  Uiso   1.00
F402   F     0.78338   0.66102   0.29314   0.00000  Uiso   1.00
F403   F     0.94536   0.50342   0.42269   0.00000  Uiso   1.00
F404   F     0.75302   0.48085   0.05002   0.00000  Uiso   1.00
F405   F     0.70288   0.51328   0.01287   0.00000  Uiso   1.00
H406   H     0.80710   0.50045   0.08076   0.00000  Uiso   1.00
H407   H     0.90590   0.36718   0.22094   0.00000  Uiso   1.00
H408   H     0.94816   0.43352   0.44505   0.00000  Uiso   1.00
H409   H     0.98025   0.47369   0.47128   0.00000  Uiso   1.00
H410   H     0.96344   0.42333   0.49304   0.00000  Uiso   1.00
H411   H     0.69526   0.53882   0.44715   0.00000  Uiso   1.00
H412   H     0.73826   0.56729   0.40931   0.00000  Uiso   1.00
H413   H     0.72208   0.51250   0.39582   0.00000  Uiso   1.00
H414   H     0.92498   0.57067   0.40072   0.00000  Uiso   1.00
H415   H     0.91238   0.53299   0.35764   0.00000  Uiso   1.00
H416   H     0.87684   0.57107   0.38537   0.00000  Uiso   1.00
H417   H     0.91759   0.44425   0.11442   0.00000  Uiso   1.00
H418   H     0.67474   0.55102   0.18069   0.00000  Uiso   1.00
H419   H     0.70968   0.56163   0.21733   0.00000  Uiso   1.00
H420   H     0.71339   0.51663   0.17720   0.00000  Uiso   1.00
H421   H     0.93158   0.40993   0.06552   0.00000  Uiso   1.00
H422   H     0.96188   0.46105   0.06885   0.00000  Uiso   1.00
H423   H     0.66798   0.44908   0.31874   0.00000  Uiso   1.00
H424   H     0.95923   0.48021   0.32757   0.00000  Uiso   1.00
H425   H     0.96313   0.43529   0.28630   0.00000  Uiso   1.00
H426   H     0.90841   0.65455   0.18330   0.00000  Uiso   1.00
H427   H     0.87617   0.35940   0.17845   0.00000  Uiso   1.00
O428   O     0.83333   0.50000   0.25000   0.00000  Uiso   1.00
O429   O     0.82118   0.45970   0.15458   0.00000  Uiso   1.00
O430   O     0.79607   0.53724   0.34968   0.00000  Uiso   1.00
O431   O     0.87491   0.51092   0.14606   0.00000  Uiso   1.00
O432   O     0.84118   0.49213   0.34968   0.00000  Uiso   1.00
O433   O     0.84597   0.41352   0.28213   0.00000  Uiso   1.00
O434   O     0.81298   0.59418   0.27013   0.00000  Uiso   1.00
O435   O     0.74078   0.46625   0.23413   0.00000  Uiso   1.00
O436   O     0.93360   0.52605   0.21360   0.00000  Uiso   1.00
O437   O     0.73738   0.52211   0.28213   0.00000  Uiso   1.00
O438   O     0.92158   0.48559   0.27013   0.00000  Uiso   1.00
O439   O     0.80426   0.40277   0.23413   0.00000  Uiso   1.00
O440   O     0.87012   0.58953   0.21360   0.00000  Uiso   1.00
Zn441  Zn    0.86005   0.47327   0.28734   0.00000  Uiso   1.00
Zn442  Zn    0.80046   0.45791   0.21875   0.00000  Uiso   1.00
Zn443  Zn    0.87723   0.53109   0.20657   0.00000  Uiso   1.00
Zn444  Zn    0.79560   0.53773   0.28733   0.00000  Uiso   1.00
C445   C     0.05317   0.82647   0.25981   0.00000  Uiso   1.00
C446   C     0.16807   0.82107   0.05906   0.00000  Uiso   1.00
C447   C     0.23428   0.79390   0.05422   0.00000  Uiso   1.00
C448   C     0.28089   0.84053   0.24011   0.00000  Uiso   1.00
C449   C     0.13579   0.85507   0.42145   0.00000  Uiso   1.00
C450   C     0.32676   0.84345   0.23668   0.00000  Uiso   1.00
C451   C     0.00807   0.82312   0.26475   0.00000  Uiso   1.00
C452   C     0.18187   0.98971   0.23660   0.00000  Uiso   1.00
C453   C     0.15216   0.67871   0.26351   0.00000  Uiso   1.00
C454   C     0.15587   0.72275   0.26052   0.00000  Uiso   1.00
C455   C     0.17690   0.94475   0.24010   0.00000  Uiso   1.00
C456   C     0.07798   0.84701   0.49006   0.00000  Uiso   1.00
C457   C     0.18587   0.81481   0.12917   0.00000  Uiso   1.00
C458   C     0.14788   0.85095   0.37121   0.00000  Uiso   1.00
C459   C     0.24664   0.79781   0.00680   0.00000  Uiso   1.00
C460   C     0.19569   0.80793   0.08004   0.00000  Uiso   1.00
C461   C     0.09242   0.85794   0.44529   0.00000  Uiso   1.00
C462   C     0.26282   0.77648   0.07709   0.00000  Uiso   1.00
C463   C     0.31447   0.79546   0.30127   0.00000  Uiso   1.00
C464   C     0.22027   0.67709   0.20289   0.00000  Uiso   1.00
C465   C     0.28688   0.78137   0.47766   0.00000  Uiso   1.00
C466   C     0.06029   0.86967   0.42313   0.00000  Uiso   1.00
C467   C     0.10512   0.83290   0.01097   0.00000  Uiso   1.00
C468   C     0.23196   0.88341   0.39019   0.00000  Uiso   1.00
C469   C     0.02442   0.86967   0.20095   0.00000  Uiso   1.00
C470   C     0.14956   0.83515   0.49026   0.00000  Uiso   1.00
C471   C     0.16530   0.84820   0.44553   0.00000  Uiso   1.00
C472   C     0.17861   0.82348   0.01214   0.00000  Uiso   1.00
C473   C     0.22060   0.81717   0.48691   0.00000  Uiso   1.00
C474   C     0.23643   0.83392   0.44430   0.00000  Uiso   1.00
C475   C     0.21017   0.85332   0.42616   0.00000  Uiso   1.00
F476   F     0.11672   0.99435   0.29314   0.00000  Uiso   1.00
F477   F     0.27869   0.83676   0.42269   0.00000  Uiso   1.00
F478   F     0.08635   0.81419   0.05002   0.00000  Uiso   1.00
F479   F     0.03621   0.84661   0.01287   0.00000  Uiso   1.00
H480   H     0.14043   0.83379   0.08076   0.00000  Uiso   1.00
H481   H     0.23923   0.70052   0.22094   0.00000  Uiso   1.00
H482   H     0.28149   0.76685   0.44505   0.00000  Uiso   1.00
H483   H     0.31358   0.80703   0.47128   0.00000  Uiso   1.00
H484   H     0.29678   0.75667   0.49304   0.00000  Uiso   1.00
H485   H     0.02859   0.87215   0.44715   0.00000  Uiso   1.00
H486   H     0.07159   0.90062   0.40931   0.00000  Uiso   1.00
H487   H     0.05541   0.84583   0.39582   0.00000  Uiso   1.00
H488   H     0.25831   0.90400   0.40072   0.00000  Uiso   1.00
H489   H     0.24571   0.86633   0.35764   0.00000  Uiso   1.00
H490   H     0.21017   0.90441   0.38537   0.00000  Uiso   1.00
H491   H     0.25092   0.77759   0.11442   0.00000  Uiso   1.00
H492   H     0.00807   0.88435   0.18069   0.00000  Uiso   1.00
H493   H     0.04301   0.89497   0.21733   0.00000  Uiso   1.00
H494   H     0.04672   0.84996   0.17720   0.00000  Uiso   1.00
H495   H     0.26492   0.74327   0.06552   0.00000  Uiso   1.00
H496   H     0.29521   0.79439   0.06885   0.00000  Uiso   1.00
H497   H     0.00131   0.78241   0.31874   0.00000  Uiso   1.00
H498   H     0.29256   0.81354   0.32757   0.00000  Uiso   1.00
H499   H     0.29647   0.76862   0.28630   0.00000  Uiso   1.00
H500   H     0.24174   0.98789   0.18330   0.00000  Uiso   1.00
H501   H     0.20950   0.69273   0.17845   0.00000  Uiso   1.00
O502   O     0.16667   0.83333   0.25000   0.00000  Uiso   1.00
O503   O     0.15451   0.79304   0.15458   0.00000  Uiso   1.00
O504   O     0.12940   0.87058   0.34968   0.00000  Uiso   1.00
O505   O     0.20824   0.84425   0.14606   0.00000  Uiso   1.00
O506   O     0.17451   0.82546   0.34968   0.00000  Uiso   1.00
O507   O     0.17930   0.74686   0.28213   0.00000  Uiso   1.00
O508   O     0.14632   0.92751   0.27013   0.00000  Uiso   1.00
O509   O     0.07412   0.79958   0.23413   0.00000  Uiso   1.00
O510   O     0.26693   0.85939   0.21360   0.00000  Uiso   1.00
O511   O     0.07071   0.85544   0.28213   0.00000  Uiso   1.00
O512   O     0.25491   0.81892   0.27013   0.00000  Uiso   1.00
O513   O     0.13760   0.73610   0.23413   0.00000  Uiso   1.00
O514   O     0.20345   0.92286   0.21360   0.00000  Uiso   1.00
Zn515  Zn    0.19338   0.80661   0.28734   0.00000  Uiso   1.00
Zn516  Zn    0.13379   0.79124   0.21875   0.00000  Uiso   1.00
Zn517  Zn    0.21056   0.86442   0.20657   0.00000  Uiso   1.00
Zn518  Zn    0.12893   0.87106   0.28733   0.00000  Uiso   1.00
C519   C     0.38650   0.82647   0.25981   0.00000  Uiso   1.00
C520   C     0.50140   0.82107   0.05906   0.00000  Uiso   1.00
C521   C     0.56761   0.79390   0.05422   0.00000  Uiso   1.00
C522   C     0.61422   0.84053   0.24011   0.00000  Uiso   1.00
C523   C     0.46913   0.85507   0.42145   0.00000  Uiso   1.00
C524   C     0.66009   0.84345   0.23668   0.00000  Uiso   1.00
C525   C     0.34141   0.82312   0.26475   0.00000  Uiso   1.00
C526   C     0.51520   0.98971   0.23660   0.00000  Uiso   1.00
C527   C     0.48550   0.67871   0.26351   0.00000  Uiso   1.00
C528   C     0.48921   0.72275   0.26052   0.00000  Uiso   1.00
C529   C     0.51024   0.94475   0.24010   0.00000  Uiso   1.00
C530   C     0.41131   0.84701   0.49006   0.00000  Uiso   1.00
C531   C     0.51920   0.81481   0.12917   0.00000  Uiso   1.00
C532   C     0.48122   0.85095   0.37121   0.00000  Uiso   1.00
C533   C     0.57997   0.79781   0.00680   0.00000  Uiso   1.00
C534   C     0.52903   0.80793   0.08004   0.00000  Uiso   1.00
C535   C     0.42575   0.85794   0.44529   0.00000  Uiso   1.00
C536   C     0.59615   0.77648   0.07709   0.00000  Uiso   1.00
C537   C     0.64780   0.79546   0.30127   0.00000  Uiso   1.00
C538   C     0.55361   0.67709   0.20289   0.00000  Uiso   1.00
C539   C     0.62022   0.78137   0.47766   0.00000  Uiso   1.00
C540   C     0.39362   0.86967   0.42313   0.00000  Uiso   1.00
C541   C     0.43845   0.83290   0.01097   0.00000  Uiso   1.00
C542   C     0.56529   0.88341   0.39019   0.00000  Uiso   1.00
C543   C     0.35775   0.86967   0.20095   0.00000  Uiso   1.00
C544   C     0.48289   0.83515   0.49026   0.00000  Uiso   1.00
C545   C     0.49863   0.84820   0.44553   0.00000  Uiso   1.00
C546   C     0.51195   0.82348   0.01214   0.00000  Uiso   1.00
C547   C     0.55394   0.81717   0.48691   0.00000  Uiso   1.00
C548   C     0.56977   0.83392   0.44430   0.00000  Uiso   1.00
C549   C     0.54350   0.85332   0.42616   0.00000  Uiso   1.00
F550   F     0.45005   0.99435   0.29314   0.00000  Uiso   1.00
F551   F     0.61202   0.83676   0.42269   0.00000  Uiso   1.00
F552   F     0.41968   0.81419   0.05002   0.00000  Uiso   1.00
F553   F     0.36955   0.84661   0.01287   0.00000  Uiso   1.00
H554   H     0.47376   0.83379   0.08076   0.00000  Uiso   1.00
H555   H     0.57256   0.70052   0.22094   0.00000  Uiso   1.00
H556   H     0.61482   0.76685   0.44505   0.00000  Uiso   1.00
H557   H     0.64691   0.80703   0.47128   0.00000  Uiso   1.00
H558   H     0.63011   0.75667   0.49304   0.00000  Uiso   1.00
H559   H     0.36193   0.87215   0.44715   0.00000  Uiso   1.00
H560   H     0.40493   0.90062   0.40931   0.00000  Uiso   1.00
H561   H     0.38874   0.84583   0.39582   0.00000  Uiso   1.00
H562   H     0.59164   0.90400   0.40072   0.00000  Uiso   1.00
H563   H     0.57904   0.86633   0.35764   0.00000  Uiso   1.00
H564   H     0.54350   0.90441   0.38537   0.00000  Uiso   1.00
H565   H     0.58426   0.77759   0.11442   0.00000  Uiso   1.00
H566   H     0.34140   0.88435   0.18069   0.00000  Uiso   1.00
H567   H     0.37635   0.89497   0.21733   0.00000  Uiso   1.00
H568   H     0.38005   0.84996   0.17720   0.00000  Uiso   1.00
H569   H     0.59825   0.74327   0.06552   0.00000  Uiso   1.00
H570   H     0.62854   0.79439   0.06885   0.00000  Uiso   1.00
H571   H     0.33465   0.78241   0.31874   0.00000  Uiso   1.00
H572   H     0.62590   0.81354   0.32757   0.00000  Uiso   1.00
H573   H     0.62980   0.76862   0.28630   0.00000  Uiso   1.00
H574   H     0.57507   0.98789   0.18330   0.00000  Uiso   1.00
H575   H     0.54283   0.69273   0.17845   0.00000  Uiso   1.00
O576   O     0.50000   0.83333   0.25000   0.00000  Uiso   1.00
O577   O     0.48784   0.79304   0.15458   0.00000  Uiso   1.00
O578   O     0.46274   0.87058   0.34968   0.00000  Uiso   1.00
O579   O     0.54157   0.84425   0.14606   0.00000  Uiso   1.00
O580   O     0.50785   0.82546   0.34968   0.00000  Uiso   1.00
O581   O     0.51264   0.74686   0.28213   0.00000  Uiso   1.00
O582   O     0.47965   0.92751   0.27013   0.00000  Uiso   1.00
O583   O     0.40745   0.79958   0.23413   0.00000  Uiso   1.00
O584   O     0.60026   0.85939   0.21360   0.00000  Uiso   1.00
O585   O     0.40405   0.85544   0.28213   0.00000  Uiso   1.00
O586   O     0.58824   0.81892   0.27013   0.00000  Uiso   1.00
O587   O     0.47093   0.73610   0.23413   0.00000  Uiso   1.00
O588   O     0.53678   0.92286   0.21360   0.00000  Uiso   1.00
Zn589  Zn    0.52672   0.80661   0.28734   0.00000  Uiso   1.00
Zn590  Zn    0.46713   0.79124   0.21875   0.00000  Uiso   1.00
Zn591  Zn    0.54389   0.86442   0.20657   0.00000  Uiso   1.00
Zn592  Zn    0.46226   0.87106   0.28733   0.00000  Uiso   1.00
C593   C     0.71984   0.82647   0.25981   0.00000  Uiso   1.00
C594   C     0.83473   0.82107   0.05906   0.00000  Uiso   1.00
C595   C     0.90094   0.79390   0.05422   0.00000  Uiso   1.00
C596   C     0.94756   0.84053   0.24011   0.00000  Uiso   1.00
C597   C     0.80246   0.85507   0.42145   0.00000  Uiso   1.00
C598   C     0.99343   0.84345   0.23668   0.00000  Uiso   1.00
C599   C     0.67474   0.82312   0.26475   0.00000  Uiso   1.00
C600   C     0.84853   0.98971   0.23660   0.00000  Uiso   1.00
C601   C     0.81883   0.67871   0.26351   0.00000  Uiso   1.00
C602   C     0.82254   0.72275   0.26052   0.00000  Uiso   1.00
C603   C     0.84357   0.94475   0.24010   0.00000  Uiso   1.00
C604   C     0.74465   0.84701   0.49006   0.00000  Uiso   1.00
C605   C     0.85253   0.81481   0.12917   0.00000  Uiso   1.00
C606   C     0.81455   0.85095   0.37121   0.00000  Uiso   1.00
C607   C     0.91330   0.79781   0.00680   0.00000  Uiso   1.00
C608   C     0.86236   0.80793   0.08004   0.00000  Uiso   1.00
C609   C     0.75908   0.85794   0.44529   0.00000  Uiso   1.00
C610   C     0.92949   0.77648   0.07709   0.00000  Uiso   1.00
C611   C     0.98114   0.79546   0.30127   0.00000  Uiso   1.00
C612   C     0.88694   0.67709   0.20289   0.00000  Uiso   1.00
C613   C     0.95355   0.78137   0.47766   0.00000  Uiso   1.00
C614   C     0.72696   0.86967   0.42313   0.00000  Uiso   1.00
C615   C     0.77179   0.83290   0.01097   0.00000  Uiso   1.00
C616   C     0.89862   0.88341   0.39019   0.00000  Uiso   1.00
C617   C     0.69109   0.86967   0.20095   0.00000  Uiso   1.00
C618   C     0.81622   0.83515   0.49026   0.00000  Uiso   1.00
C619   C     0.83197   0.84820   0.44553   0.00000  Uiso   1.00
C620   C     0.84528   0.82348   0.01214   0.00000  Uiso   1.00
C621   C     0.88727   0.81717   0.48691   0.00000  Uiso   1.00
C622   C     0.90310   0.83392   0.44430   0.00000  Uiso   1.00
C623   C     0.87683   0.85332   0.42616   0.00000  Uiso   1.00
F624   F     0.78338   0.99435   0.29314   0.00000  Uiso   1.00
F625   F     0.94536   0.83676   0.42269   0.00000  Uiso   1.00
F626   F     0.75302   0.81419   0.05002   0.00000  Uiso   1.00
F627   F     0.70288   0.84661   0.01287   0.00000  Uiso   1.00
H628   H     0.80710   0.83379   0.08076   0.00000  Uiso   1.00
H629   H     0.90590   0.70052   0.22094   0.00000  Uiso   1.00
H630   H     0.94816   0.76685   0.44505   0.00000  Uiso   1.00
H631   H     0.98025   0.80703   0.47128   0.00000  Uiso   1.00
H632   H     0.96344   0.75667   0.49304   0.00000  Uiso   1.00
H633   H     0.69526   0.87215   0.44715   0.00000  Uiso   1.00
H634   H     0.73826   0.90062   0.40931   0.00000  Uiso   1.00
H635   H     0.72208   0.84583   0.39582   0.00000  Uiso   1.00
H636   H     0.92498   0.90400   0.40072   0.00000  Uiso   1.00
H637   H     0.91238   0.86633   0.35764   0.00000  Uiso   1.00
H638   H     0.87684   0.90441   0.38537   0.00000  Uiso   1.00
H639   H     0.91759   0.77759   0.11442   0.00000  Uiso   1.00
H640   H     0.67474   0.88435   0.18069   0.00000  Uiso   1.00
H641   H     0.70968   0.89497   0.21733   0.00000  Uiso   1.00
H642   H     0.71339   0.84996   0.17720   0.00000  Uiso   1.00
H643   H     0.93158   0.74327   0.06552   0.00000  Uiso   1.00
H644   H     0.96188   0.79439   0.06885   0.00000  Uiso   1.00
H645   H     0.66798   0.78241   0.31874   0.00000  Uiso   1.00
H646   H     0.95923   0.81354   0.32757   0.00000  Uiso   1.00
H647   H     0.96313   0.76862   0.28630   0.00000  Uiso   1.00
H648   H     0.90841   0.98789   0.18330   0.00000  Uiso   1.00
H649   H     0.87617   0.69273   0.17845   0.00000  Uiso   1.00
O650   O     0.83333   0.83333   0.25000   0.00000  Uiso   1.00
O651   O     0.82118   0.79304   0.15458   0.00000  Uiso   1.00
O652   O     0.79607   0.87058   0.34968   0.00000  Uiso   1.00
O653   O     0.87491   0.84425   0.14606   0.00000  Uiso   1.00
O654   O     0.84118   0.82546   0.34968   0.00000  Uiso   1.00
O655   O     0.84597   0.74686   0.28213   0.00000  Uiso   1.00
O656   O     0.81298   0.92751   0.27013   0.00000  Uiso   1.00
O657   O     0.74078   0.79958   0.23413   0.00000  Uiso   1.00
O658   O     0.93360   0.85939   0.21360   0.00000  Uiso   1.00
O659   O     0.73738   0.85544   0.28213   0.00000  Uiso   1.00
O660   O     0.92158   0.81892   0.27013   0.00000  Uiso   1.00
O661   O     0.80426   0.73610   0.23413   0.00000  Uiso   1.00
O662   O     0.87012   0.92286   0.21360   0.00000  Uiso   1.00
Zn663  Zn    0.86005   0.80661   0.28734   0.00000  Uiso   1.00
Zn664  Zn    0.80046   0.79124   0.21875   0.00000  Uiso   1.00
Zn665  Zn    0.87723   0.86442   0.20657   0.00000  Uiso   1.00
Zn666  Zn    0.79560   0.87106   0.28733   0.00000  Uiso   1.00
C667   C     0.05317   0.15980   0.75981   0.00000  Uiso   1.00
C668   C     0.16807   0.15440   0.55906   0.00000  Uiso   1.00
C669   C     0.23428   0.12724   0.55422   0.00000  Uiso   1.00
C670   C     0.28089   0.17386   0.74011   0.00000  Uiso   1.00
C671   C     0.13579   0.18840   0.92145   0.00000  Uiso   1.00
C672   C     0.32676   0.17678   0.73668   0.00000  Uiso   1.00
C673   C     0.00807   0.15645   0.76475   0.00000  Uiso   1.00
C674   C     0.18187   0.32305   0.73660   0.00000  Uiso   1.00
C675   C     0.15216   0.01204   0.76351   0.00000  Uiso   1.00
C676   C     0.15587   0.05609   0.76052   0.00000  Uiso   1.00
C677   C     0.17690   0.27809   0.74010   0.00000  Uiso   1.00
C678   C     0.07798   0.18034   0.99006   0.00000  Uiso   1.00
C679   C     0.18587   0.14814   0.62917   0.00000  Uiso   1.00
C680   C     0.14788   0.18429   0.87121   0.00000  Uiso   1.00
C681   C     0.24664   0.13114   0.50680   0.00000  Uiso   1.00
C682   C     0.19569   0.14126   0.58004   0.00000  Uiso   1.00
C683   C     0.09242   0.19127   0.94529   0.00000  Uiso   1.00
C684   C     0.26282   0.10981   0.57709   0.00000  Uiso   1.00
C685   C     0.31447   0.12879   0.80127   0.00000  Uiso   1.00
C686   C     0.22027   0.01042   0.70289   0.00000  Uiso   1.00
C687   C     0.28688   0.11470   0.97766   0.00000  Uiso   1.00
C688   C     0.06029   0.20300   0.92313   0.00000  Uiso   1.00
C689   C     0.10512   0.16624   0.51097   0.00000  Uiso   1.00
C690   C     0.23196   0.21674   0.89019   0.00000  Uiso   1.00
C691   C     0.02442   0.20300   0.70095   0.00000  Uiso   1.00
C692   C     0.14956   0.16849   0.99026   0.00000  Uiso   1.00
C693   C     0.16530   0.18154   0.94553   0.00000  Uiso   1.00
C694   C     0.17861   0.15681   0.51214   0.00000  Uiso   1.00
C695   C     0.22060   0.15050   0.98691   0.00000  Uiso   1.00
C696   C     0.23643   0.16725   0.94430   0.00000  Uiso   1.00
C697   C     0.21017   0.18666   0.92616   0.00000  Uiso   1.00
F698   F     0.11672   0.32769   0.79314   0.00000  Uiso   1.00
F699   F     0.27869   0.17009   0.92269   0.00000  Uiso   1.00
F700   F     0.08635   0.14752   0.55002   0.00000  Uiso   1.00
F701   F     0.03621   0.17994   0.51287   0.00000  Uiso   1.00
H702   H     0.14043   0.16712   0.58076   0.00000  Uiso   1.00
H703   H     0.23923   0.03385   0.72094   0.00000  Uiso   1.00
H704   H     0.28149   0.10018   0.94505   0.00000  Uiso   1.00
H705   H     0.31358   0.14036   0.97128   0.00000  Uiso   1.00
H706   H     0.29678   0.09000   0.99304   0.00000  Uiso   1.00
H707   H     0.02859   0.20549   0.94715   0.00000  Uiso   1.00
H708   H     0.07159   0.23396   0.90931   0.00000  Uiso   1.00
H709   H     0.05541   0.17916   0.89582   0.00000  Uiso   1.00
H710   H     0.25831   0.23733   0.90072   0.00000  Uiso   1.00
H711   H     0.24571   0.19966   0.85764   0.00000  Uiso   1.00
H712   H     0.21017   0.23774   0.88537   0.00000  Uiso   1.00
H713   H     0.25092   0.11092   0.61442   0.00000  Uiso   1.00
H714   H     0.00807   0.21768   0.68069   0.00000  Uiso   1.00
H715   H     0.04301   0.22830   0.71733   0.00000  Uiso   1.00
H716   H     0.04672   0.18329   0.67720   0.00000  Uiso   1.00
H717   H     0.26492   0.07660   0.56552   0.00000  Uiso   1.00
H718   H     0.29521   0.12772   0.56885   0.00000  Uiso   1.00
H719   H     0.00131   0.11575   0.81874   0.00000  Uiso   1.00
H720   H     0.29256   0.14687   0.82757   0.00000  Uiso   1.00
H721   H     0.29647   0.10195   0.78630   0.00000  Uiso   1.00
H722   H     0.24174   0.32122   0.68330   0.00000  Uiso   1.00
H723   H     0.20950   0.02607   0.67845   0.00000  Uiso   1.00
O724   O     0.16667   0.16667   0.75000   0.00000  Uiso   1.00
O725   O     0.15451   0.12637   0.65458   0.00000  Uiso   1.00
O726   O     0.12940   0.20391   0.84968   0.00000  Uiso   1.00
O727   O     0.20824   0.17759   0.64606   0.00000  Uiso   1.00
O728   O     0.17451   0.15880   0.84968   0.00000  Uiso   1.00
O729   O     0.17930   0.08019   0.78213   0.00000  Uiso   1.00
O730   O     0.14632   0.26085   0.77013   0.00000  Uiso   1.00
O731   O     0.07412   0.13291   0.73413   0.00000  Uiso   1.00
O732   O     0.26693   0.19272   0.71360   0.00000  Uiso   1.00
O733   O     0.07071   0.18878   0.78213   0.00000  Uiso   1.00
O734   O     0.25491   0.15226   0.77013   0.00000  Uiso   1.00
O735   O     0.13760   0.06944   0.73413   0.00000  Uiso   1.00
O736   O     0.20345   0.25620   0.71360   0.00000  Uiso   1.00
Zn737  Zn    0.19338   0.13994   0.78734   0.00000  Uiso   1.00
Zn738  Zn    0.13379   0.12458   0.71875   0.00000  Uiso   1.00
Zn739  Zn    0.21056   0.19775   0.70657   0.00000  Uiso   1.00
Zn740  Zn    0.12893   0.20439   0.78733   0.00000  Uiso   1.00
C741   C     0.38650   0.15980   0.75981   0.00000  Uiso   1.00
C742   C     0.50140   0.15440   0.55906   0.00000  Uiso   1.00
C743   C     0.56761   0.12724   0.55422   0.00000  Uiso   1.00
C744   C     0.61422   0.17386   0.74011   0.00000  Uiso   1.00
C745   C     0.46913   0.18840   0.92145   0.00000  Uiso   1.00
C746   C     0.66009   0.17678   0.73668   0.00000  Uiso   1.00
C747   C     0.34141   0.15645   0.76475   0.00000  Uiso   1.00
C748   C     0.51520   0.32305   0.73660   0.00000  Uiso   1.00
C749   C     0.48550   0.01204   0.76351   0.00000  Uiso   1.00
C750   C     0.48921   0.05609   0.76052   0.00000  Uiso   1.00
C751   C     0.51024   0.27809   0.74010   0.00000  Uiso   1.00
C752   C     0.41131   0.18034   0.99006   0.00000  Uiso   1.00
C753   C     0.51920   0.14814   0.62917   0.00000  Uiso   1.00
C754   C     0.48122   0.18429   0.87121   0.00000  Uiso   1.00
C755   C     0.57997   0.13114   0.50680   0.00000  Uiso   1.00
C756   C     0.52903   0.14126   0.58004   0.00000  Uiso   1.00
C757   C     0.42575   0.19127   0.94529   0.00000  Uiso   1.00
C758   C     0.59615   0.10981   0.57709   0.00000  Uiso   1.00
C759   C     0.64780   0.12879   0.80127   0.00000  Uiso   1.00
C760   C     0.55361   0.01042   0.70289   0.00000  Uiso   1.00
C761   C     0.62022   0.11470   0.97766   0.00000  Uiso   1.00
C762   C     0.39362   0.20300   0.92313   0.00000  Uiso   1.00
C763   C     0.43845   0.16624   0.51097   0.00000  Uiso   1.00
C764   C     0.56529   0.21674   0.89019   0.00000  Uiso   1.00
C765   C     0.35775   0.20300   0.70095   0.00000  Uiso   1.00
C766   C     0.48289   0.16849   0.99026   0.00000  Uiso   1.00
C767   C     0.49863   0.18154   0.94553   0.00000  Uiso   1.00
C768   C     0.51195   0.15681   0.51214   0.00000  Uiso   1.00
C769   C     0.55394   0.15050   0.98691   0.00000  Uiso   1.00
C770   C     0.56977   0.16725   0.94430   0.00000  Uiso   1.00
C771   C     0.54350   0.18666   0.92616   0.00000  Uiso   1.00
F772   F     0.45005   0.32769   0.79314   0.00000  Uiso   1.00
F773   F     0.61202   0.17009   0.92269   0.00000  Uiso   1.00
F774   F     0.41968   0.14752   0.55002   0.00000  Uiso   1.00
F775   F     0.36955   0.17994   0.51287   0.00000  Uiso   1.00
H776   H     0.47376   0.16712   0.58076   0.00000  Uiso   1.00
H777   H     0.57256   0.03385   0.72094   0.00000  Uiso   1.00
H778   H     0.61482   0.10018   0.94505   0.00000  Uiso   1.00
H779   H     0.64691   0.14036   0.97128   0.00000  Uiso   1.00
H780   H     0.63011   0.09000   0.99304   0.00000  Uiso   1.00
H781   H     0.36193   0.20549   0.94715   0.00000  Uiso   1.00
H782   H     0.40493   0.23396   0.90931   0.00000  Uiso   1.00
H783   H     0.38874   0.17916   0.89582   0.00000  Uiso   1.00
H784   H     0.59164   0.23733   0.90072   0.00000  Uiso   1.00
H785   H     0.57904   0.19966   0.85764   0.00000  Uiso   1.00
H786   H     0.54350   0.23774   0.88537   0.00000  Uiso   1.00
H787   H     0.58426   0.11092   0.61442   0.00000  Uiso   1.00
H788   H     0.34140   0.21768   0.68069   0.00000  Uiso   1.00
H789   H     0.37635   0.22830   0.71733   0.00000  Uiso   1.00
H790   H     0.38005   0.18329   0.67720   0.00000  Uiso   1.00
H791   H     0.59825   0.07660   0.56552   0.00000  Uiso   1.00
H792   H     0.62854   0.12772   0.56885   0.00000  Uiso   1.00
H793   H     0.33465   0.11575   0.81874   0.00000  Uiso   1.00
H794   H     0.62590   0.14687   0.82757   0.00000  Uiso   1.00
H795   H     0.62980   0.10195   0.78630   0.00000  Uiso   1.00
H796   H     0.57507   0.32122   0.68330   0.00000  Uiso   1.00
H797   H     0.54283   0.02607   0.67845   0.00000  Uiso   1.00
O798   O     0.50000   0.16667   0.75000   0.00000  Uiso   1.00
O799   O     0.48784   0.12637   0.65458   0.00000  Uiso   1.00
O800   O     0.46274   0.20391   0.84968   0.00000  Uiso   1.00
O801   O     0.54157   0.17759   0.64606   0.00000  Uiso   1.00
O802   O     0.50785   0.15880   0.84968   0.00000  Uiso   1.00
O803   O     0.51264   0.08019   0.78213   0.00000  Uiso   1.00
O804   O     0.47965   0.26085   0.77013   0.00000  Uiso   1.00
O805   O     0.40745   0.13291   0.73413   0.00000  Uiso   1.00
O806   O     0.60026   0.19272   0.71360   0.00000  Uiso   1.00
O807   O     0.40405   0.18878   0.78213   0.00000  Uiso   1.00
O808   O     0.58824   0.15226   0.77013   0.00000  Uiso   1.00
O809   O     0.47093   0.06944   0.73413   0.00000  Uiso   1.00
O810   O     0.53678   0.25620   0.71360   0.00000  Uiso   1.00
Zn811  Zn    0.52672   0.13994   0.78734   0.00000  Uiso   1.00
Zn812  Zn    0.46713   0.12458   0.71875   0.00000  Uiso   1.00
Zn813  Zn    0.54389   0.19775   0.70657   0.00000  Uiso   1.00
Zn814  Zn    0.46226   0.20439   0.78733   0.00000  Uiso   1.00
C815   C     0.71984   0.15980   0.75981   0.00000  Uiso   1.00
C816   C     0.83473   0.15440   0.55906   0.00000  Uiso   1.00
C817   C     0.90094   0.12724   0.55422   0.00000  Uiso   1.00
C818   C     0.94756   0.17386   0.74011   0.00000  Uiso   1.00
C819   C     0.80246   0.18840   0.92145   0.00000  Uiso   1.00
C820   C     0.99343   0.17678   0.73668   0.00000  Uiso   1.00
C821   C     0.67474   0.15645   0.76475   0.00000  Uiso   1.00
C822   C     0.84853   0.32305   0.73660   0.00000  Uiso   1.00
C823   C     0.81883   0.01204   0.76351   0.00000  Uiso   1.00
C824   C     0.82254   0.05609   0.76052   0.00000  Uiso   1.00
C825   C     0.84357   0.27809   0.74010   0.00000  Uiso   1.00
C826   C     0.74465   0.18034   0.99006   0.00000  Uiso   1.00
C827   C     0.85253   0.14814   0.62917   0.00000  Uiso   1.00
C828   C     0.81455   0.18429   0.87121   0.00000  Uiso   1.00
C829   C     0.91330   0.13114   0.50680   0.00000  Uiso   1.00
C830   C     0.86236   0.14126   0.58004   0.00000  Uiso   1.00
C831   C     0.75908   0.19127   0.94529   0.00000  Uiso   1.00
C832   C     0.92949   0.10981   0.57709   0.00000  Uiso   1.00
C833   C     0.98114   0.12879   0.80127   0.00000  Uiso   1.00
C834   C     0.88694   0.01042   0.70289   0.00000  Uiso   1.00
C835   C     0.95355   0.11470   0.97766   0.00000  Uiso   1.00
C836   C     0.72696   0.20300   0.92313   0.00000  Uiso   1.00
C837   C     0.77179   0.16624   0.51097   0.00000  Uiso   1.00
C838   C     0.89862   0.21674   0.89019   0.00000  Uiso   1.00
C839   C     0.69109   0.20300   0.70095   0.00000  Uiso   1.00
C840   C     0.81622   0.16849   0.99026   0.00000  Uiso   1.00
C841   C     0.83197   0.18154   0.94553   0.00000  Uiso   1.00
C842   C     0.84528   0.15681   0.51214   0.00000  Uiso   1.00
C843   C     0.88727   0.15050   0.98691   0.00000  Uiso   1.00
C844   C     0.90310   0.16725   0.94430   0.00000  Uiso   1.00
C845   C     0.87683   0.18666   0.92616   0.00000  Uiso   1.00
F846   F     0.78338   0.32769   0.79314   0.00000  Uiso   1.00
F847   F     0.94536   0.17009   0.92269   0.00000  Uiso   1.00
F848   F     0.75302   0.14752   0.55002   0.00000  Uiso   1.00
F849   F     0.70288   0.17994   0.51287   0.00000  Uiso   1.00
H850   H     0.80710   0.16712   0.58076   0.00000  Uiso   1.00
H851   H     0.90590   0.03385   0.72094   0.00000  Uiso   1.00
H852   H     0.94816   0.10018   0.94505   0.00000  Uiso   1.00
H853   H     0.98025   0.14036   0.97128   0.00000  Uiso   1.00
H854   H     0.96344   0.09000   0.99304   0.00000  Uiso   1.00
H855   H     0.69526   0.20549   0.94715   0.00000  Uiso   1.00
H856   H     0.73826   0.23396   0.90931   0.00000  Uiso   1.00
H857   H     0.72208   0.17916   0.89582   0.00000  Uiso   1.00
H858   H     0.92498   0.23733   0.90072   0.00000  Uiso   1.00
H859   H     0.91238   0.19966   0.85764   0.00000  Uiso   1.00
H860   H     0.87684   0.23774   0.88537   0.00000  Uiso   1.00
H861   H     0.91759   0.11092   0.61442   0.00000  Uiso   1.00
H862   H     0.67474   0.21768   0.68069   0.00000  Uiso   1.00
H863   H     0.70968   0.22830   0.71733   0.00000  Uiso   1.00
H864   H     0.71339   0.18329   0.67720   0.00000  Uiso   1.00
H865   H     0.93158   0.07660   0.56552   0.00000  Uiso   1.00
H866   H     0.96188   0.12772   0.56885   0.00000  Uiso   1.00
H867   H     0.66798   0.11575   0.81874   0.00000  Uiso   1.00
H868   H     0.95923   0.14687   0.82757   0.00000  Uiso   1.00
H869   H     0.96313   0.10195   0.78630   0.00000  Uiso   1.00
H870   H     0.90841   0.32122   0.68330   0.00000  Uiso   1.00
H871   H     0.87617   0.02607   0.67845   0.00000  Uiso   1.00
O872   O     0.83333   0.16667   0.75000   0.00000  Uiso   1.00
O873   O     0.82118   0.12637   0.65458   0.00000  Uiso   1.00
O874   O     0.79607   0.20391   0.84968   0.00000  Uiso   1.00
O875   O     0.87491   0.17759   0.64606   0.00000  Uiso   1.00
O876   O     0.84118   0.15880   0.84968   0.00000  Uiso   1.00
O877   O     0.84597   0.08019   0.78213   0.00000  Uiso   1.00
O878   O     0.81298   0.26085   0.77013   0.00000  Uiso   1.00
O879   O     0.74078   0.13291   0.73413   0.00000  Uiso   1.00
O880   O     0.93360   0.19272   0.71360   0.00000  Uiso   1.00
O881   O     0.73738   0.18878   0.78213   0.00000  Uiso   1.00
O882   O     0.92158   0.15226   0.77013   0.00000  Uiso   1.00
O883   O     0.80426   0.06944   0.73413   0.00000  Uiso   1.00
O884   O     0.87012   0.25620   0.71360   0.00000  Uiso   1.00
Zn885  Zn    0.86005   0.13994   0.78734   0.00000  Uiso   1.00
Zn886  Zn    0.80046   0.12458   0.71875   0.00000  Uiso   1.00
Zn887  Zn    0.87723   0.19775   0.70657   0.00000  Uiso   1.00
Zn888  Zn    0.79560   0.20439   0.78733   0.00000  Uiso   1.00
C889   C     0.05317   0.49313   0.75981   0.00000  Uiso   1.00
C890   C     0.16807   0.48774   0.55906   0.00000  Uiso   1.00
C891   C     0.23428   0.46057   0.55422   0.00000  Uiso   1.00
C892   C     0.28089   0.50719   0.74011   0.00000  Uiso   1.00
C893   C     0.13579   0.52173   0.92145   0.00000  Uiso   1.00
C894   C     0.32676   0.51011   0.73668   0.00000  Uiso   1.00
C895   C     0.00807   0.48979   0.76475   0.00000  Uiso   1.00
C896   C     0.18187   0.65638   0.73660   0.00000  Uiso   1.00
C897   C     0.15216   0.34538   0.76351   0.00000  Uiso   1.00
C898   C     0.15587   0.38942   0.76052   0.00000  Uiso   1.00
C899   C     0.17690   0.61142   0.74010   0.00000  Uiso   1.00
C900   C     0.07798   0.51368   0.99006   0.00000  Uiso   1.00
C901   C     0.18587   0.48148   0.62917   0.00000  Uiso   1.00
C902   C     0.14788   0.51762   0.87121   0.00000  Uiso   1.00
C903   C     0.24664   0.46447   0.50680   0.00000  Uiso   1.00
C904   C     0.19569   0.47459   0.58004   0.00000  Uiso   1.00
C905   C     0.09242   0.52460   0.94529   0.00000  Uiso   1.00
C906   C     0.26282   0.44314   0.57709   0.00000  Uiso   1.00
C907   C     0.31447   0.46212   0.80127   0.00000  Uiso   1.00
C908   C     0.22027   0.34375   0.70289   0.00000  Uiso   1.00
C909   C     0.28688   0.44804   0.97766   0.00000  Uiso   1.00
C910   C     0.06029   0.53633   0.92313   0.00000  Uiso   1.00
C911   C     0.10512   0.49957   0.51097   0.00000  Uiso   1.00
C912   C     0.23196   0.55008   0.89019   0.00000  Uiso   1.00
C913   C     0.02442   0.53634   0.70095   0.00000  Uiso   1.00
C914   C     0.14956   0.50182   0.99026   0.00000  Uiso   1.00
C915   C     0.16530   0.51487   0.94553   0.00000  Uiso   1.00
C916   C     0.17861   0.49015   0.51214   0.00000  Uiso   1.00
C917   C     0.22060   0.48383   0.98691   0.00000  Uiso   1.00
C918   C     0.23643   0.50058   0.94430   0.00000  Uiso   1.00
C919   C     0.21017   0.51999   0.92616   0.00000  Uiso   1.00
F920   F     0.11672   0.66102   0.79314   0.00000  Uiso   1.00
F921   F     0.27869   0.50342   0.92269   0.00000  Uiso   1.00
F922   F     0.08635   0.48085   0.55002   0.00000  Uiso   1.00
F923   F     0.03621   0.51328   0.51287   0.00000  Uiso   1.00
H924   H     0.14043   0.50045   0.58076   0.00000  Uiso   1.00
H925   H     0.23923   0.36718   0.72094   0.00000  Uiso   1.00
H926   H     0.28149   0.43352   0.94505   0.00000  Uiso   1.00
H927   H     0.31358   0.47369   0.97128   0.00000  Uiso   1.00
H928   H     0.29678   0.42333   0.99304   0.00000  Uiso   1.00
H929   H     0.02859   0.53882   0.94715   0.00000  Uiso   1.00
H930   H     0.07159   0.56729   0.90931   0.00000  Uiso   1.00
H931   H     0.05541   0.51250   0.89582   0.00000  Uiso   1.00
H932   H     0.25831   0.57067   0.90072   0.00000  Uiso   1.00
H933   H     0.24571   0.53299   0.85764   0.00000  Uiso   1.00
H934   H     0.21017   0.57107   0.88537   0.00000  Uiso   1.00
H935   H     0.25092   0.44425   0.61442   0.00000  Uiso   1.00
H936   H     0.00807   0.55102   0.68069   0.00000  Uiso   1.00
H937   H     0.04301   0.56163   0.71733   0.00000  Uiso   1.00
H938   H     0.04672   0.51663   0.67720   0.00000  Uiso   1.00
H939   H     0.26492   0.40993   0.56552   0.00000  Uiso   1.00
H940   H     0.29521   0.46105   0.56885   0.00000  Uiso   1.00
H941   H     0.00131   0.44908   0.81874   0.00000  Uiso   1.00
H942   H     0.29256   0.48021   0.82757   0.00000  Uiso   1.00
H943   H     0.29647   0.43529   0.78630   0.00000  Uiso   1.00
H944   H     0.24174   0.65455   0.68330   0.00000  Uiso   1.00
H945   H     0.20950   0.35940   0.67845   0.00000  Uiso   1.00
O946   O     0.16667   0.50000   0.75000   0.00000  Uiso   1.00
O947   O     0.15451   0.45970   0.65458   0.00000  Uiso   1.00
O948   O     0.12940   0.53724   0.84968   0.00000  Uiso   1.00
O949   O     0.20824   0.51092   0.64606   0.00000  Uiso   1.00
O950   O     0.17451   0.49213   0.84968   0.00000  Uiso   1.00
O951   O     0.17930   0.41352   0.78213   0.00000  Uiso   1.00
O952   O     0.14632   0.59418   0.77013   0.00000  Uiso   1.00
O953   O     0.07412   0.46625   0.73413   0.00000  Uiso   1.00
O954   O     0.26693   0.52605   0.71360   0.00000  Uiso   1.00
O955   O     0.07071   0.52211   0.78213   0.00000  Uiso   1.00
O956   O     0.25491   0.48559   0.77013   0.00000  Uiso   1.00
O957   O     0.13760   0.40277   0.73413   0.00000  Uiso   1.00
O958   O     0.20345   0.58953   0.71360   0.00000  Uiso   1.00
Zn959  Zn    0.19338   0.47327   0.78734   0.00000  Uiso   1.00
Zn960  Zn    0.13379   0.45791   0.71875   0.00000  Uiso   1.00
Zn961  Zn    0.21056   0.53109   0.70657   0.00000  Uiso   1.00
Zn962  Zn    0.12893   0.53773   0.78733   0.00000  Uiso   1.00
C963   C     0.38650   0.49313   0.75981   0.00000  Uiso   1.00
C964   C     0.50140   0.48774   0.55906   0.00000  Uiso   1.00
C965   C     0.56761   0.46057   0.55422   0.00000  Uiso   1.00
C966   C     0.61422   0.50719   0.74011   0.00000  Uiso   1.00
C967   C     0.46913   0.52173   0.92145   0.00000  Uiso   1.00
C968   C     0.66009   0.51011   0.73668   0.00000  Uiso   1.00
C969   C     0.34141   0.48979   0.76475   0.00000  Uiso   1.00
C970   C     0.51520   0.65638   0.73660   0.00000  Uiso   1.00
C971   C     0.48550   0.34538   0.76351   0.00000  Uiso   1.00
C972   C     0.48921   0.38942   0.76052   0.00000  Uiso   1.00
C973   C     0.51024   0.61142   0.74010   0.00000  Uiso   1.00
C974   C     0.41131   0.51368   0.99006   0.00000  Uiso   1.00
C975   C     0.51920   0.48148   0.62917   0.00000  Uiso   1.00
C976   C     0.48122   0.51762   0.87121   0.00000  Uiso   1.00
C977   C     0.57997   0.46447   0.50680   0.00000  Uiso   1.00
C978   C     0.52903   0.47459   0.58004   0.00000  Uiso   1.00
C979   C     0.42575   0.52460   0.94529   0.00000  Uiso   1.00
C980   C     0.59615   0.44314   0.57709   0.00000  Uiso   1.00
C981   C     0.64780   0.46212   0.80127   0.00000  Uiso   1.00
C982   C     0.55361   0.34375   0.70289   0.00000  Uiso   1.00
C983   C     0.62022   0.44804   0.97766   0.00000  Uiso   1.00
C984   C     0.39362   0.53633   0.92313   0.00000  Uiso   1.00
C985   C     0.43845   0.49957   0.51097   0.00000  Uiso   1.00
C986   C     0.56529   0.55008   0.89019   0.00000  Uiso   1.00
C987   C     0.35775   0.53634   0.70095   0.00000  Uiso   1.00
C988   C     0.48289   0.50182   0.99026   0.00000  Uiso   1.00
C989   C     0.49863   0.51487   0.94553   0.00000  Uiso   1.00
C990   C     0.51195   0.49015   0.51214   0.00000  Uiso   1.00
C991   C     0.55394   0.48383   0.98691   0.00000  Uiso   1.00
C992   C     0.56977   0.50058   0.94430   0.00000  Uiso   1.00
C993   C     0.54350   0.51999   0.92616   0.00000  Uiso   1.00
F994   F     0.45005   0.66102   0.79314   0.00000  Uiso   1.00
F995   F     0.61202   0.50342   0.92269   0.00000  Uiso   1.00
F996   F     0.41968   0.48085   0.55002   0.00000  Uiso   1.00
F997   F     0.36955   0.51328   0.51287   0.00000  Uiso   1.00
H998   H     0.47376   0.50045   0.58076   0.00000  Uiso   1.00
H999   H     0.57256   0.36718   0.72094   0.00000  Uiso   1.00
H1000  H     0.61482   0.43352   0.94505   0.00000  Uiso   1.00
H1001  H     0.64691   0.47369   0.97128   0.00000  Uiso   1.00
H1002  H     0.63011   0.42333   0.99304   0.00000  Uiso   1.00
H1003  H     0.36193   0.53882   0.94715   0.00000  Uiso   1.00
H1004  H     0.40493   0.56729   0.90931   0.00000  Uiso   1.00
H1005  H     0.38874   0.51250   0.89582   0.00000  Uiso   1.00
H1006  H     0.59164   0.57067   0.90072   0.00000  Uiso   1.00
H1007  H     0.57904   0.53299   0.85764   0.00000  Uiso   1.00
H1008  H     0.54350   0.57107   0.88537   0.00000  Uiso   1.00
H1009  H     0.58426   0.44425   0.61442   0.00000  Uiso   1.00
H1010  H     0.34140   0.55102   0.68069   0.00000  Uiso   1.00
H1011  H     0.37635   0.56163   0.71733   0.00000  Uiso   1.00
H1012  H     0.38005   0.51663   0.67720   0.00000  Uiso   1.00
H1013  H     0.59825   0.40993   0.56552   0.00000  Uiso   1.00
H1014  H     0.62854   0.46105   0.56885   0.00000  Uiso   1.00
H1015  H     0.33465   0.44908   0.81874   0.00000  Uiso   1.00
H1016  H     0.62590   0.48021   0.82757   0.00000  Uiso   1.00
H1017  H     0.62980   0.43529   0.78630   0.00000  Uiso   1.00
H1018  H     0.57507   0.65455   0.68330   0.00000  Uiso   1.00
H1019  H     0.54283   0.35940   0.67845   0.00000  Uiso   1.00
O1020  O     0.50000   0.50000   0.75000   0.00000  Uiso   1.00
O1021  O     0.48784   0.45970   0.65458   0.00000  Uiso   1.00
O1022  O     0.46274   0.53724   0.84968   0.00000  Uiso   1.00
O1023  O     0.54157   0.51092   0.64606   0.00000  Uiso   1.00
O1024  O     0.50785   0.49213   0.84968   0.00000  Uiso   1.00
O1025  O     0.51264   0.41352   0.78213   0.00000  Uiso   1.00
O1026  O     0.47965   0.59418   0.77013   0.00000  Uiso   1.00
O1027  O     0.40745   0.46625   0.73413   0.00000  Uiso   1.00
O1028  O     0.60026   0.52605   0.71360   0.00000  Uiso   1.00
O1029  O     0.40405   0.52211   0.78213   0.00000  Uiso   1.00
O1030  O     0.58824   0.48559   0.77013   0.00000  Uiso   1.00
O1031  O     0.47093   0.40277   0.73413   0.00000  Uiso   1.00
O1032  O     0.53678   0.58953   0.71360   0.00000  Uiso   1.00
Zn1033 Zn    0.52672   0.47327   0.78734   0.00000  Uiso   1.00
Zn1034 Zn    0.46713   0.45791   0.71875   0.00000  Uiso   1.00
Zn1035 Zn    0.54389   0.53109   0.70657   0.00000  Uiso   1.00
Zn1036 Zn    0.46226   0.53773   0.78733   0.00000  Uiso   1.00
C1037  C     0.71984   0.49313   0.75981   0.00000  Uiso   1.00
C1038  C     0.83473   0.48774   0.55906   0.00000  Uiso   1.00
C1039  C     0.90094   0.46057   0.55422   0.00000  Uiso   1.00
C1040  C     0.94756   0.50719   0.74011   0.00000  Uiso   1.00
C1041  C     0.80246   0.52173   0.92145   0.00000  Uiso   1.00
C1042  C     0.99343   0.51011   0.73668   0.00000  Uiso   1.00
C1043  C     0.67474   0.48979   0.76475   0.00000  Uiso   1.00
C1044  C     0.84853   0.65638   0.73660   0.00000  Uiso   1.00
C1045  C     0.81883   0.34538   0.76351   0.00000  Uiso   1.00
C1046  C     0.82254   0.38942   0.76052   0.00000  Uiso   1.00
C1047  C     0.84357   0.61142   0.74010   0.00000  Uiso   1.00
C1048  C     0.74465   0.51368   0.99006   0.00000  Uiso   1.00
C1049  C     0.85253   0.48148   0.62917   0.00000  Uiso   1.00
C1050  C     0.81455   0.51762   0.87121   0.00000  Uiso   1.00
C1051  C     0.91330   0.46447   0.50680   0.00000  Uiso   1.00
C1052  C     0.86236   0.47459   0.58004   0.00000  Uiso   1.00
C1053  C     0.75908   0.52460   0.94529   0.00000  Uiso   1.00
C1054  C     0.92949   0.44314   0.57709   0.00000  Uiso   1.00
C1055  C     0.98114   0.46212   0.80127   0.00000  Uiso   1.00
C1056  C     0.88694   0.34375   0.70289   0.00000  Uiso   1.00
C1057  C     0.95355   0.44804   0.97766   0.00000  Uiso   1.00
C1058  C     0.72696   0.53633   0.92313   0.00000  Uiso   1.00
C1059  C     0.77179   0.49957   0.51097   0.00000  Uiso   1.00
C1060  C     0.89862   0.55008   0.89019   0.00000  Uiso   1.00
C1061  C     0.69109   0.53634   0.70095   0.00000  Uiso   1.00
C1062  C     0.81622   0.50182   0.99026   0.00000  Uiso   1.00
C1063  C     0.83197   0.51487   0.94553   0.00000  Uiso   1.00
C1064  C     0.84528   0.49015   0.51214   0.00000  Uiso   1.00
C1065  C     0.88727   0.48383   0.98691   0.00000  Uiso   1.00
C1066  C     0.90310   0.50058   0.94430   0.00000  Uiso   1.00
C1067  C     0.87683   0.51999   0.92616   0.00000  Uiso   1.00
F1068  F     0.78338   0.66102   0.79314   0.00000  Uiso   1.00
F1069  F     0.94536   0.50342   0.92269   0.00000  Uiso   1.00
F1070  F     0.75302   0.48085   0.55002   0.00000  Uiso   1.00
F1071  F     0.70288   0.51328   0.51287   0.00000  Uiso   1.00
H1072  H     0.80710   0.50045   0.58076   0.00000  Uiso   1.00
H1073  H     0.90590   0.36718   0.72094   0.00000  Uiso   1.00
H1074  H     0.94816   0.43352   0.94505   0.00000  Uiso   1.00
H1075  H     0.98025   0.47369   0.97128   0.00000  Uiso   1.00
H1076  H     0.96344   0.42333   0.99304   0.00000  Uiso   1.00
H1077  H     0.69526   0.53882   0.94715   0.00000  Uiso   1.00
H1078  H     0.73826   0.56729   0.90931   0.00000  Uiso   1.00
H1079  H     0.72208   0.51250   0.89582   0.00000  Uiso   1.00
H1080  H     0.92498   0.57067   0.90072   0.00000  Uiso   1.00
H1081  H     0.91238   0.53299   0.85764   0.00000  Uiso   1.00
H1082  H     0.87684   0.57107   0.88537   0.00000  Uiso   1.00
H1083  H     0.91759   0.44425   0.61442   0.00000  Uiso   1.00
H1084  H     0.67474   0.55102   0.68069   0.00000  Uiso   1.00
H1085  H     0.70968   0.56163   0.71733   0.00000  Uiso   1.00
H1086  H     0.71339   0.51663   0.67720   0.00000  Uiso   1.00
H1087  H     0.93158   0.40993   0.56552   0.00000  Uiso   1.00
H1088  H     0.96188   0.46105   0.56885   0.00000  Uiso   1.00
H1089  H     0.66798   0.44908   0.81874   0.00000  Uiso   1.00
H1090  H     0.95923   0.48021   0.82757   0.00000  Uiso   1.00
H1091  H     0.96313   0.43529   0.78630   0.00000  Uiso   1.00
H1092  H     0.90841   0.65455   0.68330   0.00000  Uiso   1.00
H1093  H     0.87617   0.35940   0.67845   0.00000  Uiso   1.00
O1094  O     0.83333   0.50000   0.75000   0.00000  Uiso   1.00
O1095  O     0.82118   0.45970   0.65458   0.00000  Uiso   1.00
O1096  O     0.79607   0.53724   0.84968   0.00000  Uiso   1.00
O1097  O     0.87491   0.51092   0.64606   0.00000  Uiso   1.00
O1098  O     0.84118   0.49213   0.84968   0.00000  Uiso   1.00
O1099  O     0.84597   0.41352   0.78213   0.00000  Uiso   1.00
O1100  O     0.81298   0.59418   0.77013   0.00000  Uiso   1.00
O1101  O     0.74078   0.46625   0.73413   0.00000  Uiso   1.00
O1102  O     0.93360   0.52605   0.71360   0.00000  Uiso   1.00
O1103  O     0.73738   0.52211   0.78213   0.00000  Uiso   1.00
O1104  O     0.92158   0.48559   0.77013   0.00000  Uiso   1.00
O1105  O     0.80426   0.40277   0.73413   0.00000  Uiso   1.00
O1106  O     0.87012   0.58953   0.71360   0.00000  Uiso   1.00
Zn1107 Zn    0.86005   0.47327   0.78734   0.00000  Uiso   1.00
Zn1108 Zn    0.80046   0.45791   0.71875   0.00000  Uiso   1.00
Zn1109 Zn    0.87723   0.53109   0.70657   0.00000  Uiso   1.00
Zn1110 Zn    0.79560   0.53773   0.78733   0.00000  Uiso   1.00
C1111  C     0.05317   0.82647   0.75981   0.00000  Uiso   1.00
C1112  C     0.16807   0.82107   0.55906   0.00000  Uiso   1.00
C1113  C     0.23428   0.79390   0.55422   0.00000  Uiso   1.00
C1114  C     0.28089   0.84053   0.74011   0.00000  Uiso   1.00
C1115  C     0.13579   0.85507   0.92145   0.00000  Uiso   1.00
C1116  C     0.32676   0.84345   0.73668   0.00000  Uiso   1.00
C1117  C     0.00807   0.82312   0.76475   0.00000  Uiso   1.00
C1118  C     0.18187   0.98971   0.73660   0.00000  Uiso   1.00
C1119  C     0.15216   0.67871   0.76351   0.00000  Uiso   1.00
C1120  C     0.15587   0.72275   0.76052   0.00000  Uiso   1.00
C1121  C     0.17690   0.94475   0.74010   0.00000  Uiso   1.00
C1122  C     0.07798   0.84701   0.99006   0.00000  Uiso   1.00
C1123  C     0.18587   0.81481   0.62917   0.00000  Uiso   1.00
C1124  C     0.14788   0.85095   0.87121   0.00000  Uiso   1.00
C1125  C     0.24664   0.79781   0.50680   0.00000  Uiso   1.00
C1126  C     0.19569   0.80793   0.58004   0.00000  Uiso   1.00
C1127  C     0.09242   0.85794   0.94529   0.00000  Uiso   1.00
C1128  C     0.26282   0.77648   0.57709   0.00000  Uiso   1.00
C1129  C     0.31447   0.79546   0.80127   0.00000  Uiso   1.00
C1130  C     0.22027   0.67709   0.70289   0.00000  Uiso   1.00
C1131  C     0.28688   0.78137   0.97766   0.00000  Uiso   1.00
C1132  C     0.06029   0.86967   0.92313   0.00000  Uiso   1.00
C1133  C     0.10512   0.83290   0.51097   0.00000  Uiso   1.00
C1134  C     0.23196   0.88341   0.89019   0.00000  Uiso   1.00
C1135  C     0.02442   0.86967   0.70095   0.00000  Uiso   1.00
C1136  C     0.14956   0.83515   0.99026   0.00000  Uiso   1.00
C1137  C     0.16530   0.84820   0.94553   0.00000  Uiso   1.00
C1138  C     0.17861   0.82348   0.51214   0.00000  Uiso   1.00
C1139  C     0.22060   0.81717   0.98691   0.00000  Uiso   1.00
C1140  C     0.23643   0.83392   0.94430   0.00000  Uiso   1.00
C1141  C     0.21017   0.85332   0.92616   0.00000  Uiso   1.00
F1142  F     0.11672   0.99435   0.79314   0.00000  Uiso   1.00
F1143  F     0.27869   0.83676   0.92269   0.00000  Uiso   1.00
F1144  F     0.08635   0.81419   0.55002   0.00000  Uiso   1.00
F1145  F     0.03621   0.84661   0.51287   0.00000  Uiso   1.00
H1146  H     0.14043   0.83379   0.58076   0.00000  Uiso   1.00
H1147  H     0.23923   0.70052   0.72094   0.00000  Uiso   1.00
H1148  H     0.28149   0.76685   0.94505   0.00000  Uiso   1.00
H1149  H     0.31358   0.80703   0.97128   0.00000  Uiso   1.00
H1150  H     0.29678   0.75667   0.99304   0.00000  Uiso   1.00
H1151  H     0.02859   0.87215   0.94715   0.00000  Uiso   1.00
H1152  H     0.07159   0.90062   0.90931   0.00000  Uiso   1.00
H1153  H     0.05541   0.84583   0.89582   0.00000  Uiso   1.00
H1154  H     0.25831   0.90400   0.90072   0.00000  Uiso   1.00
H1155  H     0.24571   0.86633   0.85764   0.00000  Uiso   1.00
H1156  H     0.21017   0.90441   0.88537   0.00000  Uiso   1.00
H1157  H     0.25092   0.77759   0.61442   0.00000  Uiso   1.00
H1158  H     0.00807   0.88435   0.68069   0.00000  Uiso   1.00
H1159  H     0.04301   0.89497   0.71733   0.00000  Uiso   1.00
H1160  H     0.04672   0.84996   0.67720   0.00000  Uiso   1.00
H1161  H     0.26492   0.74327   0.56552   0.00000  Uiso   1.00
H1162  H     0.29521   0.79439   0.56885   0.00000  Uiso   1.00
H1163  H     0.00131   0.78241   0.81874   0.00000  Uiso   1.00
H1164  H     0.29256   0.81354   0.82757   0.00000  Uiso   1.00
H1165  H     0.29647   0.76862   0.78630   0.00000  Uiso   1.00
H1166  H     0.24174   0.98789   0.68330   0.00000  Uiso   1.00
H1167  H     0.20950   0.69273   0.67845   0.00000  Uiso   1.00
O1168  O     0.16667   0.83333   0.75000   0.00000  Uiso   1.00
O1169  O     0.15451   0.79304   0.65458   0.00000  Uiso   1.00
O1170  O     0.12940   0.87058   0.84968   0.00000  Uiso   1.00
O1171  O     0.20824   0.84425   0.64606   0.00000  Uiso   1.00
O1172  O     0.17451   0.82546   0.84968   0.00000  Uiso   1.00
O1173  O     0.17930   0.74686   0.78213   0.00000  Uiso   1.00
O1174  O     0.14632   0.92751   0.77013   0.00000  Uiso   1.00
O1175  O     0.07412   0.79958   0.73413   0.00000  Uiso   1.00
O1176  O     0.26693   0.85939   0.71360   0.00000  Uiso   1.00
O1177  O     0.07071   0.85544   0.78213   0.00000  Uiso   1.00
O1178  O     0.25491   0.81892   0.77013   0.00000  Uiso   1.00
O1179  O     0.13760   0.73610   0.73413   0.00000  Uiso   1.00
O1180  O     0.20345   0.92286   0.71360   0.00000  Uiso   1.00
Zn1181 Zn    0.19338   0.80661   0.78734   0.00000  Uiso   1.00
Zn1182 Zn    0.13379   0.79124   0.71875   0.00000  Uiso   1.00
Zn1183 Zn    0.21056   0.86442   0.70657   0.00000  Uiso   1.00
Zn1184 Zn    0.12893   0.87106   0.78733   0.00000  Uiso   1.00
C1185  C     0.38650   0.82647   0.75981   0.00000  Uiso   1.00
C1186  C     0.50140   0.82107   0.55906   0.00000  Uiso   1.00
C1187  C     0.56761   0.79390   0.55422   0.00000  Uiso   1.00
C1188  C     0.61422   0.84053   0.74011   0.00000  Uiso   1.00
C1189  C     0.46913   0.85507   0.92145   0.00000  Uiso   1.00
C1190  C     0.66009   0.84345   0.73668   0.00000  Uiso   1.00
C1191  C     0.34141   0.82312   0.76475   0.00000  Uiso   1.00
C1192  C     0.51520   0.98971   0.73660   0.00000  Uiso   1.00
C1193  C     0.48550   0.67871   0.76351   0.00000  Uiso   1.00
C1194  C     0.48921   0.72275   0.76052   0.00000  Uiso   1.00
C1195  C     0.51024   0.94475   0.74010   0.00000  Uiso   1.00
C1196  C     0.41131   0.84701   0.99006   0.00000  Uiso   1.00
C1197  C     0.51920   0.81481   0.62917   0.00000  Uiso   1.00
C1198  C     0.48122   0.85095   0.87121   0.00000  Uiso   1.00
C1199  C     0.57997   0.79781   0.50680   0.00000  Uiso   1.00
C1200  C     0.52903   0.80793   0.58004   0.00000  Uiso   1.00
C1201  C     0.42575   0.85794   0.94529   0.00000  Uiso   1.00
C1202  C     0.59615   0.77648   0.57709   0.00000  Uiso   1.00
C1203  C     0.64780   0.79546   0.80127   0.00000  Uiso   1.00
C1204  C     0.55361   0.67709   0.70289   0.00000  Uiso   1.00
C1205  C     0.62022   0.78137   0.97766   0.00000  Uiso   1.00
C1206  C     0.39362   0.86967   0.92313   0.00000  Uiso   1.00
C1207  C     0.43845   0.83290   0.51097   0.00000  Uiso   1.00
C1208  C     0.56529   0.88341   0.89019   0.00000  Uiso   1.00
C1209  C     0.35775   0.86967   0.70095   0.00000  Uiso   1.00
C1210  C     0.48289   0.83515   0.99026   0.00000  Uiso   1.00
C1211  C     0.49863   0.84820   0.94553   0.00000  Uiso   1.00
C1212  C     0.51195   0.82348   0.51214   0.00000  Uiso   1.00
C1213  C     0.55394   0.81717   0.98691   0.00000  Uiso   1.00
C1214  C     0.56977   0.83392   0.94430   0.00000  Uiso   1.00
C1215  C     0.54350   0.85332   0.92616   0.00000  Uiso   1.00
F1216  F     0.45005   0.99435   0.79314   0.00000  Uiso   1.00
F1217  F     0.61202   0.83676   0.92269   0.00000  Uiso   1.00
F1218  F     0.41968   0.81419   0.55002   0.00000  Uiso   1.00
F1219  F     0.36955   0.84661   0.51287   0.00000  Uiso   1.00
H1220  H     0.47376   0.83379   0.58076   0.00000  Uiso   1.00
H1221  H     0.57256   0.70052   0.72094   0.00000  Uiso   1.00
H1222  H     0.61482   0.76685   0.94505   0.00000  Uiso   1.00
H1223  H     0.64691   0.80703   0.97128   0.00000  Uiso   1.00
H1224  H     0.63011   0.75667   0.99304   0.00000  Uiso   1.00
H1225  H     0.36193   0.87215   0.94715   0.00000  Uiso   1.00
H1226  H     0.40493   0.90062   0.90931   0.00000  Uiso   1.00
H1227  H     0.38874   0.84583   0.89582   0.00000  Uiso   1.00
H1228  H     0.59164   0.90400   0.90072   0.00000  Uiso   1.00
H1229  H     0.57904   0.86633   0.85764   0.00000  Uiso   1.00
H1230  H     0.54350   0.90441   0.88537   0.00000  Uiso   1.00
H1231  H     0.58426   0.77759   0.61442   0.00000  Uiso   1.00
H1232  H     0.34140   0.88435   0.68069   0.00000  Uiso   1.00
H1233  H     0.37635   0.89497   0.71733   0.00000  Uiso   1.00
H1234  H     0.38005   0.84996   0.67720   0.00000  Uiso   1.00
H1235  H     0.59825   0.74327   0.56552   0.00000  Uiso   1.00
H1236  H     0.62854   0.79439   0.56885   0.00000  Uiso   1.00
H1237  H     0.33465   0.78241   0.81874   0.00000  Uiso   1.00
H1238  H     0.62590   0.81354   0.82757   0.00000  Uiso   1.00
H1239  H     0.62980   0.76862   0.78630   0.00000  Uiso   1.00
H1240  H     0.57507   0.98789   0.68330   0.00000  Uiso   1.00
H1241  H     0.54283   0.69273   0.67845   0.00000  Uiso   1.00
O1242  O     0.50000   0.83333   0.75000   0.00000  Uiso   1.00
O1243  O     0.48784   0.79304   0.65458   0.00000  Uiso   1.00
O1244  O     0.46274   0.87058   0.84968   0.00000  Uiso   1.00
O1245  O     0.54157   0.84425   0.64606   0.00000  Uiso   1.00
O1246  O     0.50785   0.82546   0.84968   0.00000  Uiso   1.00
O1247  O     0.51264   0.74686   0.78213   0.00000  Uiso   1.00
O1248  O     0.47965   0.92751   0.77013   0.00000  Uiso   1.00
O1249  O     0.40745   0.79958   0.73413   0.00000  Uiso   1.00
O1250  O     0.60026   0.85939   0.71360   0.00000  Uiso   1.00
O1251  O     0.40405   0.85544   0.78213   0.00000  Uiso   1.00
O1252  O     0.58824   0.81892   0.77013   0.00000  Uiso   1.00
O1253  O     0.47093   0.73610   0.73413   0.00000  Uiso   1.00
O1254  O     0.53678   0.92286   0.71360   0.00000  Uiso   1.00
Zn1255 Zn    0.52672   0.80661   0.78734   0.00000  Uiso   1.00
Zn1256 Zn    0.46713   0.79124   0.71875   0.00000  Uiso   1.00
Zn1257 Zn    0.54389   0.86442   0.70657   0.00000  Uiso   1.00
Zn1258 Zn    0.46226   0.87106   0.78733   0.00000  Uiso   1.00
C1259  C     0.71984   0.82647   0.75981   0.00000  Uiso   1.00
C1260  C     0.83473   0.82107   0.55906   0.00000  Uiso   1.00
C1261  C     0.90094   0.79390   0.55422   0.00000  Uiso   1.00
C1262  C     0.94756   0.84053   0.74011   0.00000  Uiso   1.00
C1263  C     0.80246   0.85507   0.92145   0.00000  Uiso   1.00
C1264  C     0.99343   0.84345   0.73668   0.00000  Uiso   1.00
C1265  C     0.67474   0.82312   0.76475   0.00000  Uiso   1.00
C1266  C     0.84853   0.98971   0.73660   0.00000  Uiso   1.00
C1267  C     0.81883   0.67871   0.76351   0.00000  Uiso   1.00
C1268  C     0.82254   0.72275   0.76052   0.00000  Uiso   1.00
C1269  C     0.84357   0.94475   0.74010   0.00000  Uiso   1.00
C1270  C     0.74465   0.84701   0.99006   0.00000  Uiso   1.00
C1271  C     0.85253   0.81481   0.62917   0.00000  Uiso   1.00
C1272  C     0.81455   0.85095   0.87121   0.00000  Uiso   1.00
C1273  C     0.91330   0.79781   0.50680   0.00000  Uiso   1.00
C1274  C     0.86236   0.80793   0.58004   0.00000  Uiso   1.00
C1275  C     0.75908   0.85794   0.94529   0.00000  Uiso   1.00
C1276  C     0.92949   0.77648   0.57709   0.00000  Uiso   1.00
C1277  C     0.98114   0.79546   0.80127   0.00000  Uiso   1.00
C1278  C     0.88694   0.67709   0.70289   0.00000  Uiso   1.00
C1279  C     0.95355   0.78137   0.97766   0.00000  Uiso   1.00
C1280  C     0.72696   0.86967   0.92313   0.00000  Uiso   1.00
C1281  C     0.77179   0.83290   0.51097   0.00000  Uiso   1.00
C1282  C     0.89862   0.88341   0.89019   0.00000  Uiso   1.00
C1283  C     0.69109   0.86967   0.70095   0.00000  Uiso   1.00
C1284  C     0.81622   0.83515   0.99026   0.00000  Uiso   1.00
C1285  C     0.83197   0.84820   0.94553   0.00000  Uiso   1.00
C1286  C     0.84528   0.82348   0.51214   0.00000  Uiso   1.00
C1287  C     0.88727   0.81717   0.98691   0.00000  Uiso   1.00
C1288  C     0.90310   0.83392   0.94430   0.00000  Uiso   1.00
C1289  C     0.87683   0.85332   0.92616   0.00000  Uiso   1.00
F1290  F     0.78338   0.99435   0.79314   0.00000  Uiso   1.00
F1291  F     0.94536   0.83676   0.92269   0.00000  Uiso   1.00
F1292  F     0.75302   0.81419   0.55002   0.00000  Uiso   1.00
F1293  F     0.70288   0.84661   0.51287   0.00000  Uiso   1.00
H1294  H     0.80710   0.83379   0.58076   0.00000  Uiso   1.00
H1295  H     0.90590   0.70052   0.72094   0.00000  Uiso   1.00
H1296  H     0.94816   0.76685   0.94505   0.00000  Uiso   1.00
H1297  H     0.98025   0.80703   0.97128   0.00000  Uiso   1.00
H1298  H     0.96344   0.75667   0.99304   0.00000  Uiso   1.00
H1299  H     0.69526   0.87215   0.94715   0.00000  Uiso   1.00
H1300  H     0.73826   0.90062   0.90931   0.00000  Uiso   1.00
H1301  H     0.72208   0.84583   0.89582   0.00000  Uiso   1.00
H1302  H     0.92498   0.90400   0.90072   0.00000  Uiso   1.00
H1303  H     0.91238   0.86633   0.85764   0.00000  Uiso   1.00
H1304  H     0.87684   0.90441   0.88537   0.00000  Uiso   1.00
H1305  H     0.91759   0.77759   0.61442   0.00000  Uiso   1.00
H1306  H     0.67474   0.88435   0.68069   0.00000  Uiso   1.00
H1307  H     0.70968   0.89497   0.71733   0.00000  Uiso   1.00
H1308  H     0.71339   0.84996   0.67720   0.00000  Uiso   1.00
H1309  H     0.93158   0.74327   0.56552   0.00000  Uiso   1.00
H1310  H     0.96188   0.79439   0.56885   0.00000  Uiso   1.00
H1311  H     0.66798   0.78241   0.81874   0.00000  Uiso   1.00
H1312  H     0.95923   0.81354   0.82757   0.00000  Uiso   1.00
H1313  H     0.96313   0.76862   0.78630   0.00000  Uiso   1.00
H1314  H     0.90841   0.98789   0.68330   0.00000  Uiso   1.00
H1315  H     0.87617   0.69273   0.67845   0.00000  Uiso   1.00
O1316  O     0.83333   0.83333   0.75000   0.00000  Uiso   1.00
O1317  O     0.82118   0.79304   0.65458   0.00000  Uiso   1.00
O1318  O     0.79607   0.87058   0.84968   0.00000  Uiso   1.00
O1319  O     0.87491   0.84425   0.64606   0.00000  Uiso   1.00
O1320  O     0.84118   0.82546   0.84968   0.00000  Uiso   1.00
O1321  O     0.84597   0.74686   0.78213   0.00000  Uiso   1.00
O1322  O     0.81298   0.92751   0.77013   0.00000  Uiso   1.00
O1323  O     0.74078   0.79958   0.73413   0.00000  Uiso   1.00
O1324  O     0.93360   0.85939   0.71360   0.00000  Uiso   1.00
O1325  O     0.73738   0.85544   0.78213   0.00000  Uiso   1.00
O1326  O     0.92158   0.81892   0.77013   0.00000  Uiso   1.00
O1327  O     0.80426   0.73610   0.73413   0.00000  Uiso   1.00
O1328  O     0.87012   0.92286   0.71360   0.00000  Uiso   1.00
Zn1329 Zn    0.86005   0.80661   0.78734   0.00000  Uiso   1.00
Zn1330 Zn    0.80046   0.79124   0.71875   0.00000  Uiso   1.00
Zn1331 Zn    0.87723   0.86442   0.70657   0.00000  Uiso   1.00
Zn1332 Zn    0.79560   0.87106   0.78733   0.00000  Uiso   1.00
loop_
_geom_bond_atom_site_label_1
_geom_bond_atom_site_label_2
_geom_bond_distance
_geom_bond_site_symmetry_2
_ccdc_geom_bond_type
C1     O65     1.267   .     A
C1     O67     1.268   .     A
C1     C7      1.434   .     S
C2     C16     1.385   .     A
C2     H36     1.080   .     S
C2     C28     1.400   .     A
C3     C18     1.517   .     S
C3     C15     1.421   .     A
C3     C16     1.412   .     A
C4     O66     1.285   .     A
C4     C6      1.469   .     S
C4     O68     1.269   .     A
C5     C27     1.425   .     A
C5     C14     1.486   .     S
C5     C17     1.425   .     A
C6     C81     1.365   .     S
C6     C99     1.520   .     S
C7     C154    1.365   1_455 S
C7     C167    1.516   1_455 S
C8     C11     1.463   .     S
C8     C231    1.346   .     S
C8     C242    1.519   .     S
C9     C10     1.434   .     S
C9     C452    1.346   1_545 S
C9     F476    1.361   1_545 S
C10    O69     1.277   .     A
C10    O63     1.279   .     A
C11    O70     1.269   .     A
C11    O64     1.272   .     A
C12    C17     1.398   .     A
C12    C689    1.385   .     S
C12    F701    1.359   .     S
C13    O59     1.280   .     A
C13    C16     1.459   .     S
C13    O61     1.273   .     A
C14    O62     1.296   .     A
C14    O60     1.282   .     A
C15    C687    1.518   1_554 S
C15    C695    1.426   1_554 S
C17    C22     1.514   .     S
C18    H47     1.108   .     S
C18    H52     1.111   .     S
C18    H51     1.110   .     S
C19    H54     1.109   .     S
C19    H55     1.111   .     S
C19    C81     1.516   .     S
C19    H127    1.112   .     S
C20    H37     1.111   .     S
C20    H57     1.111   .     S
C20    C452    1.519   1_545 S
C20    H500    1.109   1_545 S
C21    H40     1.106   .     S
C21    H38     1.111   .     S
C21    H39     1.108   .     S
C21    C681    1.518   .     S
C22    H43     1.110   .     S
C22    H42     1.110   .     S
C22    H41     1.109   .     S
C23    F34     1.357   .     S
C23    C678    1.385   1_554 S
C23    C692    1.418   1_554 S
C24    H46     1.109   .     S
C24    H45     1.109   .     S
C24    H44     1.111   .     S
C24    C31     1.515   .     S
C25    H49     1.111   .     S
C25    H50     1.111   .     S
C25    H48     1.109   .     S
C25    C154    1.520   1_455 S
C26    C27     1.421   .     A
C26    C689    1.418   .     S
C26    C694    1.422   .     S
C27    C31     1.422   .     A
C28    C692    1.422   1_554 S
C28    C695    1.419   1_554 S
C29    C30     1.411   .     A
C29    C681    1.426   .     S
C29    C694    1.419   .     S
C30    F33     1.359   .     S
C30    C31     1.399   .     A
F32    C231    1.361   .     S
F35    C678    1.359   1_554 S
H53    C167    1.112   1_455 S
H56    C242    1.109   .     S
O58    Zn72    1.951   .     S
O58    Zn71    1.961   .     S
O58    Zn74    1.937   .     S
O58    Zn73    1.923   .     S
O59    Zn72    1.912   .     S
O60    Zn74    1.927   .     S
O61    Zn73    1.927   .     S
O62    Zn71    1.914   .     S
O63    Zn71    1.934   .     S
O64    Zn74    1.930   .     S
O65    Zn72    1.940   .     S
O66    Zn73    1.953   .     S
O67    Zn74    1.947   .     S
O68    Zn71    1.933   .     S
O69    Zn72    1.938   .     S
O70    Zn73    1.937   .     S
C75    O139    1.267   .     A
C75    O141    1.268   .     A
C75    C81     1.434   .     S
C76    C90     1.385   .     A
C76    H110    1.080   .     S
C76    C102    1.400   .     A
C77    C92     1.517   .     S
C77    C89     1.421   .     A
C77    C90     1.412   .     A
C78    O140    1.285   .     A
C78    C80     1.469   .     S
C78    O142    1.269   .     A
C79    C101    1.425   .     A
C79    C88     1.486   .     S
C79    C91     1.425   .     A
C80    C155    1.365   .     S
C80    C173    1.520   .     S
C82    C85     1.463   .     S
C82    C305    1.346   .     S
C82    C316    1.519   .     S
C83    C84     1.434   .     S
C83    C526    1.346   1_545 S
C83    F550    1.361   1_545 S
C84    O143    1.277   .     A
C84    O137    1.279   .     A
C85    O144    1.269   .     A
C85    O138    1.272   .     A
C86    C91     1.398   .     A
C86    C763    1.385   .     S
C86    F775    1.359   .     S
C87    O133    1.280   .     A
C87    C90     1.459   .     S
C87    O135    1.273   .     A
C88    O136    1.296   .     A
C88    O134    1.282   .     A
C89    C761    1.518   1_554 S
C89    C769    1.426   1_554 S
C91    C96     1.514   .     S
C92    H121    1.108   .     S
C92    H126    1.111   .     S
C92    H125    1.110   .     S
C93    H128    1.109   .     S
C93    H129    1.111   .     S
C93    C155    1.516   .     S
C93    H201    1.112   .     S
C94    H111    1.111   .     S
C94    H131    1.111   .     S
C94    C526    1.519   1_545 S
C94    H574    1.109   1_545 S
C95    H114    1.106   .     S
C95    H112    1.111   .     S
C95    H113    1.108   .     S
C95    C755    1.518   .     S
C96    H117    1.110   .     S
C96    H116    1.110   .     S
C96    H115    1.109   .     S
C97    F108    1.357   .     S
C97    C752    1.385   1_554 S
C97    C766    1.418   1_554 S
C98    H120    1.109   .     S
C98    H119    1.109   .     S
C98    H118    1.111   .     S
C98    C105    1.515   .     S
C99    H123    1.111   .     S
C99    H124    1.111   .     S
C99    H122    1.109   .     S
C100   C101    1.421   .     A
C100   C763    1.418   .     S
C100   C768    1.422   .     S
C101   C105    1.422   .     A
C102   C766    1.422   1_554 S
C102   C769    1.419   1_554 S
C103   C104    1.411   .     A
C103   C755    1.426   .     S
C103   C768    1.419   .     S
C104   F107    1.359   .     S
C104   C105    1.399   .     A
F106   C305    1.361   .     S
F109   C752    1.359   1_554 S
H130   C316    1.109   .     S
O132   Zn146   1.951   .     S
O132   Zn145   1.961   .     S
O132   Zn148   1.937   .     S
O132   Zn147   1.923   .     S
O133   Zn146   1.912   .     S
O134   Zn148   1.927   .     S
O135   Zn147   1.927   .     S
O136   Zn145   1.914   .     S
O137   Zn145   1.934   .     S
O138   Zn148   1.930   .     S
O139   Zn146   1.940   .     S
O140   Zn147   1.953   .     S
O141   Zn148   1.947   .     S
O142   Zn145   1.933   .     S
O143   Zn146   1.938   .     S
O144   Zn147   1.937   .     S
C149   O213    1.267   .     A
C149   O215    1.268   .     A
C149   C155    1.434   .     S
C150   C164    1.385   .     A
C150   H184    1.080   .     S
C150   C176    1.400   .     A
C151   C166    1.517   .     S
C151   C163    1.421   .     A
C151   C164    1.412   .     A
C152   O214    1.285   .     A
C152   C154    1.469   .     S
C152   O216    1.269   .     A
C153   C175    1.425   .     A
C153   C162    1.486   .     S
C153   C165    1.425   .     A
C154   C7      1.365   1_655 S
C154   C25     1.520   1_655 S
C156   C159    1.463   .     S
C156   C379    1.346   .     S
C156   C390    1.519   .     S
C157   C158    1.434   .     S
C157   C600    1.346   1_545 S
C157   F624    1.361   1_545 S
C158   O217    1.277   .     A
C158   O211    1.279   .     A
C159   O218    1.269   .     A
C159   O212    1.272   .     A
C160   C165    1.398   .     A
C160   C837    1.385   .     S
C160   F849    1.359   .     S
C161   O207    1.280   .     A
C161   C164    1.459   .     S
C161   O209    1.273   .     A
C162   O210    1.296   .     A
C162   O208    1.282   .     A
C163   C835    1.518   1_554 S
C163   C843    1.426   1_554 S
C165   C170    1.514   .     S
C166   H195    1.108   .     S
C166   H200    1.111   .     S
C166   H199    1.110   .     S
C167   H202    1.109   .     S
C167   H203    1.111   .     S
C167   C7      1.516   1_655 S
C167   H53     1.112   1_655 S
C168   H185    1.111   .     S
C168   H205    1.111   .     S
C168   C600    1.519   1_545 S
C168   H648    1.109   1_545 S
C169   H188    1.106   .     S
C169   H186    1.111   .     S
C169   H187    1.108   .     S
C169   C829    1.518   .     S
C170   H191    1.110   .     S
C170   H190    1.110   .     S
C170   H189    1.109   .     S
C171   F182    1.357   .     S
C171   C826    1.385   1_554 S
C171   C840    1.418   1_554 S
C172   H194    1.109   .     S
C172   H193    1.109   .     S
C172   H192    1.111   .     S
C172   C179    1.515   .     S
C173   H197    1.111   .     S
C173   H198    1.111   .     S
C173   H196    1.109   .     S
C174   C175    1.421   .     A
C174   C837    1.418   .     S
C174   C842    1.422   .     S
C175   C179    1.422   .     A
C176   C840    1.422   1_554 S
C176   C843    1.419   1_554 S
C177   C178    1.411   .     A
C177   C829    1.426   .     S
C177   C842    1.419   .     S
C178   F181    1.359   .     S
C178   C179    1.399   .     A
F180   C379    1.361   .     S
F183   C826    1.359   1_554 S
H204   C390    1.109   .     S
O206   Zn220   1.951   .     S
O206   Zn219   1.961   .     S
O206   Zn222   1.937   .     S
O206   Zn221   1.923   .     S
O207   Zn220   1.912   .     S
O208   Zn222   1.927   .     S
O209   Zn221   1.927   .     S
O210   Zn219   1.914   .     S
O211   Zn219   1.934   .     S
O212   Zn222   1.930   .     S
O213   Zn220   1.940   .     S
O214   Zn221   1.953   .     S
O215   Zn222   1.947   .     S
O216   Zn219   1.933   .     S
O217   Zn220   1.938   .     S
O218   Zn221   1.937   .     S
C223   O287    1.267   .     A
C223   O289    1.268   .     A
C223   C229    1.434   .     S
C224   C238    1.385   .     A
C224   H258    1.080   .     S
C224   C250    1.400   .     A
C225   C240    1.517   .     S
C225   C237    1.421   .     A
C225   C238    1.412   .     A
C226   O288    1.285   .     A
C226   C228    1.469   .     S
C226   O290    1.269   .     A
C227   C249    1.425   .     A
C227   C236    1.486   .     S
C227   C239    1.425   .     A
C228   C303    1.365   .     S
C228   C321    1.520   .     S
C229   C376    1.365   1_455 S
C229   C389    1.516   1_455 S
C230   C233    1.463   .     S
C230   C453    1.346   .     S
C230   C464    1.519   .     S
C231   C232    1.434   .     S
C232   O291    1.277   .     A
C232   O285    1.279   .     A
C233   O292    1.269   .     A
C233   O286    1.272   .     A
C234   C239    1.398   .     A
C234   C911    1.385   .     S
C234   F923    1.359   .     S
C235   O281    1.280   .     A
C235   C238    1.459   .     S
C235   O283    1.273   .     A
C236   O284    1.296   .     A
C236   O282    1.282   .     A
C237   C909    1.518   1_554 S
C237   C917    1.426   1_554 S
C239   C244    1.514   .     S
C240   H269    1.108   .     S
C240   H274    1.111   .     S
C240   H273    1.110   .     S
C241   H276    1.109   .     S
C241   H277    1.111   .     S
C241   C303    1.516   .     S
C241   H349    1.112   .     S
C242   H259    1.111   .     S
C242   H279    1.111   .     S
C243   H262    1.106   .     S
C243   H260    1.111   .     S
C243   H261    1.108   .     S
C243   C903    1.518   .     S
C244   H265    1.110   .     S
C244   H264    1.110   .     S
C244   H263    1.109   .     S
C245   F256    1.357   .     S
C245   C900    1.385   1_554 S
C245   C914    1.418   1_554 S
C246   H268    1.109   .     S
C246   H267    1.109   .     S
C246   H266    1.111   .     S
C246   C253    1.515   .     S
C247   H271    1.111   .     S
C247   H272    1.111   .     S
C247   H270    1.109   .     S
C247   C376    1.520   1_455 S
C248   C249    1.421   .     A
C248   C911    1.418   .     S
C248   C916    1.422   .     S
C249   C253    1.422   .     A
C250   C914    1.422   1_554 S
C250   C917    1.419   1_554 S
C251   C252    1.411   .     A
C251   C903    1.426   .     S
C251   C916    1.419   .     S
C252   F255    1.359   .     S
C252   C253    1.399   .     A
F254   C453    1.361   .     S
F257   C900    1.359   1_554 S
H275   C389    1.112   1_455 S
H278   C464    1.109   .     S
O280   Zn294   1.951   .     S
O280   Zn293   1.961   .     S
O280   Zn296   1.937   .     S
O280   Zn295   1.923   .     S
O281   Zn294   1.912   .     S
O282   Zn296   1.927   .     S
O283   Zn295   1.927   .     S
O284   Zn293   1.914   .     S
O285   Zn293   1.934   .     S
O286   Zn296   1.930   .     S
O287   Zn294   1.940   .     S
O288   Zn295   1.953   .     S
O289   Zn296   1.947   .     S
O290   Zn293   1.933   .     S
O291   Zn294   1.938   .     S
O292   Zn295   1.937   .     S
C297   O361    1.267   .     A
C297   O363    1.268   .     A
C297   C303    1.434   .     S
C298   C312    1.385   .     A
C298   H332    1.080   .     S
C298   C324    1.400   .     A
C299   C314    1.517   .     S
C299   C311    1.421   .     A
C299   C312    1.412   .     A
C300   O362    1.285   .     A
C300   C302    1.469   .     S
C300   O364    1.269   .     A
C301   C323    1.425   .     A
C301   C310    1.486   .     S
C301   C313    1.425   .     A
C302   C377    1.365   .     S
C302   C395    1.520   .     S
C304   C307    1.463   .     S
C304   C527    1.346   .     S
C304   C538    1.519   .     S
C305   C306    1.434   .     S
C306   O365    1.277   .     A
C306   O359    1.279   .     A
C307   O366    1.269   .     A
C307   O360    1.272   .     A
C308   C313    1.398   .     A
C308   C985    1.385   .     S
C308   F997    1.359   .     S
C309   O355    1.280   .     A
C309   C312    1.459   .     S
C309   O357    1.273   .     A
C310   O358    1.296   .     A
C310   O356    1.282   .     A
C311   C983    1.518   1_554 S
C311   C991    1.426   1_554 S
C313   C318    1.514   .     S
C314   H343    1.108   .     S
C314   H348    1.111   .     S
C314   H347    1.110   .     S
C315   H350    1.109   .     S
C315   H351    1.111   .     S
C315   C377    1.516   .     S
C315   H423    1.112   .     S
C316   H333    1.111   .     S
C316   H353    1.111   .     S
C317   H336    1.106   .     S
C317   H334    1.111   .     S
C317   H335    1.108   .     S
C317   C977    1.518   .     S
C318   H339    1.110   .     S
C318   H338    1.110   .     S
C318   H337    1.109   .     S
C319   F330    1.357   .     S
C319   C974    1.385   1_554 S
C319   C988    1.418   1_554 S
C320   H342    1.109   .     S
C320   H341    1.109   .     S
C320   H340    1.111   .     S
C320   C327    1.515   .     S
C321   H345    1.111   .     S
C321   H346    1.111   .     S
C321   H344    1.109   .     S
C322   C323    1.421   .     A
C322   C985    1.418   .     S
C322   C990    1.422   .     S
C323   C327    1.422   .     A
C324   C988    1.422   1_554 S
C324   C991    1.419   1_554 S
C325   C326    1.411   .     A
C325   C977    1.426   .     S
C325   C990    1.419   .     S
C326   F329    1.359   .     S
C326   C327    1.399   .     A
F328   C527    1.361   .     S
F331   C974    1.359   1_554 S
H352   C538    1.109   .     S
O354   Zn368   1.951   .     S
O354   Zn367   1.961   .     S
O354   Zn370   1.937   .     S
O354   Zn369   1.923   .     S
O355   Zn368   1.912   .     S
O356   Zn370   1.927   .     S
O357   Zn369   1.927   .     S
O358   Zn367   1.914   .     S
O359   Zn367   1.934   .     S
O360   Zn370   1.930   .     S
O361   Zn368   1.940   .     S
O362   Zn369   1.953   .     S
O363   Zn370   1.947   .     S
O364   Zn367   1.933   .     S
O365   Zn368   1.938   .     S
O366   Zn369   1.937   .     S
C371   O435    1.267   .     A
C371   O437    1.268   .     A
C371   C377    1.434   .     S
C372   C386    1.385   .     A
C372   H406    1.080   .     S
C372   C398    1.400   .     A
C373   C388    1.517   .     S
C373   C385    1.421   .     A
C373   C386    1.412   .     A
C374   O436    1.285   .     A
C374   C376    1.469   .     S
C374   O438    1.269   .     A
C375   C397    1.425   .     A
C375   C384    1.486   .     S
C375   C387    1.425   .     A
C376   C229    1.365   1_655 S
C376   C247    1.520   1_655 S
C378   C381    1.463   .     S
C378   C601    1.346   .     S
C378   C612    1.519   .     S
C379   C380    1.434   .     S
C380   O439    1.277   .     A
C380   O433    1.279   .     A
C381   O440    1.269   .     A
C381   O434    1.272   .     A
C382   C387    1.398   .     A
C382   C1059   1.385   .     S
C382   F1071   1.359   .     S
C383   O429    1.280   .     A
C383   C386    1.459   .     S
C383   O431    1.273   .     A
C384   O432    1.296   .     A
C384   O430    1.282   .     A
C385   C1057   1.518   1_554 S
C385   C1065   1.426   1_554 S
C387   C392    1.514   .     S
C388   H417    1.108   .     S
C388   H422    1.111   .     S
C388   H421    1.110   .     S
C389   H424    1.109   .     S
C389   H425    1.111   .     S
C389   C229    1.516   1_655 S
C389   H275    1.112   1_655 S
C390   H407    1.111   .     S
C390   H427    1.111   .     S
C391   H410    1.106   .     S
C391   H408    1.111   .     S
C391   H409    1.108   .     S
C391   C1051   1.518   .     S
C392   H413    1.110   .     S
C392   H412    1.110   .     S
C392   H411    1.109   .     S
C393   F404    1.357   .     S
C393   C1048   1.385   1_554 S
C393   C1062   1.418   1_554 S
C394   H416    1.109   .     S
C394   H415    1.109   .     S
C394   H414    1.111   .     S
C394   C401    1.515   .     S
C395   H419    1.111   .     S
C395   H420    1.111   .     S
C395   H418    1.109   .     S
C396   C397    1.421   .     A
C396   C1059   1.418   .     S
C396   C1064   1.422   .     S
C397   C401    1.422   .     A
C398   C1062   1.422   1_554 S
C398   C1065   1.419   1_554 S
C399   C400    1.411   .     A
C399   C1051   1.426   .     S
C399   C1064   1.419   .     S
C400   F403    1.359   .     S
C400   C401    1.399   .     A
F402   C601    1.361   .     S
F405   C1048   1.359   1_554 S
H426   C612    1.109   .     S
O428   Zn442   1.951   .     S
O428   Zn441   1.961   .     S
O428   Zn444   1.937   .     S
O428   Zn443   1.923   .     S
O429   Zn442   1.912   .     S
O430   Zn444   1.927   .     S
O431   Zn443   1.927   .     S
O432   Zn441   1.914   .     S
O433   Zn441   1.934   .     S
O434   Zn444   1.930   .     S
O435   Zn442   1.940   .     S
O436   Zn443   1.953   .     S
O437   Zn444   1.947   .     S
O438   Zn441   1.933   .     S
O439   Zn442   1.938   .     S
O440   Zn443   1.937   .     S
C445   O509    1.267   .     A
C445   O511    1.268   .     A
C445   C451    1.434   .     S
C446   C460    1.385   .     A
C446   H480    1.080   .     S
C446   C472    1.400   .     A
C447   C462    1.517   .     S
C447   C459    1.421   .     A
C447   C460    1.412   .     A
C448   O510    1.285   .     A
C448   C450    1.469   .     S
C448   O512    1.269   .     A
C449   C471    1.425   .     A
C449   C458    1.486   .     S
C449   C461    1.425   .     A
C450   C525    1.365   .     S
C450   C543    1.520   .     S
C451   C598    1.365   1_455 S
C451   C611    1.516   1_455 S
C452   C455    1.463   .     S
C452   C9      1.346   1_565 S
C452   C20     1.519   1_565 S
C453   C454    1.434   .     S
C454   O513    1.277   .     A
C454   O507    1.279   .     A
C455   O514    1.269   .     A
C455   O508    1.272   .     A
C456   C461    1.398   .     A
C456   C1133   1.385   .     S
C456   F1145   1.359   .     S
C457   O503    1.280   .     A
C457   C460    1.459   .     S
C457   O505    1.273   .     A
C458   O506    1.296   .     A
C458   O504    1.282   .     A
C459   C1131   1.518   1_554 S
C459   C1139   1.426   1_554 S
C461   C466    1.514   .     S
C462   H491    1.108   .     S
C462   H496    1.111   .     S
C462   H495    1.110   .     S
C463   H498    1.109   .     S
C463   H499    1.111   .     S
C463   C525    1.516   .     S
C463   H571    1.112   .     S
C464   H481    1.111   .     S
C464   H501    1.111   .     S
C465   H484    1.106   .     S
C465   H482    1.111   .     S
C465   H483    1.108   .     S
C465   C1125   1.518   .     S
C466   H487    1.110   .     S
C466   H486    1.110   .     S
C466   H485    1.109   .     S
C467   F478    1.357   .     S
C467   C1122   1.385   1_554 S
C467   C1136   1.418   1_554 S
C468   H490    1.109   .     S
C468   H489    1.109   .     S
C468   H488    1.111   .     S
C468   C475    1.515   .     S
C469   H493    1.111   .     S
C469   H494    1.111   .     S
C469   H492    1.109   .     S
C469   C598    1.520   1_455 S
C470   C471    1.421   .     A
C470   C1133   1.418   .     S
C470   C1138   1.422   .     S
C471   C475    1.422   .     A
C472   C1136   1.422   1_554 S
C472   C1139   1.419   1_554 S
C473   C474    1.411   .     A
C473   C1125   1.426   .     S
C473   C1138   1.419   .     S
C474   F477    1.359   .     S
C474   C475    1.399   .     A
F476   C9      1.361   1_565 S
F479   C1122   1.359   1_554 S
H497   C611    1.112   1_455 S
H500   C20     1.109   1_565 S
O502   Zn516   1.951   .     S
O502   Zn515   1.961   .     S
O502   Zn518   1.937   .     S
O502   Zn517   1.923   .     S
O503   Zn516   1.912   .     S
O504   Zn518   1.927   .     S
O505   Zn517   1.927   .     S
O506   Zn515   1.914   .     S
O507   Zn515   1.934   .     S
O508   Zn518   1.930   .     S
O509   Zn516   1.940   .     S
O510   Zn517   1.953   .     S
O511   Zn518   1.947   .     S
O512   Zn515   1.933   .     S
O513   Zn516   1.938   .     S
O514   Zn517   1.937   .     S
C519   O583    1.267   .     A
C519   O585    1.268   .     A
C519   C525    1.434   .     S
C520   C534    1.385   .     A
C520   H554    1.080   .     S
C520   C546    1.400   .     A
C521   C536    1.517   .     S
C521   C533    1.421   .     A
C521   C534    1.412   .     A
C522   O584    1.285   .     A
C522   C524    1.469   .     S
C522   O586    1.269   .     A
C523   C545    1.425   .     A
C523   C532    1.486   .     S
C523   C535    1.425   .     A
C524   C599    1.365   .     S
C524   C617    1.520   .     S
C526   C529    1.463   .     S
C526   C83     1.346   1_565 S
C526   C94     1.519   1_565 S
C527   C528    1.434   .     S
C528   O587    1.277   .     A
C528   O581    1.279   .     A
C529   O588    1.269   .     A
C529   O582    1.272   .     A
C530   C535    1.398   .     A
C530   C1207   1.385   .     S
C530   F1219   1.359   .     S
C531   O577    1.280   .     A
C531   C534    1.459   .     S
C531   O579    1.273   .     A
C532   O580    1.296   .     A
C532   O578    1.282   .     A
C533   C1205   1.518   1_554 S
C533   C1213   1.426   1_554 S
C535   C540    1.514   .     S
C536   H565    1.108   .     S
C536   H570    1.111   .     S
C536   H569    1.110   .     S
C537   H572    1.109   .     S
C537   H573    1.111   .     S
C537   C599    1.516   .     S
C537   H645    1.112   .     S
C538   H555    1.111   .     S
C538   H575    1.111   .     S
C539   H558    1.106   .     S
C539   H556    1.111   .     S
C539   H557    1.108   .     S
C539   C1199   1.518   .     S
C540   H561    1.110   .     S
C540   H560    1.110   .     S
C540   H559    1.109   .     S
C541   F552    1.357   .     S
C541   C1196   1.385   1_554 S
C541   C1210   1.418   1_554 S
C542   H564    1.109   .     S
C542   H563    1.109   .     S
C542   H562    1.111   .     S
C542   C549    1.515   .     S
C543   H567    1.111   .     S
C543   H568    1.111   .     S
C543   H566    1.109   .     S
C544   C545    1.421   .     A
C544   C1207   1.418   .     S
C544   C1212   1.422   .     S
C545   C549    1.422   .     A
C546   C1210   1.422   1_554 S
C546   C1213   1.419   1_554 S
C547   C548    1.411   .     A
C547   C1199   1.426   .     S
C547   C1212   1.419   .     S
C548   F551    1.359   .     S
C548   C549    1.399   .     A
F550   C83     1.361   1_565 S
F553   C1196   1.359   1_554 S
H574   C94     1.109   1_565 S
O576   Zn590   1.951   .     S
O576   Zn589   1.961   .     S
O576   Zn592   1.937   .     S
O576   Zn591   1.923   .     S
O577   Zn590   1.912   .     S
O578   Zn592   1.927   .     S
O579   Zn591   1.927   .     S
O580   Zn589   1.914   .     S
O581   Zn589   1.934   .     S
O582   Zn592   1.930   .     S
O583   Zn590   1.940   .     S
O584   Zn591   1.953   .     S
O585   Zn592   1.947   .     S
O586   Zn589   1.933   .     S
O587   Zn590   1.938   .     S
O588   Zn591   1.937   .     S
C593   O657    1.267   .     A
C593   O659    1.268   .     A
C593   C599    1.434   .     S
C594   C608    1.385   .     A
C594   H628    1.080   .     S
C594   C620    1.400   .     A
C595   C610    1.517   .     S
C595   C607    1.421   .     A
C595   C608    1.412   .     A
C596   O658    1.285   .     A
C596   C598    1.469   .     S
C596   O660    1.269   .     A
C597   C619    1.425   .     A
C597   C606    1.486   .     S
C597   C609    1.425   .     A
C598   C451    1.365   1_655 S
C598   C469    1.520   1_655 S
C600   C603    1.463   .     S
C600   C157    1.346   1_565 S
C600   C168    1.519   1_565 S
C601   C602    1.434   .     S
C602   O661    1.277   .     A
C602   O655    1.279   .     A
C603   O662    1.269   .     A
C603   O656    1.272   .     A
C604   C609    1.398   .     A
C604   C1281   1.385   .     S
C604   F1293   1.359   .     S
C605   O651    1.280   .     A
C605   C608    1.459   .     S
C605   O653    1.273   .     A
C606   O654    1.296   .     A
C606   O652    1.282   .     A
C607   C1279   1.518   1_554 S
C607   C1287   1.426   1_554 S
C609   C614    1.514   .     S
C610   H639    1.108   .     S
C610   H644    1.111   .     S
C610   H643    1.110   .     S
C611   H646    1.109   .     S
C611   H647    1.111   .     S
C611   C451    1.516   1_655 S
C611   H497    1.112   1_655 S
C612   H629    1.111   .     S
C612   H649    1.111   .     S
C613   H632    1.106   .     S
C613   H630    1.111   .     S
C613   H631    1.108   .     S
C613   C1273   1.518   .     S
C614   H635    1.110   .     S
C614   H634    1.110   .     S
C614   H633    1.109   .     S
C615   F626    1.357   .     S
C615   C1270   1.385   1_554 S
C615   C1284   1.418   1_554 S
C616   H638    1.109   .     S
C616   H637    1.109   .     S
C616   H636    1.111   .     S
C616   C623    1.515   .     S
C617   H641    1.111   .     S
C617   H642    1.111   .     S
C617   H640    1.109   .     S
C618   C619    1.421   .     A
C618   C1281   1.418   .     S
C618   C1286   1.422   .     S
C619   C623    1.422   .     A
C620   C1284   1.422   1_554 S
C620   C1287   1.419   1_554 S
C621   C622    1.411   .     A
C621   C1273   1.426   .     S
C621   C1286   1.419   .     S
C622   F625    1.359   .     S
C622   C623    1.399   .     A
F624   C157    1.361   1_565 S
F627   C1270   1.359   1_554 S
H648   C168    1.109   1_565 S
O650   Zn664   1.951   .     S
O650   Zn663   1.961   .     S
O650   Zn666   1.937   .     S
O650   Zn665   1.923   .     S
O651   Zn664   1.912   .     S
O652   Zn666   1.927   .     S
O653   Zn665   1.927   .     S
O654   Zn663   1.914   .     S
O655   Zn663   1.934   .     S
O656   Zn666   1.930   .     S
O657   Zn664   1.940   .     S
O658   Zn665   1.953   .     S
O659   Zn666   1.947   .     S
O660   Zn663   1.933   .     S
O661   Zn664   1.938   .     S
O662   Zn665   1.937   .     S
C667   O731    1.267   .     A
C667   O733    1.268   .     A
C667   C673    1.434   .     S
C668   C682    1.385   .     A
C668   H702    1.080   .     S
C668   C694    1.400   .     A
C669   C684    1.517   .     S
C669   C681    1.421   .     A
C669   C682    1.412   .     A
C670   O732    1.285   .     A
C670   C672    1.469   .     S
C670   O734    1.269   .     A
C671   C693    1.425   .     A
C671   C680    1.486   .     S
C671   C683    1.425   .     A
C672   C747    1.365   .     S
C672   C765    1.520   .     S
C673   C820    1.365   1_455 S
C673   C833    1.516   1_455 S
C674   C677    1.463   .     S
C674   C897    1.346   .     S
C674   C908    1.519   .     S
C675   C676    1.434   .     S
C675   C1118   1.346   1_545 S
C675   F1142   1.361   1_545 S
C676   O735    1.277   .     A
C676   O729    1.279   .     A
C677   O736    1.269   .     A
C677   O730    1.272   .     A
C678   C683    1.398   .     A
C678   C23     1.385   1_556 S
C678   F35     1.359   1_556 S
C679   O725    1.280   .     A
C679   C682    1.459   .     S
C679   O727    1.273   .     A
C680   O728    1.296   .     A
C680   O726    1.282   .     A
C683   C688    1.514   .     S
C684   H713    1.108   .     S
C684   H718    1.111   .     S
C684   H717    1.110   .     S
C685   H720    1.109   .     S
C685   H721    1.111   .     S
C685   C747    1.516   .     S
C685   H793    1.112   .     S
C686   H703    1.111   .     S
C686   H723    1.111   .     S
C686   C1118   1.519   1_545 S
C686   H1166   1.109   1_545 S
C687   H706    1.106   .     S
C687   H704    1.111   .     S
C687   H705    1.108   .     S
C687   C15     1.518   1_556 S
C688   H709    1.110   .     S
C688   H708    1.110   .     S
C688   H707    1.109   .     S
C689   F700    1.357   .     S
C690   H712    1.109   .     S
C690   H711    1.109   .     S
C690   H710    1.111   .     S
C690   C697    1.515   .     S
C691   H715    1.111   .     S
C691   H716    1.111   .     S
C691   H714    1.109   .     S
C691   C820    1.520   1_455 S
C692   C693    1.421   .     A
C692   C23     1.418   1_556 S
C692   C28     1.422   1_556 S
C693   C697    1.422   .     A
C695   C696    1.411   .     A
C695   C15     1.426   1_556 S
C695   C28     1.419   1_556 S
C696   F699    1.359   .     S
C696   C697    1.399   .     A
F698   C897    1.361   .     S
H719   C833    1.112   1_455 S
H722   C908    1.109   .     S
O724   Zn738   1.951   .     S
O724   Zn737   1.961   .     S
O724   Zn740   1.937   .     S
O724   Zn739   1.923   .     S
O725   Zn738   1.912   .     S
O726   Zn740   1.927   .     S
O727   Zn739   1.927   .     S
O728   Zn737   1.914   .     S
O729   Zn737   1.934   .     S
O730   Zn740   1.930   .     S
O731   Zn738   1.940   .     S
O732   Zn739   1.953   .     S
O733   Zn740   1.947   .     S
O734   Zn737   1.933   .     S
O735   Zn738   1.938   .     S
O736   Zn739   1.937   .     S
C741   O805    1.267   .     A
C741   O807    1.268   .     A
C741   C747    1.434   .     S
C742   C756    1.385   .     A
C742   H776    1.080   .     S
C742   C768    1.400   .     A
C743   C758    1.517   .     S
C743   C755    1.421   .     A
C743   C756    1.412   .     A
C744   O806    1.285   .     A
C744   C746    1.469   .     S
C744   O808    1.269   .     A
C745   C767    1.425   .     A
C745   C754    1.486   .     S
C745   C757    1.425   .     A
C746   C821    1.365   .     S
C746   C839    1.520   .     S
C748   C751    1.463   .     S
C748   C971    1.346   .     S
C748   C982    1.519   .     S
C749   C750    1.434   .     S
C749   C1192   1.346   1_545 S
C749   F1216   1.361   1_545 S
C750   O809    1.277   .     A
C750   O803    1.279   .     A
C751   O810    1.269   .     A
C751   O804    1.272   .     A
C752   C757    1.398   .     A
C752   C97     1.385   1_556 S
C752   F109    1.359   1_556 S
C753   O799    1.280   .     A
C753   C756    1.459   .     S
C753   O801    1.273   .     A
C754   O802    1.296   .     A
C754   O800    1.282   .     A
C757   C762    1.514   .     S
C758   H787    1.108   .     S
C758   H792    1.111   .     S
C758   H791    1.110   .     S
C759   H794    1.109   .     S
C759   H795    1.111   .     S
C759   C821    1.516   .     S
C759   H867    1.112   .     S
C760   H777    1.111   .     S
C760   H797    1.111   .     S
C760   C1192   1.519   1_545 S
C760   H1240   1.109   1_545 S
C761   H780    1.106   .     S
C761   H778    1.111   .     S
C761   H779    1.108   .     S
C761   C89     1.518   1_556 S
C762   H783    1.110   .     S
C762   H782    1.110   .     S
C762   H781    1.109   .     S
C763   F774    1.357   .     S
C764   H786    1.109   .     S
C764   H785    1.109   .     S
C764   H784    1.111   .     S
C764   C771    1.515   .     S
C765   H789    1.111   .     S
C765   H790    1.111   .     S
C765   H788    1.109   .     S
C766   C767    1.421   .     A
C766   C97     1.418   1_556 S
C766   C102    1.422   1_556 S
C767   C771    1.422   .     A
C769   C770    1.411   .     A
C769   C89     1.426   1_556 S
C769   C102    1.419   1_556 S
C770   F773    1.359   .     S
C770   C771    1.399   .     A
F772   C971    1.361   .     S
H796   C982    1.109   .     S
O798   Zn812   1.951   .     S
O798   Zn811   1.961   .     S
O798   Zn814   1.937   .     S
O798   Zn813   1.923   .     S
O799   Zn812   1.912   .     S
O800   Zn814   1.927   .     S
O801   Zn813   1.927   .     S
O802   Zn811   1.914   .     S
O803   Zn811   1.934   .     S
O804   Zn814   1.930   .     S
O805   Zn812   1.940   .     S
O806   Zn813   1.953   .     S
O807   Zn814   1.947   .     S
O808   Zn811   1.933   .     S
O809   Zn812   1.938   .     S
O810   Zn813   1.937   .     S
C815   O879    1.267   .     A
C815   O881    1.268   .     A
C815   C821    1.434   .     S
C816   C830    1.385   .     A
C816   H850    1.080   .     S
C816   C842    1.400   .     A
C817   C832    1.517   .     S
C817   C829    1.421   .     A
C817   C830    1.412   .     A
C818   O880    1.285   .     A
C818   C820    1.469   .     S
C818   O882    1.269   .     A
C819   C841    1.425   .     A
C819   C828    1.486   .     S
C819   C831    1.425   .     A
C820   C673    1.365   1_655 S
C820   C691    1.520   1_655 S
C822   C825    1.463   .     S
C822   C1045   1.346   .     S
C822   C1056   1.519   .     S
C823   C824    1.434   .     S
C823   C1266   1.346   1_545 S
C823   F1290   1.361   1_545 S
C824   O883    1.277   .     A
C824   O877    1.279   .     A
C825   O884    1.269   .     A
C825   O878    1.272   .     A
C826   C831    1.398   .     A
C826   C171    1.385   1_556 S
C826   F183    1.359   1_556 S
C827   O873    1.280   .     A
C827   C830    1.459   .     S
C827   O875    1.273   .     A
C828   O876    1.296   .     A
C828   O874    1.282   .     A
C831   C836    1.514   .     S
C832   H861    1.108   .     S
C832   H866    1.111   .     S
C832   H865    1.110   .     S
C833   H868    1.109   .     S
C833   H869    1.111   .     S
C833   C673    1.516   1_655 S
C833   H719    1.112   1_655 S
C834   H851    1.111   .     S
C834   H871    1.111   .     S
C834   C1266   1.519   1_545 S
C834   H1314   1.109   1_545 S
C835   H854    1.106   .     S
C835   H852    1.111   .     S
C835   H853    1.108   .     S
C835   C163    1.518   1_556 S
C836   H857    1.110   .     S
C836   H856    1.110   .     S
C836   H855    1.109   .     S
C837   F848    1.357   .     S
C838   H860    1.109   .     S
C838   H859    1.109   .     S
C838   H858    1.111   .     S
C838   C845    1.515   .     S
C839   H863    1.111   .     S
C839   H864    1.111   .     S
C839   H862    1.109   .     S
C840   C841    1.421   .     A
C840   C171    1.418   1_556 S
C840   C176    1.422   1_556 S
C841   C845    1.422   .     A
C843   C844    1.411   .     A
C843   C163    1.426   1_556 S
C843   C176    1.419   1_556 S
C844   F847    1.359   .     S
C844   C845    1.399   .     A
F846   C1045   1.361   .     S
H870   C1056   1.109   .     S
O872   Zn886   1.951   .     S
O872   Zn885   1.961   .     S
O872   Zn888   1.937   .     S
O872   Zn887   1.923   .     S
O873   Zn886   1.912   .     S
O874   Zn888   1.927   .     S
O875   Zn887   1.927   .     S
O876   Zn885   1.914   .     S
O877   Zn885   1.934   .     S
O878   Zn888   1.930   .     S
O879   Zn886   1.940   .     S
O880   Zn887   1.953   .     S
O881   Zn888   1.947   .     S
O882   Zn885   1.933   .     S
O883   Zn886   1.938   .     S
O884   Zn887   1.937   .     S
C889   O953    1.267   .     A
C889   O955    1.268   .     A
C889   C895    1.434   .     S
C890   C904    1.385   .     A
C890   H924    1.080   .     S
C890   C916    1.400   .     A
C891   C906    1.517   .     S
C891   C903    1.421   .     A
C891   C904    1.412   .     A
C892   O954    1.285   .     A
C892   C894    1.469   .     S
C892   O956    1.269   .     A
C893   C915    1.425   .     A
C893   C902    1.486   .     S
C893   C905    1.425   .     A
C894   C969    1.365   .     S
C894   C987    1.520   .     S
C895   C1042   1.365   1_455 S
C895   C1055   1.516   1_455 S
C896   C899    1.463   .     S
C896   C1119   1.346   .     S
C896   C1130   1.519   .     S
C897   C898    1.434   .     S
C898   O957    1.277   .     A
C898   O951    1.279   .     A
C899   O958    1.269   .     A
C899   O952    1.272   .     A
C900   C905    1.398   .     A
C900   C245    1.385   1_556 S
C900   F257    1.359   1_556 S
C901   O947    1.280   .     A
C901   C904    1.459   .     S
C901   O949    1.273   .     A
C902   O950    1.296   .     A
C902   O948    1.282   .     A
C905   C910    1.514   .     S
C906   H935    1.108   .     S
C906   H940    1.111   .     S
C906   H939    1.110   .     S
C907   H942    1.109   .     S
C907   H943    1.111   .     S
C907   C969    1.516   .     S
C907   H1015   1.112   .     S
C908   H925    1.111   .     S
C908   H945    1.111   .     S
C909   H928    1.106   .     S
C909   H926    1.111   .     S
C909   H927    1.108   .     S
C909   C237    1.518   1_556 S
C910   H931    1.110   .     S
C910   H930    1.110   .     S
C910   H929    1.109   .     S
C911   F922    1.357   .     S
C912   H934    1.109   .     S
C912   H933    1.109   .     S
C912   H932    1.111   .     S
C912   C919    1.515   .     S
C913   H937    1.111   .     S
C913   H938    1.111   .     S
C913   H936    1.109   .     S
C913   C1042   1.520   1_455 S
C914   C915    1.421   .     A
C914   C245    1.418   1_556 S
C914   C250    1.422   1_556 S
C915   C919    1.422   .     A
C917   C918    1.411   .     A
C917   C237    1.426   1_556 S
C917   C250    1.419   1_556 S
C918   F921    1.359   .     S
C918   C919    1.399   .     A
F920   C1119   1.361   .     S
H941   C1055   1.112   1_455 S
H944   C1130   1.109   .     S
O946   Zn960   1.951   .     S
O946   Zn959   1.961   .     S
O946   Zn962   1.937   .     S
O946   Zn961   1.923   .     S
O947   Zn960   1.912   .     S
O948   Zn962   1.927   .     S
O949   Zn961   1.927   .     S
O950   Zn959   1.914   .     S
O951   Zn959   1.934   .     S
O952   Zn962   1.930   .     S
O953   Zn960   1.940   .     S
O954   Zn961   1.953   .     S
O955   Zn962   1.947   .     S
O956   Zn959   1.933   .     S
O957   Zn960   1.938   .     S
O958   Zn961   1.937   .     S
C963   O1027   1.267   .     A
C963   O1029   1.268   .     A
C963   C969    1.434   .     S
C964   C978    1.385   .     A
C964   H998    1.080   .     S
C964   C990    1.400   .     A
C965   C980    1.517   .     S
C965   C977    1.421   .     A
C965   C978    1.412   .     A
C966   O1028   1.285   .     A
C966   C968    1.469   .     S
C966   O1030   1.269   .     A
C967   C989    1.425   .     A
C967   C976    1.486   .     S
C967   C979    1.425   .     A
C968   C1043   1.365   .     S
C968   C1061   1.520   .     S
C970   C973    1.463   .     S
C970   C1193   1.346   .     S
C970   C1204   1.519   .     S
C971   C972    1.434   .     S
C972   O1031   1.277   .     A
C972   O1025   1.279   .     A
C973   O1032   1.269   .     A
C973   O1026   1.272   .     A
C974   C979    1.398   .     A
C974   C319    1.385   1_556 S
C974   F331    1.359   1_556 S
C975   O1021   1.280   .     A
C975   C978    1.459   .     S
C975   O1023   1.273   .     A
C976   O1024   1.296   .     A
C976   O1022   1.282   .     A
C979   C984    1.514   .     S
C980   H1009   1.108   .     S
C980   H1014   1.111   .     S
C980   H1013   1.110   .     S
C981   H1016   1.109   .     S
C981   H1017   1.111   .     S
C981   C1043   1.516   .     S
C981   H1089   1.112   .     S
C982   H999    1.111   .     S
C982   H1019   1.111   .     S
C983   H1002   1.106   .     S
C983   H1000   1.111   .     S
C983   H1001   1.108   .     S
C983   C311    1.518   1_556 S
C984   H1005   1.110   .     S
C984   H1004   1.110   .     S
C984   H1003   1.109   .     S
C985   F996    1.357   .     S
C986   H1008   1.109   .     S
C986   H1007   1.109   .     S
C986   H1006   1.111   .     S
C986   C993    1.515   .     S
C987   H1011   1.111   .     S
C987   H1012   1.111   .     S
C987   H1010   1.109   .     S
C988   C989    1.421   .     A
C988   C319    1.418   1_556 S
C988   C324    1.422   1_556 S
C989   C993    1.422   .     A
C991   C992    1.411   .     A
C991   C311    1.426   1_556 S
C991   C324    1.419   1_556 S
C992   F995    1.359   .     S
C992   C993    1.399   .     A
F994   C1193   1.361   .     S
H1018  C1204   1.109   .     S
O1020  Zn1034  1.951   .     S
O1020  Zn1033  1.961   .     S
O1020  Zn1036  1.937   .     S
O1020  Zn1035  1.923   .     S
O1021  Zn1034  1.912   .     S
O1022  Zn1036  1.927   .     S
O1023  Zn1035  1.927   .     S
O1024  Zn1033  1.914   .     S
O1025  Zn1033  1.934   .     S
O1026  Zn1036  1.930   .     S
O1027  Zn1034  1.940   .     S
O1028  Zn1035  1.953   .     S
O1029  Zn1036  1.947   .     S
O1030  Zn1033  1.933   .     S
O1031  Zn1034  1.938   .     S
O1032  Zn1035  1.937   .     S
C1037  O1101   1.267   .     A
C1037  O1103   1.268   .     A
C1037  C1043   1.434   .     S
C1038  C1052   1.385   .     A
C1038  H1072   1.080   .     S
C1038  C1064   1.400   .     A
C1039  C1054   1.517   .     S
C1039  C1051   1.421   .     A
C1039  C1052   1.412   .     A
C1040  O1102   1.285   .     A
C1040  C1042   1.469   .     S
C1040  O1104   1.269   .     A
C1041  C1063   1.425   .     A
C1041  C1050   1.486   .     S
C1041  C1053   1.425   .     A
C1042  C895    1.365   1_655 S
C1042  C913    1.520   1_655 S
C1044  C1047   1.463   .     S
C1044  C1267   1.346   .     S
C1044  C1278   1.519   .     S
C1045  C1046   1.434   .     S
C1046  O1105   1.277   .     A
C1046  O1099   1.279   .     A
C1047  O1106   1.269   .     A
C1047  O1100   1.272   .     A
C1048  C1053   1.398   .     A
C1048  C393    1.385   1_556 S
C1048  F405    1.359   1_556 S
C1049  O1095   1.280   .     A
C1049  C1052   1.459   .     S
C1049  O1097   1.273   .     A
C1050  O1098   1.296   .     A
C1050  O1096   1.282   .     A
C1053  C1058   1.514   .     S
C1054  H1083   1.108   .     S
C1054  H1088   1.111   .     S
C1054  H1087   1.110   .     S
C1055  H1090   1.109   .     S
C1055  H1091   1.111   .     S
C1055  C895    1.516   1_655 S
C1055  H941    1.112   1_655 S
C1056  H1073   1.111   .     S
C1056  H1093   1.111   .     S
C1057  H1076   1.106   .     S
C1057  H1074   1.111   .     S
C1057  H1075   1.108   .     S
C1057  C385    1.518   1_556 S
C1058  H1079   1.110   .     S
C1058  H1078   1.110   .     S
C1058  H1077   1.109   .     S
C1059  F1070   1.357   .     S
C1060  H1082   1.109   .     S
C1060  H1081   1.109   .     S
C1060  H1080   1.111   .     S
C1060  C1067   1.515   .     S
C1061  H1085   1.111   .     S
C1061  H1086   1.111   .     S
C1061  H1084   1.109   .     S
C1062  C1063   1.421   .     A
C1062  C393    1.418   1_556 S
C1062  C398    1.422   1_556 S
C1063  C1067   1.422   .     A
C1065  C1066   1.411   .     A
C1065  C385    1.426   1_556 S
C1065  C398    1.419   1_556 S
C1066  F1069   1.359   .     S
C1066  C1067   1.399   .     A
F1068  C1267   1.361   .     S
H1092  C1278   1.109   .     S
O1094  Zn1108  1.951   .     S
O1094  Zn1107  1.961   .     S
O1094  Zn1110  1.937   .     S
O1094  Zn1109  1.923   .     S
O1095  Zn1108  1.912   .     S
O1096  Zn1110  1.927   .     S
O1097  Zn1109  1.927   .     S
O1098  Zn1107  1.914   .     S
O1099  Zn1107  1.934   .     S
O1100  Zn1110  1.930   .     S
O1101  Zn1108  1.940   .     S
O1102  Zn1109  1.953   .     S
O1103  Zn1110  1.947   .     S
O1104  Zn1107  1.933   .     S
O1105  Zn1108  1.938   .     S
O1106  Zn1109  1.937   .     S
C1111  O1175   1.267   .     A
C1111  O1177   1.268   .     A
C1111  C1117   1.434   .     S
C1112  C1126   1.385   .     A
C1112  H1146   1.080   .     S
C1112  C1138   1.400   .     A
C1113  C1128   1.517   .     S
C1113  C1125   1.421   .     A
C1113  C1126   1.412   .     A
C1114  O1176   1.285   .     A
C1114  C1116   1.469   .     S
C1114  O1178   1.269   .     A
C1115  C1137   1.425   .     A
C1115  C1124   1.486   .     S
C1115  C1127   1.425   .     A
C1116  C1191   1.365   .     S
C1116  C1209   1.520   .     S
C1117  C1264   1.365   1_455 S
C1117  C1277   1.516   1_455 S
C1118  C1121   1.463   .     S
C1118  C675    1.346   1_565 S
C1118  C686    1.519   1_565 S
C1119  C1120   1.434   .     S
C1120  O1179   1.277   .     A
C1120  O1173   1.279   .     A
C1121  O1180   1.269   .     A
C1121  O1174   1.272   .     A
C1122  C1127   1.398   .     A
C1122  C467    1.385   1_556 S
C1122  F479    1.359   1_556 S
C1123  O1169   1.280   .     A
C1123  C1126   1.459   .     S
C1123  O1171   1.273   .     A
C1124  O1172   1.296   .     A
C1124  O1170   1.282   .     A
C1127  C1132   1.514   .     S
C1128  H1157   1.108   .     S
C1128  H1162   1.111   .     S
C1128  H1161   1.110   .     S
C1129  H1164   1.109   .     S
C1129  H1165   1.111   .     S
C1129  C1191   1.516   .     S
C1129  H1237   1.112   .     S
C1130  H1147   1.111   .     S
C1130  H1167   1.111   .     S
C1131  H1150   1.106   .     S
C1131  H1148   1.111   .     S
C1131  H1149   1.108   .     S
C1131  C459    1.518   1_556 S
C1132  H1153   1.110   .     S
C1132  H1152   1.110   .     S
C1132  H1151   1.109   .     S
C1133  F1144   1.357   .     S
C1134  H1156   1.109   .     S
C1134  H1155   1.109   .     S
C1134  H1154   1.111   .     S
C1134  C1141   1.515   .     S
C1135  H1159   1.111   .     S
C1135  H1160   1.111   .     S
C1135  H1158   1.109   .     S
C1135  C1264   1.520   1_455 S
C1136  C1137   1.421   .     A
C1136  C467    1.418   1_556 S
C1136  C472    1.422   1_556 S
C1137  C1141   1.422   .     A
C1139  C1140   1.411   .     A
C1139  C459    1.426   1_556 S
C1139  C472    1.419   1_556 S
C1140  F1143   1.359   .     S
C1140  C1141   1.399   .     A
F1142  C675    1.361   1_565 S
H1163  C1277   1.112   1_455 S
H1166  C686    1.109   1_565 S
O1168  Zn1182  1.951   .     S
O1168  Zn1181  1.961   .     S
O1168  Zn1184  1.937   .     S
O1168  Zn1183  1.923   .     S
O1169  Zn1182  1.912   .     S
O1170  Zn1184  1.927   .     S
O1171  Zn1183  1.927   .     S
O1172  Zn1181  1.914   .     S
O1173  Zn1181  1.934   .     S
O1174  Zn1184  1.930   .     S
O1175  Zn1182  1.940   .     S
O1176  Zn1183  1.953   .     S
O1177  Zn1184  1.947   .     S
O1178  Zn1181  1.933   .     S
O1179  Zn1182  1.938   .     S
O1180  Zn1183  1.937   .     S
C1185  O1249   1.267   .     A
C1185  O1251   1.268   .     A
C1185  C1191   1.434   .     S
C1186  C1200   1.385   .     A
C1186  H1220   1.080   .     S
C1186  C1212   1.400   .     A
C1187  C1202   1.517   .     S
C1187  C1199   1.421   .     A
C1187  C1200   1.412   .     A
C1188  O1250   1.285   .     A
C1188  C1190   1.469   .     S
C1188  O1252   1.269   .     A
C1189  C1211   1.425   .     A
C1189  C1198   1.486   .     S
C1189  C1201   1.425   .     A
C1190  C1265   1.365   .     S
C1190  C1283   1.520   .     S
C1192  C1195   1.463   .     S
C1192  C749    1.346   1_565 S
C1192  C760    1.519   1_565 S
C1193  C1194   1.434   .     S
C1194  O1253   1.277   .     A
C1194  O1247   1.279   .     A
C1195  O1254   1.269   .     A
C1195  O1248   1.272   .     A
C1196  C1201   1.398   .     A
C1196  C541    1.385   1_556 S
C1196  F553    1.359   1_556 S
C1197  O1243   1.280   .     A
C1197  C1200   1.459   .     S
C1197  O1245   1.273   .     A
C1198  O1246   1.296   .     A
C1198  O1244   1.282   .     A
C1201  C1206   1.514   .     S
C1202  H1231   1.108   .     S
C1202  H1236   1.111   .     S
C1202  H1235   1.110   .     S
C1203  H1238   1.109   .     S
C1203  H1239   1.111   .     S
C1203  C1265   1.516   .     S
C1203  H1311   1.112   .     S
C1204  H1221   1.111   .     S
C1204  H1241   1.111   .     S
C1205  H1224   1.106   .     S
C1205  H1222   1.111   .     S
C1205  H1223   1.108   .     S
C1205  C533    1.518   1_556 S
C1206  H1227   1.110   .     S
C1206  H1226   1.110   .     S
C1206  H1225   1.109   .     S
C1207  F1218   1.357   .     S
C1208  H1230   1.109   .     S
C1208  H1229   1.109   .     S
C1208  H1228   1.111   .     S
C1208  C1215   1.515   .     S
C1209  H1233   1.111   .     S
C1209  H1234   1.111   .     S
C1209  H1232   1.109   .     S
C1210  C1211   1.421   .     A
C1210  C541    1.418   1_556 S
C1210  C546    1.422   1_556 S
C1211  C1215   1.422   .     A
C1213  C1214   1.411   .     A
C1213  C533    1.426   1_556 S
C1213  C546    1.419   1_556 S
C1214  F1217   1.359   .     S
C1214  C1215   1.399   .     A
F1216  C749    1.361   1_565 S
H1240  C760    1.109   1_565 S
O1242  Zn1256  1.951   .     S
O1242  Zn1255  1.961   .     S
O1242  Zn1258  1.937   .     S
O1242  Zn1257  1.923   .     S
O1243  Zn1256  1.912   .     S
O1244  Zn1258  1.927   .     S
O1245  Zn1257  1.927   .     S
O1246  Zn1255  1.914   .     S
O1247  Zn1255  1.934   .     S
O1248  Zn1258  1.930   .     S
O1249  Zn1256  1.940   .     S
O1250  Zn1257  1.953   .     S
O1251  Zn1258  1.947   .     S
O1252  Zn1255  1.933   .     S
O1253  Zn1256  1.938   .     S
O1254  Zn1257  1.937   .     S
C1259  O1323   1.267   .     A
C1259  O1325   1.268   .     A
C1259  C1265   1.434   .     S
C1260  C1274   1.385   .     A
C1260  H1294   1.080   .     S
C1260  C1286   1.400   .     A
C1261  C1276   1.517   .     S
C1261  C1273   1.421   .     A
C1261  C1274   1.412   .     A
C1262  O1324   1.285   .     A
C1262  C1264   1.469   .     S
C1262  O1326   1.269   .     A
C1263  C1285   1.425   .     A
C1263  C1272   1.486   .     S
C1263  C1275   1.425   .     A
C1264  C1117   1.365   1_655 S
C1264  C1135   1.520   1_655 S
C1266  C1269   1.463   .     S
C1266  C823    1.346   1_565 S
C1266  C834    1.519   1_565 S
C1267  C1268   1.434   .     S
C1268  O1327   1.277   .     A
C1268  O1321   1.279   .     A
C1269  O1328   1.269   .     A
C1269  O1322   1.272   .     A
C1270  C1275   1.398   .     A
C1270  C615    1.385   1_556 S
C1270  F627    1.359   1_556 S
C1271  O1317   1.280   .     A
C1271  C1274   1.459   .     S
C1271  O1319   1.273   .     A
C1272  O1320   1.296   .     A
C1272  O1318   1.282   .     A
C1275  C1280   1.514   .     S
C1276  H1305   1.108   .     S
C1276  H1310   1.111   .     S
C1276  H1309   1.110   .     S
C1277  H1312   1.109   .     S
C1277  H1313   1.111   .     S
C1277  C1117   1.516   1_655 S
C1277  H1163   1.112   1_655 S
C1278  H1295   1.111   .     S
C1278  H1315   1.111   .     S
C1279  H1298   1.106   .     S
C1279  H1296   1.111   .     S
C1279  H1297   1.108   .     S
C1279  C607    1.518   1_556 S
C1280  H1301   1.110   .     S
C1280  H1300   1.110   .     S
C1280  H1299   1.109   .     S
C1281  F1292   1.357   .     S
C1282  H1304   1.109   .     S
C1282  H1303   1.109   .     S
C1282  H1302   1.111   .     S
C1282  C1289   1.515   .     S
C1283  H1307   1.111   .     S
C1283  H1308   1.111   .     S
C1283  H1306   1.109   .     S
C1284  C1285   1.421   .     A
C1284  C615    1.418   1_556 S
C1284  C620    1.422   1_556 S
C1285  C1289   1.422   .     A
C1287  C1288   1.411   .     A
C1287  C607    1.426   1_556 S
C1287  C620    1.419   1_556 S
C1288  F1291   1.359   .     S
C1288  C1289   1.399   .     A
F1290  C823    1.361   1_565 S
H1314  C834    1.109   1_565 S
O1316  Zn1330  1.951   .     S
O1316  Zn1329  1.961   .     S
O1316  Zn1332  1.937   .     S
O1316  Zn1331  1.923   .     S
O1317  Zn1330  1.912   .     S
O1318  Zn1332  1.927   .     S
O1319  Zn1331  1.927   .     S
O1320  Zn1329  1.914   .     S
O1321  Zn1329  1.934   .     S
O1322  Zn1332  1.930   .     S
O1323  Zn1330  1.940   .     S
O1324  Zn1331  1.953   .     S
O1325  Zn1332  1.947   .     S
O1326  Zn1329  1.933   .     S
O1327  Zn1330  1.938   .     S
O1328  Zn1331  1.937   .     S
