data_str_m1_o1_o2_pcu_sym.106
_audit_creation_date              2020-01-03
_audit_creation_method            'Materials Studio'
_symmetry_space_group_name_H-M    'P1'
_symmetry_Int_Tables_number       1
_symmetry_cell_setting            triclinic
loop_
_symmetry_equiv_pos_as_xyz
  x,y,z
_cell_length_a                    36.7330
_cell_length_b                    36.7330
_cell_length_c                    34.4899
_cell_angle_alpha                 90.0000
_cell_angle_beta                  89.9999
_cell_angle_gamma                 90.0000
loop_
_atom_site_label
_atom_site_type_symbol
_atom_site_fract_x
_atom_site_fract_y
_atom_site_fract_z
_atom_site_U_iso_or_equiv
_atom_site_adp_type
_atom_site_occupancy
C1     C     0.21880   0.48915   0.04183   0.00000  Uiso   1.00
C2     C     0.03115   0.23903   0.45819   0.00000  Uiso   1.00
C3     C     0.34831   0.40169   0.75000   0.00000  Uiso   1.00
C4     C     0.40207   0.15206   0.25000   0.00000  Uiso   1.00
C5     C     0.09800   0.34800   0.75000   0.00000  Uiso   1.00
C6     C     0.34824   0.40176   0.25000   0.00000  Uiso   1.00
C7     C     0.15169   0.09831   0.75000   0.00000  Uiso   1.00
C8     C     0.09794   0.15207   0.75000   0.00000  Uiso   1.00
C9     C     0.40200   0.34800   0.25000   0.00000  Uiso   1.00
C10    C     0.15176   0.40176   0.75000   0.00000  Uiso   1.00
C11    C     0.34831   0.09831   0.25000   0.00000  Uiso   1.00
C12    C     0.40206   0.34793   0.75000   0.00000  Uiso   1.00
C13    C     0.26085   0.46880   0.54183   0.00000  Uiso   1.00
C14    C     0.09800   0.15200   0.25000   0.00000  Uiso   1.00
C15    C     0.34824   0.09824   0.75000   0.00000  Uiso   1.00
C16    C     0.15169   0.40169   0.25000   0.00000  Uiso   1.00
C17    C     0.25000   0.00000   0.10249   0.00000  Uiso   1.00
C18    C     0.25000  -0.00000   0.89752   0.00000  Uiso   1.00
C19    C     0.00000   0.25000   0.10248   0.00000  Uiso   1.00
C20    C     0.00000   0.25000   0.89752   0.00000  Uiso   1.00
C21    C     0.00000   0.25000   0.60248   0.00000  Uiso   1.00
C22    C     0.00000   0.25000   0.39752   0.00000  Uiso   1.00
C23    C     0.25000   0.00000   0.60249   0.00000  Uiso   1.00
C24    C     0.26085   0.03120   0.45817   0.00000  Uiso   1.00
C25    C     0.25000   0.00000   0.39752   0.00000  Uiso   1.00
C26    C     0.11251   0.44666   0.18242   0.00000  Uiso   1.00
C27    C     0.07728   0.43891   0.16013   0.00000  Uiso   1.00
C28    C     0.05523   0.47364   0.15392   0.00000  Uiso   1.00
C29    C     0.37860   0.06289   0.82778   0.00000  Uiso   1.00
C30    C     0.41054   0.07534   0.85312   0.00000  Uiso   1.00
C31    C     0.40184   0.07106   0.89614   0.00000  Uiso   1.00
C32    C     0.03642   0.09054   0.25002   0.00000  Uiso   1.00
C33    C     0.49858   0.08125   0.23457   0.00000  Uiso   1.00
C34    C     0.47580   0.06125   0.26480   0.00000  Uiso   1.00
C35    C     0.03115   0.26097   0.54181   0.00000  Uiso   1.00
C36    C     0.39440   0.32644   0.83572   0.00000  Uiso   1.00
C37    C     0.36189   0.33697   0.86120   0.00000  Uiso   1.00
C38    C     0.34759   0.30428   0.88385   0.00000  Uiso   1.00
C39    C     0.38749   0.05335   0.18241   0.00000  Uiso   1.00
C40    C     0.42272   0.06111   0.16013   0.00000  Uiso   1.00
C41    C     0.44476   0.02638   0.15390   0.00000  Uiso   1.00
C42    C     0.12140   0.43711   0.82778   0.00000  Uiso   1.00
C43    C     0.08946   0.42466   0.85312   0.00000  Uiso   1.00
C44    C     0.09816   0.42894   0.89614   0.00000  Uiso   1.00
C45    C     0.46358   0.40945   0.25003   0.00000  Uiso   1.00
C46    C     0.46885   0.26097   0.45819   0.00000  Uiso   1.00
C47    C     0.00142   0.41875   0.23458   0.00000  Uiso   1.00
C48    C     0.02422   0.43871   0.26482   0.00000  Uiso   1.00
C49    C     0.10561   0.17357   0.83572   0.00000  Uiso   1.00
C50    C     0.13810   0.16302   0.86122   0.00000  Uiso   1.00
C51    C     0.15240   0.19572   0.88387   0.00000  Uiso   1.00
C52    C     0.11251   0.05334   0.81759   0.00000  Uiso   1.00
C53    C     0.07728   0.06110   0.83987   0.00000  Uiso   1.00
C54    C     0.05524   0.02637   0.84610   0.00000  Uiso   1.00
C55    C     0.37860   0.43711   0.17222   0.00000  Uiso   1.00
C56    C     0.41054   0.42466   0.14689   0.00000  Uiso   1.00
C57    C     0.23915   0.03120   0.54183   0.00000  Uiso   1.00
C58    C     0.40184   0.42894   0.10386   0.00000  Uiso   1.00
C59    C     0.03642   0.40947   0.74998   0.00000  Uiso   1.00
C60    C     0.49858   0.41874   0.76542   0.00000  Uiso   1.00
C61    C     0.47580   0.43874   0.73520   0.00000  Uiso   1.00
C62    C     0.39439   0.17357   0.16429   0.00000  Uiso   1.00
C63    C     0.36190   0.16303   0.13878   0.00000  Uiso   1.00
C64    C     0.34759   0.19572   0.11614   0.00000  Uiso   1.00
C65    C     0.38749   0.44666   0.81759   0.00000  Uiso   1.00
C66    C     0.42272   0.43890   0.83987   0.00000  Uiso   1.00
C67    C     0.44476   0.47363   0.84610   0.00000  Uiso   1.00
C68    C     0.23915   0.46880   0.45817   0.00000  Uiso   1.00
C69    C     0.12141   0.06289   0.17221   0.00000  Uiso   1.00
C70    C     0.08947   0.07537   0.14688   0.00000  Uiso   1.00
C71    C     0.09817   0.07109   0.10385   0.00000  Uiso   1.00
C72    C     0.46358   0.09054   0.74998   0.00000  Uiso   1.00
C73    C     0.00142   0.08125   0.76543   0.00000  Uiso   1.00
C74    C     0.02420   0.06126   0.73520   0.00000  Uiso   1.00
C75    C     0.10560   0.32645   0.16428   0.00000  Uiso   1.00
C76    C     0.13809   0.33699   0.13878   0.00000  Uiso   1.00
C77    C     0.15239   0.30430   0.11612   0.00000  Uiso   1.00
C78    C     0.34055   0.21358   0.75003   0.00000  Uiso   1.00
C79    C     0.21871   0.48944   0.08213   0.00000  Uiso   1.00
C80    C     0.33123   0.25141   0.73456   0.00000  Uiso   1.00
C81    C     0.31126   0.27420   0.76480   0.00000  Uiso   1.00
C82    C     0.07645   0.35559   0.33572   0.00000  Uiso   1.00
C83    C     0.08699   0.38808   0.36122   0.00000  Uiso   1.00
C84    C     0.05430   0.40238   0.38388   0.00000  Uiso   1.00
C85    C     0.30334   0.36251   0.68241   0.00000  Uiso   1.00
C86    C     0.31110   0.32728   0.66013   0.00000  Uiso   1.00
C87    C     0.27637   0.30524   0.65390   0.00000  Uiso   1.00
C88    C     0.18711   0.12860   0.32778   0.00000  Uiso   1.00
C89    C     0.17466   0.16054   0.35311   0.00000  Uiso   1.00
C90    C     0.28129   0.48944   0.91787   0.00000  Uiso   1.00
C91    C     0.17894   0.15184   0.39614   0.00000  Uiso   1.00
C92    C     0.15946   0.28642   0.75003   0.00000  Uiso   1.00
C93    C     0.16875   0.24858   0.73457   0.00000  Uiso   1.00
C94    C     0.18875   0.22580   0.76480   0.00000  Uiso   1.00
C95    C     0.42357   0.14439   0.33572   0.00000  Uiso   1.00
C96    C     0.41303   0.11190   0.36122   0.00000  Uiso   1.00
C97    C     0.44572   0.09759   0.38386   0.00000  Uiso   1.00
C98    C     0.19666   0.13749   0.68241   0.00000  Uiso   1.00
C99    C     0.18890   0.17272   0.66013   0.00000  Uiso   1.00
C100   C     0.22363   0.19476   0.65390   0.00000  Uiso   1.00
C101   C     0.01070   0.21876   0.08212   0.00000  Uiso   1.00
C102   C     0.31289   0.37141   0.32778   0.00000  Uiso   1.00
C103   C     0.32535   0.33946   0.35312   0.00000  Uiso   1.00
C104   C     0.32107   0.34816   0.39615   0.00000  Uiso   1.00
C105   C     0.34054   0.28642   0.24998   0.00000  Uiso   1.00
C106   C     0.33125   0.24858   0.26543   0.00000  Uiso   1.00
C107   C     0.31125   0.22580   0.23520   0.00000  Uiso   1.00
C108   C     0.07644   0.14439   0.66428   0.00000  Uiso   1.00
C109   C     0.08698   0.11190   0.63878   0.00000  Uiso   1.00
C110   C     0.05428   0.09759   0.61614   0.00000  Uiso   1.00
C111   C     0.30335   0.13749   0.31759   0.00000  Uiso   1.00
C112   C     0.28120   0.48915   0.95817   0.00000  Uiso   1.00
C113   C     0.01070   0.28124   0.91788   0.00000  Uiso   1.00
C114   C     0.31110   0.17272   0.33987   0.00000  Uiso   1.00
C115   C     0.27638   0.19476   0.34611   0.00000  Uiso   1.00
C116   C     0.18711   0.37140   0.67222   0.00000  Uiso   1.00
C117   C     0.17466   0.33946   0.64689   0.00000  Uiso   1.00
C118   C     0.17894   0.34816   0.60386   0.00000  Uiso   1.00
C119   C     0.15946   0.21358   0.24997   0.00000  Uiso   1.00
C120   C     0.16874   0.25142   0.26542   0.00000  Uiso   1.00
C121   C     0.18873   0.27421   0.23519   0.00000  Uiso   1.00
C122   C     0.42356   0.35561   0.66428   0.00000  Uiso   1.00
C123   C     0.41302   0.38809   0.63877   0.00000  Uiso   1.00
C124   C     0.28129   0.01056   0.08213   0.00000  Uiso   1.00
C125   C     0.44571   0.40240   0.61612   0.00000  Uiso   1.00
C126   C     0.19666   0.36250   0.31758   0.00000  Uiso   1.00
C127   C     0.18891   0.32727   0.33985   0.00000  Uiso   1.00
C128   C     0.22364   0.30523   0.34608   0.00000  Uiso   1.00
C129   C     0.31289   0.12860   0.67222   0.00000  Uiso   1.00
C130   C     0.32534   0.16054   0.64689   0.00000  Uiso   1.00
C131   C     0.32106   0.15184   0.60386   0.00000  Uiso   1.00
C132   C     0.21871   0.01056   0.91787   0.00000  Uiso   1.00
C133   C     0.48930   0.28124   0.08212   0.00000  Uiso   1.00
C134   C     0.48930   0.21876   0.91788   0.00000  Uiso   1.00
C135   C     0.46876   0.23930   0.58212   0.00000  Uiso   1.00
C136   C     0.03124   0.23930   0.41788   0.00000  Uiso   1.00
C137   C     0.26056   0.46871   0.58213   0.00000  Uiso   1.00
C138   C     0.26056   0.03129   0.41787   0.00000  Uiso   1.00
C139   C     0.03124   0.26070   0.58212   0.00000  Uiso   1.00
C140   C     0.01097   0.21885   0.04181   0.00000  Uiso   1.00
C141   C     0.46876   0.26070   0.41788   0.00000  Uiso   1.00
C142   C     0.23944   0.03129   0.58213   0.00000  Uiso   1.00
C143   C     0.23944   0.46871   0.41787   0.00000  Uiso   1.00
C144   C     0.25000  -0.00000   0.02133   0.00000  Uiso   1.00
C145   C     0.25000  -0.00000   0.97867   0.00000  Uiso   1.00
C146   C     0.00000   0.25000   0.02132   0.00000  Uiso   1.00
C147   C     0.00000   0.25000   0.97868   0.00000  Uiso   1.00
C148   C     0.00000   0.25000   0.52132   0.00000  Uiso   1.00
C149   C     0.00000   0.25000   0.47868   0.00000  Uiso   1.00
C150   C     0.25000   0.00000   0.52133   0.00000  Uiso   1.00
C151   C     0.01097   0.28115   0.95819   0.00000  Uiso   1.00
C152   C     0.25000  -0.00000   0.47867   0.00000  Uiso   1.00
C153   C     0.25000   0.00000   0.35518   0.00000  Uiso   1.00
C154   C     0.25000   0.00000   0.64482   0.00000  Uiso   1.00
C155   C     0.00000   0.25000   0.35518   0.00000  Uiso   1.00
C156   C     0.00000   0.25000   0.64482   0.00000  Uiso   1.00
C157   C     0.00000   0.25000   0.85518   0.00000  Uiso   1.00
C158   C     0.00000   0.25000   0.14482   0.00000  Uiso   1.00
C159   C     0.25000  -0.00000   0.85518   0.00000  Uiso   1.00
C160   C     0.25000   0.00000   0.14482   0.00000  Uiso   1.00
C161   C     0.17991   0.07009   0.25000   0.00000  Uiso   1.00
C162   C     0.28120   0.01085   0.04183   0.00000  Uiso   1.00
C163   C     0.32012   0.42988   0.75000   0.00000  Uiso   1.00
C164   C     0.43003   0.18003   0.25000   0.00000  Uiso   1.00
C165   C     0.07000   0.32001   0.75000   0.00000  Uiso   1.00
C166   C     0.32009   0.42991   0.25000   0.00000  Uiso   1.00
C167   C     0.17988   0.07012   0.75000   0.00000  Uiso   1.00
C168   C     0.06997   0.31997   0.25000   0.00000  Uiso   1.00
C169   C     0.43000   0.17999   0.75000   0.00000  Uiso   1.00
C170   C     0.17991   0.42991   0.75000   0.00000  Uiso   1.00
C171   C     0.32012   0.07012   0.25000   0.00000  Uiso   1.00
C172   C     0.43003   0.31997   0.75000   0.00000  Uiso   1.00
C173   C     0.21880   0.01085   0.95817   0.00000  Uiso   1.00
C174   C     0.07000   0.18000   0.25000   0.00000  Uiso   1.00
C175   C     0.32009   0.07009   0.75000   0.00000  Uiso   1.00
C176   C     0.17988   0.42988   0.25000   0.00000  Uiso   1.00
C177   C     0.06997   0.18003   0.75000   0.00000  Uiso   1.00
C178   C     0.43000   0.32000   0.25000   0.00000  Uiso   1.00
C179   C     0.13023   0.39588   0.21646   0.00000  Uiso   1.00
C180   C     0.38182   0.09197   0.76900   0.00000  Uiso   1.00
C181   C     0.09030   0.11735   0.23470   0.00000  Uiso   1.00
C182   C     0.39375   0.36650   0.78456   0.00000  Uiso   1.00
C183   C     0.36976   0.10413   0.21646   0.00000  Uiso   1.00
C184   C     0.48903   0.28115   0.04181   0.00000  Uiso   1.00
C185   C     0.11818   0.40803   0.76900   0.00000  Uiso   1.00
C186   C     0.40970   0.38265   0.23470   0.00000  Uiso   1.00
C187   C     0.10625   0.13350   0.78456   0.00000  Uiso   1.00
C188   C     0.13024   0.10412   0.78354   0.00000  Uiso   1.00
C189   C     0.38182   0.40803   0.23100   0.00000  Uiso   1.00
C190   C     0.09030   0.38265   0.76530   0.00000  Uiso   1.00
C191   C     0.39375   0.13350   0.21544   0.00000  Uiso   1.00
C192   C     0.36976   0.39588   0.78354   0.00000  Uiso   1.00
C193   C     0.11818   0.09197   0.23100   0.00000  Uiso   1.00
C194   C     0.40970   0.11735   0.76530   0.00000  Uiso   1.00
C195   C     0.48903   0.21885   0.95819   0.00000  Uiso   1.00
C196   C     0.10625   0.36650   0.21544   0.00000  Uiso   1.00
C197   C     0.36735   0.15970   0.73470   0.00000  Uiso   1.00
C198   C     0.11650   0.35625   0.28456   0.00000  Uiso   1.00
C199   C     0.35412   0.38024   0.71646   0.00000  Uiso   1.00
C200   C     0.15804   0.13182   0.26900   0.00000  Uiso   1.00
C201   C     0.13265   0.34030   0.73470   0.00000  Uiso   1.00
C202   C     0.38350   0.14375   0.28456   0.00000  Uiso   1.00
C203   C     0.14588   0.11976   0.71646   0.00000  Uiso   1.00
C204   C     0.34197   0.36818   0.26900   0.00000  Uiso   1.00
C205   C     0.36735   0.34030   0.26530   0.00000  Uiso   1.00
C206   C     0.46885   0.23903   0.54181   0.00000  Uiso   1.00
C207   C     0.11650   0.14375   0.71544   0.00000  Uiso   1.00
C208   C     0.35413   0.11976   0.28354   0.00000  Uiso   1.00
C209   C     0.15803   0.36818   0.73100   0.00000  Uiso   1.00
C210   C     0.13266   0.15970   0.26530   0.00000  Uiso   1.00
C211   C     0.38350   0.35625   0.71544   0.00000  Uiso   1.00
C212   C     0.14588   0.38023   0.28354   0.00000  Uiso   1.00
C213   C     0.34197   0.13182   0.73100   0.00000  Uiso   1.00
C214   C     0.09794   0.34794   0.25000   0.00000  Uiso   1.00
C215   C     0.40200   0.15200   0.75000   0.00000  Uiso   1.00
C216   C     0.15176   0.09824   0.25000   0.00000  Uiso   1.00
H217   H     0.19462   0.48002   0.02675   0.00000  Uiso   1.00
H218   H     0.05530   0.22983   0.47328   0.00000  Uiso   1.00
H219   H     0.37763   0.41236   0.09608   0.00000  Uiso   1.00
H220   H     0.42537   0.41951   0.08632   0.00000  Uiso   1.00
H221   H     0.39641   0.45794   0.09677   0.00000  Uiso   1.00
H222   H     0.03341   0.39179   0.72389   0.00000  Uiso   1.00
H223   H     0.05038   0.43526   0.74165   0.00000  Uiso   1.00
H224   H     0.48435   0.39323   0.77381   0.00000  Uiso   1.00
H225   H     0.00131   0.43618   0.79160   0.00000  Uiso   1.00
H226   H     0.48879   0.46507   0.72750   0.00000  Uiso   1.00
H227   H     0.44827   0.44425   0.74708   0.00000  Uiso   1.00
H228   H     0.47285   0.42188   0.70869   0.00000  Uiso   1.00
H229   H     0.26998   0.44462   0.52675   0.00000  Uiso   1.00
H230   H     0.41526   0.18695   0.14582   0.00000  Uiso   1.00
H231   H     0.38598   0.19420   0.18625   0.00000  Uiso   1.00
H232   H     0.37029   0.14145   0.11803   0.00000  Uiso   1.00
H233   H     0.33961   0.15220   0.15725   0.00000  Uiso   1.00
H234   H     0.33883   0.21760   0.13631   0.00000  Uiso   1.00
H235   H     0.32384   0.18731   0.09835   0.00000  Uiso   1.00
H236   H     0.36903   0.20648   0.09652   0.00000  Uiso   1.00
H237   H     0.37264   0.46875   0.83284   0.00000  Uiso   1.00
H238   H     0.39396   0.45732   0.78806   0.00000  Uiso   1.00
H239   H     0.41613   0.42663   0.86848   0.00000  Uiso   1.00
H240   H     0.26998   0.05538   0.47325   0.00000  Uiso   1.00
H241   H     0.43970   0.41947   0.82325   0.00000  Uiso   1.00
H242   H     0.45095   0.48684   0.81787   0.00000  Uiso   1.00
H243   H     0.47083   0.46691   0.86075   0.00000  Uiso   1.00
H244   H     0.42935   0.49287   0.86468   0.00000  Uiso   1.00
H245   H     0.13011   0.03545   0.16240   0.00000  Uiso   1.00
H246   H     0.14533   0.08120   0.16768   0.00000  Uiso   1.00
H247   H     0.06481   0.05914   0.15398   0.00000  Uiso   1.00
H248   H     0.08359   0.10452   0.15261   0.00000  Uiso   1.00
H249   H     0.12239   0.08765   0.09608   0.00000  Uiso   1.00
H250   H     0.07464   0.08054   0.08632   0.00000  Uiso   1.00
H251   H     0.05530   0.27018   0.52672   0.00000  Uiso   1.00
H252   H     0.10357   0.04209   0.09677   0.00000  Uiso   1.00
H253   H     0.46660   0.10824   0.72390   0.00000  Uiso   1.00
H254   H     0.44962   0.06475   0.74163   0.00000  Uiso   1.00
H255   H     0.01565   0.10674   0.77384   0.00000  Uiso   1.00
H256   H     0.49867   0.06379   0.79159   0.00000  Uiso   1.00
H257   H     0.01120   0.03494   0.72747   0.00000  Uiso   1.00
H258   H     0.05172   0.05572   0.74710   0.00000  Uiso   1.00
H259   H     0.02717   0.07814   0.70871   0.00000  Uiso   1.00
H260   H     0.08473   0.31306   0.14582   0.00000  Uiso   1.00
H261   H     0.11402   0.30581   0.18624   0.00000  Uiso   1.00
H262   H     0.44470   0.27017   0.47328   0.00000  Uiso   1.00
H263   H     0.12969   0.35857   0.11803   0.00000  Uiso   1.00
H264   H     0.16038   0.34782   0.15724   0.00000  Uiso   1.00
H265   H     0.16115   0.28242   0.13629   0.00000  Uiso   1.00
H266   H     0.17614   0.31272   0.09833   0.00000  Uiso   1.00
H267   H     0.13095   0.29355   0.09651   0.00000  Uiso   1.00
H268   H     0.35826   0.21662   0.77609   0.00000  Uiso   1.00
H269   H     0.31478   0.19962   0.75841   0.00000  Uiso   1.00
H270   H     0.35671   0.26565   0.72612   0.00000  Uiso   1.00
H271   H     0.31375   0.24864   0.70842   0.00000  Uiso   1.00
H272   H     0.28497   0.26118   0.77259   0.00000  Uiso   1.00
H273   H     0.23002   0.05538   0.52675   0.00000  Uiso   1.00
H274   H     0.30568   0.30170   0.75289   0.00000  Uiso   1.00
H275   H     0.32817   0.27721   0.79126   0.00000  Uiso   1.00
H276   H     0.06308   0.33471   0.35419   0.00000  Uiso   1.00
H277   H     0.05581   0.36399   0.31377   0.00000  Uiso   1.00
H278   H     0.10858   0.37969   0.38197   0.00000  Uiso   1.00
H279   H     0.09781   0.41037   0.34275   0.00000  Uiso   1.00
H280   H     0.03242   0.41114   0.36372   0.00000  Uiso   1.00
H281   H     0.06271   0.42612   0.40167   0.00000  Uiso   1.00
H282   H     0.04356   0.38093   0.40350   0.00000  Uiso   1.00
H283   H     0.28125   0.37736   0.66715   0.00000  Uiso   1.00
H284   H     0.23002   0.44462   0.47325   0.00000  Uiso   1.00
H285   H     0.29268   0.35604   0.71194   0.00000  Uiso   1.00
H286   H     0.32337   0.33387   0.63152   0.00000  Uiso   1.00
H287   H     0.33053   0.31030   0.67675   0.00000  Uiso   1.00
H288   H     0.26316   0.29905   0.68212   0.00000  Uiso   1.00
H289   H     0.28309   0.27917   0.63924   0.00000  Uiso   1.00
H290   H     0.25713   0.32065   0.63531   0.00000  Uiso   1.00
H291   H     0.21455   0.11989   0.33759   0.00000  Uiso   1.00
H292   H     0.16880   0.10469   0.33232   0.00000  Uiso   1.00
H293   H     0.19089   0.18519   0.34602   0.00000  Uiso   1.00
H294   H     0.14551   0.16643   0.34739   0.00000  Uiso   1.00
H295   H     0.19435   0.48090   0.09734   0.00000  Uiso   1.00
H296   H     0.16236   0.12763   0.40392   0.00000  Uiso   1.00
H297   H     0.16951   0.17537   0.41368   0.00000  Uiso   1.00
H298   H     0.20793   0.14642   0.40323   0.00000  Uiso   1.00
H299   H     0.14177   0.28340   0.77611   0.00000  Uiso   1.00
H300   H     0.18525   0.30038   0.75837   0.00000  Uiso   1.00
H301   H     0.14326   0.23435   0.72616   0.00000  Uiso   1.00
H302   H     0.18621   0.25133   0.70841   0.00000  Uiso   1.00
H303   H     0.21506   0.23880   0.77253   0.00000  Uiso   1.00
H304   H     0.19428   0.19828   0.75291   0.00000  Uiso   1.00
H305   H     0.17187   0.22283   0.79129   0.00000  Uiso   1.00
H306   H     0.30565   0.48090   0.90266   0.00000  Uiso   1.00
H307   H     0.43695   0.16526   0.35418   0.00000  Uiso   1.00
H308   H     0.44420   0.13597   0.31375   0.00000  Uiso   1.00
H309   H     0.39145   0.12029   0.38197   0.00000  Uiso   1.00
H310   H     0.40220   0.08961   0.34275   0.00000  Uiso   1.00
H311   H     0.46760   0.08883   0.36369   0.00000  Uiso   1.00
H312   H     0.43731   0.07385   0.40166   0.00000  Uiso   1.00
H313   H     0.45648   0.11903   0.40348   0.00000  Uiso   1.00
H314   H     0.21875   0.12264   0.66715   0.00000  Uiso   1.00
H315   H     0.20732   0.14396   0.71194   0.00000  Uiso   1.00
H316   H     0.17663   0.16613   0.63152   0.00000  Uiso   1.00
H317   H     0.01935   0.19445   0.09732   0.00000  Uiso   1.00
H318   H     0.16947   0.18970   0.67675   0.00000  Uiso   1.00
H319   H     0.23684   0.20095   0.68213   0.00000  Uiso   1.00
H320   H     0.21691   0.22083   0.63925   0.00000  Uiso   1.00
H321   H     0.24287   0.17935   0.63532   0.00000  Uiso   1.00
H322   H     0.28545   0.38011   0.33760   0.00000  Uiso   1.00
H323   H     0.33120   0.39532   0.33232   0.00000  Uiso   1.00
H324   H     0.30913   0.31481   0.34602   0.00000  Uiso   1.00
H325   H     0.35450   0.33358   0.34739   0.00000  Uiso   1.00
H326   H     0.33765   0.37238   0.40392   0.00000  Uiso   1.00
H327   H     0.33051   0.32464   0.41368   0.00000  Uiso   1.00
H328   H     0.30538   0.48002   0.97325   0.00000  Uiso   1.00
H329   H     0.01935   0.30555   0.90268   0.00000  Uiso   1.00
H330   H     0.29208   0.35358   0.40323   0.00000  Uiso   1.00
H331   H     0.35823   0.28340   0.22390   0.00000  Uiso   1.00
H332   H     0.31475   0.30038   0.24163   0.00000  Uiso   1.00
H333   H     0.35674   0.23435   0.27384   0.00000  Uiso   1.00
H334   H     0.31380   0.25133   0.29160   0.00000  Uiso   1.00
H335   H     0.28494   0.23880   0.22748   0.00000  Uiso   1.00
H336   H     0.30571   0.19829   0.24710   0.00000  Uiso   1.00
H337   H     0.32813   0.22283   0.20871   0.00000  Uiso   1.00
H338   H     0.06305   0.16526   0.64582   0.00000  Uiso   1.00
H339   H     0.05580   0.13598   0.68625   0.00000  Uiso   1.00
H340   H     0.30565   0.01910   0.09734   0.00000  Uiso   1.00
H341   H     0.10856   0.12029   0.61803   0.00000  Uiso   1.00
H342   H     0.09780   0.08961   0.65725   0.00000  Uiso   1.00
H343   H     0.03241   0.08883   0.63630   0.00000  Uiso   1.00
H344   H     0.06270   0.07385   0.59835   0.00000  Uiso   1.00
H345   H     0.04353   0.11904   0.59652   0.00000  Uiso   1.00
H346   H     0.28125   0.12264   0.33285   0.00000  Uiso   1.00
H347   H     0.29268   0.14396   0.28806   0.00000  Uiso   1.00
H348   H     0.32337   0.16613   0.36848   0.00000  Uiso   1.00
H349   H     0.33054   0.18970   0.32325   0.00000  Uiso   1.00
H350   H     0.26316   0.20095   0.31788   0.00000  Uiso   1.00
H351   H     0.19435   0.01910   0.90266   0.00000  Uiso   1.00
H352   H     0.28309   0.22083   0.36076   0.00000  Uiso   1.00
H353   H     0.25713   0.17935   0.36469   0.00000  Uiso   1.00
H354   H     0.21455   0.38011   0.66241   0.00000  Uiso   1.00
H355   H     0.16880   0.39532   0.66768   0.00000  Uiso   1.00
H356   H     0.19089   0.31481   0.65398   0.00000  Uiso   1.00
H357   H     0.14551   0.33357   0.65261   0.00000  Uiso   1.00
H358   H     0.16235   0.37238   0.59608   0.00000  Uiso   1.00
H359   H     0.16950   0.32463   0.58632   0.00000  Uiso   1.00
H360   H     0.20793   0.35359   0.59677   0.00000  Uiso   1.00
H361   H     0.14178   0.21659   0.22389   0.00000  Uiso   1.00
H362   H     0.48065   0.30555   0.09732   0.00000  Uiso   1.00
H363   H     0.18526   0.19962   0.24164   0.00000  Uiso   1.00
H364   H     0.14324   0.26565   0.27382   0.00000  Uiso   1.00
H365   H     0.18619   0.24869   0.29159   0.00000  Uiso   1.00
H366   H     0.21506   0.26121   0.22747   0.00000  Uiso   1.00
H367   H     0.19426   0.30172   0.24708   0.00000  Uiso   1.00
H368   H     0.17186   0.27716   0.20869   0.00000  Uiso   1.00
H369   H     0.43695   0.33474   0.64583   0.00000  Uiso   1.00
H370   H     0.44419   0.36403   0.68625   0.00000  Uiso   1.00
H371   H     0.39144   0.37969   0.61802   0.00000  Uiso   1.00
H372   H     0.40218   0.41038   0.65724   0.00000  Uiso   1.00
H373   H     0.48065   0.19445   0.90268   0.00000  Uiso   1.00
H374   H     0.46758   0.41117   0.63629   0.00000  Uiso   1.00
H375   H     0.43729   0.42614   0.59832   0.00000  Uiso   1.00
H376   H     0.45647   0.38095   0.59651   0.00000  Uiso   1.00
H377   H     0.21876   0.37735   0.33283   0.00000  Uiso   1.00
H378   H     0.20733   0.35604   0.28804   0.00000  Uiso   1.00
H379   H     0.17665   0.33385   0.36847   0.00000  Uiso   1.00
H380   H     0.16948   0.31029   0.32324   0.00000  Uiso   1.00
H381   H     0.23686   0.29905   0.31786   0.00000  Uiso   1.00
H382   H     0.21693   0.27916   0.36073   0.00000  Uiso   1.00
H383   H     0.24289   0.32064   0.36467   0.00000  Uiso   1.00
H384   H     0.44445   0.23065   0.59732   0.00000  Uiso   1.00
H385   H     0.28545   0.11989   0.66241   0.00000  Uiso   1.00
H386   H     0.33120   0.10469   0.66768   0.00000  Uiso   1.00
H387   H     0.30911   0.18519   0.65398   0.00000  Uiso   1.00
H388   H     0.35449   0.16643   0.65261   0.00000  Uiso   1.00
H389   H     0.33764   0.12762   0.59608   0.00000  Uiso   1.00
H390   H     0.33049   0.17537   0.58632   0.00000  Uiso   1.00
H391   H     0.29207   0.14641   0.59677   0.00000  Uiso   1.00
H392   H     0.05555   0.23065   0.40268   0.00000  Uiso   1.00
H393   H     0.26910   0.44435   0.59734   0.00000  Uiso   1.00
H394   H     0.26910   0.05565   0.40266   0.00000  Uiso   1.00
H395   H     0.05555   0.26935   0.59732   0.00000  Uiso   1.00
H396   H     0.02018   0.19470   0.02672   0.00000  Uiso   1.00
H397   H     0.44445   0.26935   0.40268   0.00000  Uiso   1.00
H398   H     0.23090   0.05565   0.59734   0.00000  Uiso   1.00
H399   H     0.23090   0.44435   0.40266   0.00000  Uiso   1.00
H400   H     0.12736   0.46876   0.16717   0.00000  Uiso   1.00
H401   H     0.10603   0.45732   0.21196   0.00000  Uiso   1.00
H402   H     0.08387   0.42667   0.13151   0.00000  Uiso   1.00
H403   H     0.06030   0.41947   0.17674   0.00000  Uiso   1.00
H404   H     0.04902   0.48683   0.18216   0.00000  Uiso   1.00
H405   H     0.02918   0.46694   0.13924   0.00000  Uiso   1.00
H406   H     0.07065   0.49291   0.13537   0.00000  Uiso   1.00
H407   H     0.02018   0.30530   0.97328   0.00000  Uiso   1.00
H408   H     0.36989   0.03545   0.83759   0.00000  Uiso   1.00
H409   H     0.35468   0.08120   0.83232   0.00000  Uiso   1.00
H410   H     0.43519   0.05911   0.84602   0.00000  Uiso   1.00
H411   H     0.41643   0.10449   0.84739   0.00000  Uiso   1.00
H412   H     0.37762   0.08764   0.90392   0.00000  Uiso   1.00
H413   H     0.42537   0.08050   0.91368   0.00000  Uiso   1.00
H414   H     0.39642   0.04207   0.90323   0.00000  Uiso   1.00
H415   H     0.03340   0.10823   0.27610   0.00000  Uiso   1.00
H416   H     0.05038   0.06475   0.25836   0.00000  Uiso   1.00
H417   H     0.48435   0.10674   0.22616   0.00000  Uiso   1.00
H418   H     0.30538   0.01998   0.02675   0.00000  Uiso   1.00
H419   H     0.00133   0.06380   0.20840   0.00000  Uiso   1.00
H420   H     0.48880   0.03494   0.27252   0.00000  Uiso   1.00
H421   H     0.44829   0.05571   0.25290   0.00000  Uiso   1.00
H422   H     0.47283   0.07813   0.29129   0.00000  Uiso   1.00
H423   H     0.41526   0.31307   0.85420   0.00000  Uiso   1.00
H424   H     0.38600   0.30579   0.81376   0.00000  Uiso   1.00
H425   H     0.37027   0.35856   0.88195   0.00000  Uiso   1.00
H426   H     0.33961   0.34779   0.84272   0.00000  Uiso   1.00
H427   H     0.33884   0.28239   0.86368   0.00000  Uiso   1.00
H428   H     0.32383   0.31268   0.90163   0.00000  Uiso   1.00
H429   H     0.19462   0.01998   0.97325   0.00000  Uiso   1.00
H430   H     0.36903   0.29353   0.90348   0.00000  Uiso   1.00
H431   H     0.37264   0.03125   0.16715   0.00000  Uiso   1.00
H432   H     0.39395   0.04268   0.21194   0.00000  Uiso   1.00
H433   H     0.41613   0.07337   0.13152   0.00000  Uiso   1.00
H434   H     0.43970   0.08054   0.17675   0.00000  Uiso   1.00
H435   H     0.45095   0.01316   0.18212   0.00000  Uiso   1.00
H436   H     0.47083   0.03310   0.13925   0.00000  Uiso   1.00
H437   H     0.42935   0.00713   0.13531   0.00000  Uiso   1.00
H438   H     0.13011   0.46455   0.83759   0.00000  Uiso   1.00
H439   H     0.14531   0.41880   0.83232   0.00000  Uiso   1.00
H440   H     0.47983   0.30530   0.02672   0.00000  Uiso   1.00
H441   H     0.06481   0.44089   0.84602   0.00000  Uiso   1.00
H442   H     0.08357   0.39551   0.84739   0.00000  Uiso   1.00
H443   H     0.12237   0.41236   0.90392   0.00000  Uiso   1.00
H444   H     0.07463   0.41950   0.91368   0.00000  Uiso   1.00
H445   H     0.10358   0.45793   0.90323   0.00000  Uiso   1.00
H446   H     0.46661   0.39174   0.27610   0.00000  Uiso   1.00
H447   H     0.44962   0.43523   0.25840   0.00000  Uiso   1.00
H448   H     0.01565   0.39326   0.22613   0.00000  Uiso   1.00
H449   H     0.49867   0.43623   0.20843   0.00000  Uiso   1.00
H450   H     0.01122   0.46502   0.27258   0.00000  Uiso   1.00
H451   H     0.47983   0.19470   0.97328   0.00000  Uiso   1.00
H452   H     0.05173   0.44425   0.25293   0.00000  Uiso   1.00
H453   H     0.02719   0.42180   0.29129   0.00000  Uiso   1.00
H454   H     0.08474   0.18695   0.85418   0.00000  Uiso   1.00
H455   H     0.11402   0.19420   0.81375   0.00000  Uiso   1.00
H456   H     0.12970   0.14144   0.88197   0.00000  Uiso   1.00
H457   H     0.16039   0.15219   0.84275   0.00000  Uiso   1.00
H458   H     0.16117   0.21759   0.86370   0.00000  Uiso   1.00
H459   H     0.17615   0.18730   0.90166   0.00000  Uiso   1.00
H460   H     0.13096   0.20647   0.90348   0.00000  Uiso   1.00
H461   H     0.12736   0.03125   0.83285   0.00000  Uiso   1.00
H462   H     0.44470   0.22982   0.52672   0.00000  Uiso   1.00
H463   H     0.10604   0.04268   0.78806   0.00000  Uiso   1.00
H464   H     0.08387   0.07337   0.86848   0.00000  Uiso   1.00
H465   H     0.06030   0.08054   0.82325   0.00000  Uiso   1.00
H466   H     0.04905   0.01316   0.81788   0.00000  Uiso   1.00
H467   H     0.02917   0.03309   0.86075   0.00000  Uiso   1.00
H468   H     0.07065   0.00713   0.86468   0.00000  Uiso   1.00
H469   H     0.36989   0.46456   0.16241   0.00000  Uiso   1.00
H470   H     0.35469   0.41880   0.16768   0.00000  Uiso   1.00
H471   H     0.43519   0.44090   0.15398   0.00000  Uiso   1.00
H472   H     0.41643   0.39551   0.15261   0.00000  Uiso   1.00
O473   O     0.25000   0.00000   0.25000   0.00000  Uiso   1.00
O474   O     0.25000   0.46964   0.66317   0.00000  Uiso   1.00
O475   O     0.46964   0.25000   0.33683   0.00000  Uiso   1.00
O476   O     0.03036   0.25000   0.66317   0.00000  Uiso   1.00
O477   O     0.00000   0.21964   0.83683   0.00000  Uiso   1.00
O478   O     0.00000   0.28036   0.16317   0.00000  Uiso   1.00
O479   O     0.28036  -0.00000   0.83683   0.00000  Uiso   1.00
O480   O     0.21964  -0.00000   0.16317   0.00000  Uiso   1.00
O481   O     0.00000   0.28036   0.83683   0.00000  Uiso   1.00
O482   O     0.00000   0.21964   0.16317   0.00000  Uiso   1.00
O483   O     0.21964  -0.00000   0.83683   0.00000  Uiso   1.00
O484   O     0.25000  -0.00000   0.75000   0.00000  Uiso   1.00
O485   O     0.28036  -0.00000   0.16317   0.00000  Uiso   1.00
O486   O     0.20726   0.07307   0.27282   0.00000  Uiso   1.00
O487   O     0.29275   0.42693   0.72718   0.00000  Uiso   1.00
O488   O     0.42693   0.20725   0.27282   0.00000  Uiso   1.00
O489   O     0.07307   0.29275   0.72718   0.00000  Uiso   1.00
O490   O     0.29275   0.42693   0.27282   0.00000  Uiso   1.00
O491   O     0.20726   0.07307   0.72718   0.00000  Uiso   1.00
O492   O     0.07307   0.29275   0.27282   0.00000  Uiso   1.00
O493   O     0.42693   0.20725   0.72718   0.00000  Uiso   1.00
O494   O     0.20726   0.42693   0.72718   0.00000  Uiso   1.00
O495   O     0.00000   0.25000   0.25000   0.00000  Uiso   1.00
O496   O     0.29275   0.07307   0.27282   0.00000  Uiso   1.00
O497   O     0.42693   0.29274   0.72718   0.00000  Uiso   1.00
O498   O     0.07307   0.20726   0.27282   0.00000  Uiso   1.00
O499   O     0.29275   0.07307   0.72718   0.00000  Uiso   1.00
O500   O     0.20726   0.42693   0.27282   0.00000  Uiso   1.00
O501   O     0.07307   0.20726   0.72718   0.00000  Uiso   1.00
O502   O     0.42693   0.29274   0.27282   0.00000  Uiso   1.00
O503   O     0.45726   0.32307   0.77282   0.00000  Uiso   1.00
O504   O     0.04275   0.17693   0.22718   0.00000  Uiso   1.00
O505   O     0.17693   0.45726   0.77282   0.00000  Uiso   1.00
O506   O     0.00000   0.25000   0.75000   0.00000  Uiso   1.00
O507   O     0.32307   0.04274   0.22718   0.00000  Uiso   1.00
O508   O     0.04275   0.17693   0.77282   0.00000  Uiso   1.00
O509   O     0.45726   0.32307   0.22718   0.00000  Uiso   1.00
O510   O     0.32307   0.04274   0.77282   0.00000  Uiso   1.00
O511   O     0.17693   0.45726   0.22718   0.00000  Uiso   1.00
O512   O     0.45726   0.17693   0.22718   0.00000  Uiso   1.00
O513   O     0.04275   0.32307   0.77282   0.00000  Uiso   1.00
O514   O     0.17693   0.04274   0.22718   0.00000  Uiso   1.00
O515   O     0.32307   0.45726   0.77282   0.00000  Uiso   1.00
O516   O     0.04275   0.32307   0.22718   0.00000  Uiso   1.00
O517   O     0.25000   0.46964   0.33683   0.00000  Uiso   1.00
O518   O     0.45726   0.17693   0.77282   0.00000  Uiso   1.00
O519   O     0.32307   0.45726   0.22718   0.00000  Uiso   1.00
O520   O     0.17693   0.04274   0.77282   0.00000  Uiso   1.00
O521   O     0.13572   0.41578   0.18281   0.00000  Uiso   1.00
O522   O     0.38911   0.05970   0.78833   0.00000  Uiso   1.00
O523   O     0.05603   0.10884   0.22071   0.00000  Uiso   1.00
O524   O     0.41070   0.35776   0.81924   0.00000  Uiso   1.00
O525   O     0.36427   0.08423   0.18281   0.00000  Uiso   1.00
O526   O     0.11089   0.44030   0.78833   0.00000  Uiso   1.00
O527   O     0.44397   0.39116   0.22071   0.00000  Uiso   1.00
O528   O     0.25000   0.03036   0.66317   0.00000  Uiso   1.00
O529   O     0.08930   0.14224   0.81924   0.00000  Uiso   1.00
O530   O     0.13573   0.08423   0.81719   0.00000  Uiso   1.00
O531   O     0.38912   0.44030   0.21167   0.00000  Uiso   1.00
O532   O     0.05603   0.39116   0.77928   0.00000  Uiso   1.00
O533   O     0.41070   0.14224   0.18076   0.00000  Uiso   1.00
O534   O     0.36428   0.41578   0.81719   0.00000  Uiso   1.00
O535   O     0.11089   0.05970   0.21166   0.00000  Uiso   1.00
O536   O     0.44397   0.10884   0.77929   0.00000  Uiso   1.00
O537   O     0.08929   0.35777   0.18076   0.00000  Uiso   1.00
O538   O     0.35884   0.19397   0.72071   0.00000  Uiso   1.00
O539   O     0.03036   0.25000   0.33683   0.00000  Uiso   1.00
O540   O     0.10777   0.33929   0.31924   0.00000  Uiso   1.00
O541   O     0.33423   0.38573   0.68281   0.00000  Uiso   1.00
O542   O     0.19030   0.13911   0.28833   0.00000  Uiso   1.00
O543   O     0.14116   0.30603   0.72072   0.00000  Uiso   1.00
O544   O     0.39224   0.16070   0.31924   0.00000  Uiso   1.00
O545   O     0.16577   0.11427   0.68281   0.00000  Uiso   1.00
O546   O     0.30970   0.36089   0.28834   0.00000  Uiso   1.00
O547   O     0.35884   0.30603   0.27929   0.00000  Uiso   1.00
O548   O     0.10776   0.16070   0.68076   0.00000  Uiso   1.00
O549   O     0.33423   0.11427   0.31719   0.00000  Uiso   1.00
O550   O     0.46964   0.25000   0.66317   0.00000  Uiso   1.00
O551   O     0.19030   0.36089   0.71167   0.00000  Uiso   1.00
O552   O     0.14116   0.19397   0.27928   0.00000  Uiso   1.00
O553   O     0.39224   0.33930   0.68076   0.00000  Uiso   1.00
O554   O     0.16578   0.38572   0.31719   0.00000  Uiso   1.00
O555   O     0.30970   0.13911   0.71167   0.00000  Uiso   1.00
O556   O     0.25000   0.03036   0.33683   0.00000  Uiso   1.00
Zn557  Zn    0.20660   0.00000   0.21760   0.00000  Uiso   1.00
Zn558  Zn    0.04340   0.25000   0.28240   0.00000  Uiso   1.00
Zn559  Zn    0.25000   0.45660   0.71760   0.00000  Uiso   1.00
Zn560  Zn    0.25000   0.04340   0.28240   0.00000  Uiso   1.00
Zn561  Zn    0.04340   0.25000   0.71760   0.00000  Uiso   1.00
Zn562  Zn    0.45660   0.25000   0.28240   0.00000  Uiso   1.00
Zn563  Zn    0.25000   0.04340   0.71760   0.00000  Uiso   1.00
Zn564  Zn    0.25000   0.45660   0.28240   0.00000  Uiso   1.00
Zn565  Zn    0.29340  -0.00000   0.78240   0.00000  Uiso   1.00
Zn566  Zn    0.00000   0.20660   0.21760   0.00000  Uiso   1.00
Zn567  Zn    0.00000   0.29340   0.78240   0.00000  Uiso   1.00
Zn568  Zn    0.29340   0.00000   0.21760   0.00000  Uiso   1.00
Zn569  Zn    0.20660  -0.00000   0.78240   0.00000  Uiso   1.00
Zn570  Zn    0.00000   0.29340   0.21760   0.00000  Uiso   1.00
Zn571  Zn    0.00000   0.20660   0.78240   0.00000  Uiso   1.00
Zn572  Zn    0.45660   0.25000   0.71760   0.00000  Uiso   1.00
C573   C     0.71880   0.48915   0.04183   0.00000  Uiso   1.00
C574   C     0.53115   0.23903   0.45819   0.00000  Uiso   1.00
C575   C     0.84831   0.40169   0.75000   0.00000  Uiso   1.00
C576   C     0.90207   0.15206   0.25000   0.00000  Uiso   1.00
C577   C     0.59800   0.34800   0.75000   0.00000  Uiso   1.00
C578   C     0.84824   0.40176   0.25000   0.00000  Uiso   1.00
C579   C     0.65169   0.09831   0.75000   0.00000  Uiso   1.00
C580   C     0.59794   0.15207   0.75000   0.00000  Uiso   1.00
C581   C     0.90200   0.34800   0.25000   0.00000  Uiso   1.00
C582   C     0.65176   0.40176   0.75000   0.00000  Uiso   1.00
C583   C     0.84831   0.09831   0.25000   0.00000  Uiso   1.00
C584   C     0.90206   0.34793   0.75000   0.00000  Uiso   1.00
C585   C     0.76085   0.46880   0.54183   0.00000  Uiso   1.00
C586   C     0.59800   0.15200   0.25000   0.00000  Uiso   1.00
C587   C     0.84824   0.09824   0.75000   0.00000  Uiso   1.00
C588   C     0.65169   0.40169   0.25000   0.00000  Uiso   1.00
C589   C     0.75000   0.00000   0.10249   0.00000  Uiso   1.00
C590   C     0.75000  -0.00000   0.89752   0.00000  Uiso   1.00
C591   C     0.50000   0.25000   0.10248   0.00000  Uiso   1.00
C592   C     0.50000   0.25000   0.89752   0.00000  Uiso   1.00
C593   C     0.50000   0.25000   0.60248   0.00000  Uiso   1.00
C594   C     0.50000   0.25000   0.39752   0.00000  Uiso   1.00
C595   C     0.75000   0.00000   0.60249   0.00000  Uiso   1.00
C596   C     0.76085   0.03120   0.45817   0.00000  Uiso   1.00
C597   C     0.75000   0.00000   0.39752   0.00000  Uiso   1.00
C598   C     0.61251   0.44666   0.18242   0.00000  Uiso   1.00
C599   C     0.57728   0.43891   0.16013   0.00000  Uiso   1.00
C600   C     0.55523   0.47364   0.15392   0.00000  Uiso   1.00
C601   C     0.87860   0.06289   0.82778   0.00000  Uiso   1.00
C602   C     0.91054   0.07534   0.85312   0.00000  Uiso   1.00
C603   C     0.90184   0.07106   0.89614   0.00000  Uiso   1.00
C604   C     0.53642   0.09054   0.25002   0.00000  Uiso   1.00
C605   C     0.99858   0.08125   0.23457   0.00000  Uiso   1.00
C606   C     0.97580   0.06125   0.26480   0.00000  Uiso   1.00
C607   C     0.53115   0.26097   0.54181   0.00000  Uiso   1.00
C608   C     0.89440   0.32644   0.83572   0.00000  Uiso   1.00
C609   C     0.86189   0.33697   0.86120   0.00000  Uiso   1.00
C610   C     0.84759   0.30428   0.88385   0.00000  Uiso   1.00
C611   C     0.88749   0.05335   0.18241   0.00000  Uiso   1.00
C612   C     0.92272   0.06111   0.16013   0.00000  Uiso   1.00
C613   C     0.94476   0.02638   0.15390   0.00000  Uiso   1.00
C614   C     0.62140   0.43711   0.82778   0.00000  Uiso   1.00
C615   C     0.58946   0.42466   0.85312   0.00000  Uiso   1.00
C616   C     0.59816   0.42894   0.89614   0.00000  Uiso   1.00
C617   C     0.96358   0.40945   0.25003   0.00000  Uiso   1.00
C618   C     0.96885   0.26097   0.45819   0.00000  Uiso   1.00
C619   C     0.50142   0.41875   0.23458   0.00000  Uiso   1.00
C620   C     0.52422   0.43871   0.26482   0.00000  Uiso   1.00
C621   C     0.60561   0.17357   0.83572   0.00000  Uiso   1.00
C622   C     0.63810   0.16302   0.86122   0.00000  Uiso   1.00
C623   C     0.65240   0.19572   0.88387   0.00000  Uiso   1.00
C624   C     0.61251   0.05334   0.81759   0.00000  Uiso   1.00
C625   C     0.57728   0.06110   0.83987   0.00000  Uiso   1.00
C626   C     0.55524   0.02637   0.84610   0.00000  Uiso   1.00
C627   C     0.87860   0.43711   0.17222   0.00000  Uiso   1.00
C628   C     0.91054   0.42466   0.14689   0.00000  Uiso   1.00
C629   C     0.73915   0.03120   0.54183   0.00000  Uiso   1.00
C630   C     0.90184   0.42894   0.10386   0.00000  Uiso   1.00
C631   C     0.53642   0.40947   0.74998   0.00000  Uiso   1.00
C632   C     0.99858   0.41874   0.76542   0.00000  Uiso   1.00
C633   C     0.97580   0.43874   0.73520   0.00000  Uiso   1.00
C634   C     0.89439   0.17357   0.16429   0.00000  Uiso   1.00
C635   C     0.86190   0.16303   0.13878   0.00000  Uiso   1.00
C636   C     0.84759   0.19572   0.11614   0.00000  Uiso   1.00
C637   C     0.88749   0.44666   0.81759   0.00000  Uiso   1.00
C638   C     0.92272   0.43890   0.83987   0.00000  Uiso   1.00
C639   C     0.94476   0.47363   0.84610   0.00000  Uiso   1.00
C640   C     0.73915   0.46880   0.45817   0.00000  Uiso   1.00
C641   C     0.62141   0.06289   0.17221   0.00000  Uiso   1.00
C642   C     0.58947   0.07537   0.14688   0.00000  Uiso   1.00
C643   C     0.59817   0.07109   0.10385   0.00000  Uiso   1.00
C644   C     0.96358   0.09054   0.74998   0.00000  Uiso   1.00
C645   C     0.50142   0.08125   0.76543   0.00000  Uiso   1.00
C646   C     0.52420   0.06126   0.73520   0.00000  Uiso   1.00
C647   C     0.60560   0.32645   0.16428   0.00000  Uiso   1.00
C648   C     0.63809   0.33699   0.13878   0.00000  Uiso   1.00
C649   C     0.65239   0.30430   0.11612   0.00000  Uiso   1.00
C650   C     0.84055   0.21358   0.75003   0.00000  Uiso   1.00
C651   C     0.71871   0.48944   0.08213   0.00000  Uiso   1.00
C652   C     0.83123   0.25141   0.73456   0.00000  Uiso   1.00
C653   C     0.81126   0.27420   0.76480   0.00000  Uiso   1.00
C654   C     0.57645   0.35559   0.33572   0.00000  Uiso   1.00
C655   C     0.58699   0.38808   0.36122   0.00000  Uiso   1.00
C656   C     0.55430   0.40238   0.38388   0.00000  Uiso   1.00
C657   C     0.80334   0.36251   0.68241   0.00000  Uiso   1.00
C658   C     0.81110   0.32728   0.66013   0.00000  Uiso   1.00
C659   C     0.77637   0.30524   0.65390   0.00000  Uiso   1.00
C660   C     0.68711   0.12860   0.32778   0.00000  Uiso   1.00
C661   C     0.67466   0.16054   0.35311   0.00000  Uiso   1.00
C662   C     0.78129   0.48944   0.91787   0.00000  Uiso   1.00
C663   C     0.67894   0.15184   0.39614   0.00000  Uiso   1.00
C664   C     0.65946   0.28642   0.75003   0.00000  Uiso   1.00
C665   C     0.66875   0.24858   0.73457   0.00000  Uiso   1.00
C666   C     0.68875   0.22580   0.76480   0.00000  Uiso   1.00
C667   C     0.92357   0.14439   0.33572   0.00000  Uiso   1.00
C668   C     0.91303   0.11190   0.36122   0.00000  Uiso   1.00
C669   C     0.94572   0.09759   0.38386   0.00000  Uiso   1.00
C670   C     0.69666   0.13749   0.68241   0.00000  Uiso   1.00
C671   C     0.68890   0.17272   0.66013   0.00000  Uiso   1.00
C672   C     0.72363   0.19476   0.65390   0.00000  Uiso   1.00
C673   C     0.51070   0.21876   0.08212   0.00000  Uiso   1.00
C674   C     0.81289   0.37141   0.32778   0.00000  Uiso   1.00
C675   C     0.82535   0.33946   0.35312   0.00000  Uiso   1.00
C676   C     0.82107   0.34816   0.39615   0.00000  Uiso   1.00
C677   C     0.84054   0.28642   0.24998   0.00000  Uiso   1.00
C678   C     0.83125   0.24858   0.26543   0.00000  Uiso   1.00
C679   C     0.81125   0.22580   0.23520   0.00000  Uiso   1.00
C680   C     0.57644   0.14439   0.66428   0.00000  Uiso   1.00
C681   C     0.58698   0.11190   0.63878   0.00000  Uiso   1.00
C682   C     0.55428   0.09759   0.61614   0.00000  Uiso   1.00
C683   C     0.80335   0.13749   0.31759   0.00000  Uiso   1.00
C684   C     0.78120   0.48915   0.95817   0.00000  Uiso   1.00
C685   C     0.51070   0.28124   0.91788   0.00000  Uiso   1.00
C686   C     0.81110   0.17272   0.33987   0.00000  Uiso   1.00
C687   C     0.77638   0.19476   0.34611   0.00000  Uiso   1.00
C688   C     0.68711   0.37140   0.67222   0.00000  Uiso   1.00
C689   C     0.67466   0.33946   0.64689   0.00000  Uiso   1.00
C690   C     0.67894   0.34816   0.60386   0.00000  Uiso   1.00
C691   C     0.65946   0.21358   0.24997   0.00000  Uiso   1.00
C692   C     0.66874   0.25142   0.26542   0.00000  Uiso   1.00
C693   C     0.68873   0.27421   0.23519   0.00000  Uiso   1.00
C694   C     0.92356   0.35561   0.66428   0.00000  Uiso   1.00
C695   C     0.91302   0.38809   0.63877   0.00000  Uiso   1.00
C696   C     0.78129   0.01056   0.08213   0.00000  Uiso   1.00
C697   C     0.94571   0.40240   0.61612   0.00000  Uiso   1.00
C698   C     0.69666   0.36250   0.31758   0.00000  Uiso   1.00
C699   C     0.68891   0.32727   0.33985   0.00000  Uiso   1.00
C700   C     0.72364   0.30523   0.34608   0.00000  Uiso   1.00
C701   C     0.81289   0.12860   0.67222   0.00000  Uiso   1.00
C702   C     0.82534   0.16054   0.64689   0.00000  Uiso   1.00
C703   C     0.82106   0.15184   0.60386   0.00000  Uiso   1.00
C704   C     0.71871   0.01056   0.91787   0.00000  Uiso   1.00
C705   C     0.98930   0.28124   0.08212   0.00000  Uiso   1.00
C706   C     0.98930   0.21876   0.91788   0.00000  Uiso   1.00
C707   C     0.96876   0.23930   0.58212   0.00000  Uiso   1.00
C708   C     0.53124   0.23930   0.41788   0.00000  Uiso   1.00
C709   C     0.76056   0.46871   0.58213   0.00000  Uiso   1.00
C710   C     0.76056   0.03129   0.41787   0.00000  Uiso   1.00
C711   C     0.53124   0.26070   0.58212   0.00000  Uiso   1.00
C712   C     0.51097   0.21885   0.04181   0.00000  Uiso   1.00
C713   C     0.96876   0.26070   0.41788   0.00000  Uiso   1.00
C714   C     0.73944   0.03129   0.58213   0.00000  Uiso   1.00
C715   C     0.73944   0.46871   0.41787   0.00000  Uiso   1.00
C716   C     0.75000  -0.00000   0.02133   0.00000  Uiso   1.00
C717   C     0.75000  -0.00000   0.97867   0.00000  Uiso   1.00
C718   C     0.50000   0.25000   0.02132   0.00000  Uiso   1.00
C719   C     0.50000   0.25000   0.97868   0.00000  Uiso   1.00
C720   C     0.50000   0.25000   0.52132   0.00000  Uiso   1.00
C721   C     0.50000   0.25000   0.47868   0.00000  Uiso   1.00
C722   C     0.75000   0.00000   0.52133   0.00000  Uiso   1.00
C723   C     0.51097   0.28115   0.95819   0.00000  Uiso   1.00
C724   C     0.75000  -0.00000   0.47867   0.00000  Uiso   1.00
C725   C     0.75000   0.00000   0.35518   0.00000  Uiso   1.00
C726   C     0.75000   0.00000   0.64482   0.00000  Uiso   1.00
C727   C     0.50000   0.25000   0.35518   0.00000  Uiso   1.00
C728   C     0.50000   0.25000   0.64482   0.00000  Uiso   1.00
C729   C     0.50000   0.25000   0.85518   0.00000  Uiso   1.00
C730   C     0.50000   0.25000   0.14482   0.00000  Uiso   1.00
C731   C     0.75000  -0.00000   0.85518   0.00000  Uiso   1.00
C732   C     0.75000   0.00000   0.14482   0.00000  Uiso   1.00
C733   C     0.67991   0.07009   0.25000   0.00000  Uiso   1.00
C734   C     0.78120   0.01085   0.04183   0.00000  Uiso   1.00
C735   C     0.82012   0.42988   0.75000   0.00000  Uiso   1.00
C736   C     0.93003   0.18003   0.25000   0.00000  Uiso   1.00
C737   C     0.57000   0.32001   0.75000   0.00000  Uiso   1.00
C738   C     0.82009   0.42991   0.25000   0.00000  Uiso   1.00
C739   C     0.67988   0.07012   0.75000   0.00000  Uiso   1.00
C740   C     0.56997   0.31997   0.25000   0.00000  Uiso   1.00
C741   C     0.93000   0.17999   0.75000   0.00000  Uiso   1.00
C742   C     0.67991   0.42991   0.75000   0.00000  Uiso   1.00
C743   C     0.82012   0.07012   0.25000   0.00000  Uiso   1.00
C744   C     0.93003   0.31997   0.75000   0.00000  Uiso   1.00
C745   C     0.71880   0.01085   0.95817   0.00000  Uiso   1.00
C746   C     0.57000   0.18000   0.25000   0.00000  Uiso   1.00
C747   C     0.82009   0.07009   0.75000   0.00000  Uiso   1.00
C748   C     0.67988   0.42988   0.25000   0.00000  Uiso   1.00
C749   C     0.56997   0.18003   0.75000   0.00000  Uiso   1.00
C750   C     0.93000   0.32000   0.25000   0.00000  Uiso   1.00
C751   C     0.63023   0.39588   0.21646   0.00000  Uiso   1.00
C752   C     0.88182   0.09197   0.76900   0.00000  Uiso   1.00
C753   C     0.59030   0.11735   0.23470   0.00000  Uiso   1.00
C754   C     0.89375   0.36650   0.78456   0.00000  Uiso   1.00
C755   C     0.86976   0.10413   0.21646   0.00000  Uiso   1.00
C756   C     0.98903   0.28115   0.04181   0.00000  Uiso   1.00
C757   C     0.61818   0.40803   0.76900   0.00000  Uiso   1.00
C758   C     0.90970   0.38265   0.23470   0.00000  Uiso   1.00
C759   C     0.60625   0.13350   0.78456   0.00000  Uiso   1.00
C760   C     0.63024   0.10412   0.78354   0.00000  Uiso   1.00
C761   C     0.88182   0.40803   0.23100   0.00000  Uiso   1.00
C762   C     0.59030   0.38265   0.76530   0.00000  Uiso   1.00
C763   C     0.89375   0.13350   0.21544   0.00000  Uiso   1.00
C764   C     0.86976   0.39588   0.78354   0.00000  Uiso   1.00
C765   C     0.61818   0.09197   0.23100   0.00000  Uiso   1.00
C766   C     0.90970   0.11735   0.76530   0.00000  Uiso   1.00
C767   C     0.98903   0.21885   0.95819   0.00000  Uiso   1.00
C768   C     0.60625   0.36650   0.21544   0.00000  Uiso   1.00
C769   C     0.86735   0.15970   0.73470   0.00000  Uiso   1.00
C770   C     0.61650   0.35625   0.28456   0.00000  Uiso   1.00
C771   C     0.85412   0.38024   0.71646   0.00000  Uiso   1.00
C772   C     0.65804   0.13182   0.26900   0.00000  Uiso   1.00
C773   C     0.63265   0.34030   0.73470   0.00000  Uiso   1.00
C774   C     0.88350   0.14375   0.28456   0.00000  Uiso   1.00
C775   C     0.64588   0.11976   0.71646   0.00000  Uiso   1.00
C776   C     0.84197   0.36818   0.26900   0.00000  Uiso   1.00
C777   C     0.86735   0.34030   0.26530   0.00000  Uiso   1.00
C778   C     0.96885   0.23903   0.54181   0.00000  Uiso   1.00
C779   C     0.61650   0.14375   0.71544   0.00000  Uiso   1.00
C780   C     0.85413   0.11976   0.28354   0.00000  Uiso   1.00
C781   C     0.65803   0.36818   0.73100   0.00000  Uiso   1.00
C782   C     0.63266   0.15970   0.26530   0.00000  Uiso   1.00
C783   C     0.88350   0.35625   0.71544   0.00000  Uiso   1.00
C784   C     0.64588   0.38023   0.28354   0.00000  Uiso   1.00
C785   C     0.84197   0.13182   0.73100   0.00000  Uiso   1.00
C786   C     0.59794   0.34794   0.25000   0.00000  Uiso   1.00
C787   C     0.90200   0.15200   0.75000   0.00000  Uiso   1.00
C788   C     0.65176   0.09824   0.25000   0.00000  Uiso   1.00
H789   H     0.69462   0.48002   0.02675   0.00000  Uiso   1.00
H790   H     0.55530   0.22983   0.47328   0.00000  Uiso   1.00
H791   H     0.87763   0.41236   0.09608   0.00000  Uiso   1.00
H792   H     0.92537   0.41951   0.08632   0.00000  Uiso   1.00
H793   H     0.89641   0.45794   0.09677   0.00000  Uiso   1.00
H794   H     0.53341   0.39179   0.72389   0.00000  Uiso   1.00
H795   H     0.55038   0.43526   0.74165   0.00000  Uiso   1.00
H796   H     0.98435   0.39323   0.77381   0.00000  Uiso   1.00
H797   H     0.50131   0.43618   0.79160   0.00000  Uiso   1.00
H798   H     0.98879   0.46507   0.72750   0.00000  Uiso   1.00
H799   H     0.94827   0.44425   0.74708   0.00000  Uiso   1.00
H800   H     0.97285   0.42188   0.70869   0.00000  Uiso   1.00
H801   H     0.76998   0.44462   0.52675   0.00000  Uiso   1.00
H802   H     0.91526   0.18695   0.14582   0.00000  Uiso   1.00
H803   H     0.88598   0.19420   0.18625   0.00000  Uiso   1.00
H804   H     0.87029   0.14145   0.11803   0.00000  Uiso   1.00
H805   H     0.83961   0.15220   0.15725   0.00000  Uiso   1.00
H806   H     0.83883   0.21760   0.13631   0.00000  Uiso   1.00
H807   H     0.82384   0.18731   0.09835   0.00000  Uiso   1.00
H808   H     0.86903   0.20648   0.09652   0.00000  Uiso   1.00
H809   H     0.87264   0.46875   0.83284   0.00000  Uiso   1.00
H810   H     0.89396   0.45732   0.78806   0.00000  Uiso   1.00
H811   H     0.91613   0.42663   0.86848   0.00000  Uiso   1.00
H812   H     0.76998   0.05538   0.47325   0.00000  Uiso   1.00
H813   H     0.93970   0.41947   0.82325   0.00000  Uiso   1.00
H814   H     0.95095   0.48684   0.81787   0.00000  Uiso   1.00
H815   H     0.97083   0.46691   0.86075   0.00000  Uiso   1.00
H816   H     0.92935   0.49287   0.86468   0.00000  Uiso   1.00
H817   H     0.63011   0.03545   0.16240   0.00000  Uiso   1.00
H818   H     0.64533   0.08120   0.16768   0.00000  Uiso   1.00
H819   H     0.56481   0.05914   0.15398   0.00000  Uiso   1.00
H820   H     0.58359   0.10452   0.15261   0.00000  Uiso   1.00
H821   H     0.62239   0.08765   0.09608   0.00000  Uiso   1.00
H822   H     0.57464   0.08054   0.08632   0.00000  Uiso   1.00
H823   H     0.55530   0.27018   0.52672   0.00000  Uiso   1.00
H824   H     0.60357   0.04209   0.09677   0.00000  Uiso   1.00
H825   H     0.96660   0.10824   0.72390   0.00000  Uiso   1.00
H826   H     0.94962   0.06475   0.74163   0.00000  Uiso   1.00
H827   H     0.51565   0.10674   0.77384   0.00000  Uiso   1.00
H828   H     0.99867   0.06379   0.79159   0.00000  Uiso   1.00
H829   H     0.51120   0.03494   0.72747   0.00000  Uiso   1.00
H830   H     0.55172   0.05572   0.74710   0.00000  Uiso   1.00
H831   H     0.52717   0.07814   0.70871   0.00000  Uiso   1.00
H832   H     0.58473   0.31306   0.14582   0.00000  Uiso   1.00
H833   H     0.61402   0.30581   0.18624   0.00000  Uiso   1.00
H834   H     0.94470   0.27017   0.47328   0.00000  Uiso   1.00
H835   H     0.62969   0.35857   0.11803   0.00000  Uiso   1.00
H836   H     0.66038   0.34782   0.15724   0.00000  Uiso   1.00
H837   H     0.66115   0.28242   0.13629   0.00000  Uiso   1.00
H838   H     0.67614   0.31272   0.09833   0.00000  Uiso   1.00
H839   H     0.63095   0.29355   0.09651   0.00000  Uiso   1.00
H840   H     0.85826   0.21662   0.77609   0.00000  Uiso   1.00
H841   H     0.81478   0.19962   0.75841   0.00000  Uiso   1.00
H842   H     0.85671   0.26565   0.72612   0.00000  Uiso   1.00
H843   H     0.81375   0.24864   0.70842   0.00000  Uiso   1.00
H844   H     0.78497   0.26118   0.77259   0.00000  Uiso   1.00
H845   H     0.73002   0.05538   0.52675   0.00000  Uiso   1.00
H846   H     0.80568   0.30170   0.75289   0.00000  Uiso   1.00
H847   H     0.82817   0.27721   0.79126   0.00000  Uiso   1.00
H848   H     0.56308   0.33471   0.35419   0.00000  Uiso   1.00
H849   H     0.55581   0.36399   0.31377   0.00000  Uiso   1.00
H850   H     0.60858   0.37969   0.38197   0.00000  Uiso   1.00
H851   H     0.59781   0.41037   0.34275   0.00000  Uiso   1.00
H852   H     0.53242   0.41114   0.36372   0.00000  Uiso   1.00
H853   H     0.56271   0.42612   0.40167   0.00000  Uiso   1.00
H854   H     0.54356   0.38093   0.40350   0.00000  Uiso   1.00
H855   H     0.78125   0.37736   0.66715   0.00000  Uiso   1.00
H856   H     0.73002   0.44462   0.47325   0.00000  Uiso   1.00
H857   H     0.79268   0.35604   0.71194   0.00000  Uiso   1.00
H858   H     0.82337   0.33387   0.63152   0.00000  Uiso   1.00
H859   H     0.83053   0.31030   0.67675   0.00000  Uiso   1.00
H860   H     0.76316   0.29905   0.68212   0.00000  Uiso   1.00
H861   H     0.78309   0.27917   0.63924   0.00000  Uiso   1.00
H862   H     0.75713   0.32065   0.63531   0.00000  Uiso   1.00
H863   H     0.71455   0.11989   0.33759   0.00000  Uiso   1.00
H864   H     0.66880   0.10469   0.33232   0.00000  Uiso   1.00
H865   H     0.69089   0.18519   0.34602   0.00000  Uiso   1.00
H866   H     0.64551   0.16643   0.34739   0.00000  Uiso   1.00
H867   H     0.69435   0.48090   0.09734   0.00000  Uiso   1.00
H868   H     0.66236   0.12763   0.40392   0.00000  Uiso   1.00
H869   H     0.66951   0.17537   0.41368   0.00000  Uiso   1.00
H870   H     0.70793   0.14642   0.40323   0.00000  Uiso   1.00
H871   H     0.64177   0.28340   0.77611   0.00000  Uiso   1.00
H872   H     0.68525   0.30038   0.75837   0.00000  Uiso   1.00
H873   H     0.64326   0.23435   0.72616   0.00000  Uiso   1.00
H874   H     0.68621   0.25133   0.70841   0.00000  Uiso   1.00
H875   H     0.71506   0.23880   0.77253   0.00000  Uiso   1.00
H876   H     0.69428   0.19828   0.75291   0.00000  Uiso   1.00
H877   H     0.67187   0.22283   0.79129   0.00000  Uiso   1.00
H878   H     0.80565   0.48090   0.90266   0.00000  Uiso   1.00
H879   H     0.93695   0.16526   0.35418   0.00000  Uiso   1.00
H880   H     0.94420   0.13597   0.31375   0.00000  Uiso   1.00
H881   H     0.89145   0.12029   0.38197   0.00000  Uiso   1.00
H882   H     0.90220   0.08961   0.34275   0.00000  Uiso   1.00
H883   H     0.96760   0.08883   0.36369   0.00000  Uiso   1.00
H884   H     0.93731   0.07385   0.40166   0.00000  Uiso   1.00
H885   H     0.95648   0.11903   0.40348   0.00000  Uiso   1.00
H886   H     0.71875   0.12264   0.66715   0.00000  Uiso   1.00
H887   H     0.70732   0.14396   0.71194   0.00000  Uiso   1.00
H888   H     0.67663   0.16613   0.63152   0.00000  Uiso   1.00
H889   H     0.51935   0.19445   0.09732   0.00000  Uiso   1.00
H890   H     0.66947   0.18970   0.67675   0.00000  Uiso   1.00
H891   H     0.73684   0.20095   0.68213   0.00000  Uiso   1.00
H892   H     0.71691   0.22083   0.63925   0.00000  Uiso   1.00
H893   H     0.74287   0.17935   0.63532   0.00000  Uiso   1.00
H894   H     0.78545   0.38011   0.33760   0.00000  Uiso   1.00
H895   H     0.83120   0.39532   0.33232   0.00000  Uiso   1.00
H896   H     0.80913   0.31481   0.34602   0.00000  Uiso   1.00
H897   H     0.85450   0.33358   0.34739   0.00000  Uiso   1.00
H898   H     0.83765   0.37238   0.40392   0.00000  Uiso   1.00
H899   H     0.83051   0.32464   0.41368   0.00000  Uiso   1.00
H900   H     0.80538   0.48002   0.97325   0.00000  Uiso   1.00
H901   H     0.51935   0.30555   0.90268   0.00000  Uiso   1.00
H902   H     0.79208   0.35358   0.40323   0.00000  Uiso   1.00
H903   H     0.85823   0.28340   0.22390   0.00000  Uiso   1.00
H904   H     0.81475   0.30038   0.24163   0.00000  Uiso   1.00
H905   H     0.85674   0.23435   0.27384   0.00000  Uiso   1.00
H906   H     0.81380   0.25133   0.29160   0.00000  Uiso   1.00
H907   H     0.78494   0.23880   0.22748   0.00000  Uiso   1.00
H908   H     0.80571   0.19829   0.24710   0.00000  Uiso   1.00
H909   H     0.82813   0.22283   0.20871   0.00000  Uiso   1.00
H910   H     0.56305   0.16526   0.64582   0.00000  Uiso   1.00
H911   H     0.55580   0.13598   0.68625   0.00000  Uiso   1.00
H912   H     0.80565   0.01910   0.09734   0.00000  Uiso   1.00
H913   H     0.60856   0.12029   0.61803   0.00000  Uiso   1.00
H914   H     0.59780   0.08961   0.65725   0.00000  Uiso   1.00
H915   H     0.53241   0.08883   0.63630   0.00000  Uiso   1.00
H916   H     0.56270   0.07385   0.59835   0.00000  Uiso   1.00
H917   H     0.54353   0.11904   0.59652   0.00000  Uiso   1.00
H918   H     0.78125   0.12264   0.33285   0.00000  Uiso   1.00
H919   H     0.79268   0.14396   0.28806   0.00000  Uiso   1.00
H920   H     0.82337   0.16613   0.36848   0.00000  Uiso   1.00
H921   H     0.83054   0.18970   0.32325   0.00000  Uiso   1.00
H922   H     0.76316   0.20095   0.31788   0.00000  Uiso   1.00
H923   H     0.69435   0.01910   0.90266   0.00000  Uiso   1.00
H924   H     0.78309   0.22083   0.36076   0.00000  Uiso   1.00
H925   H     0.75713   0.17935   0.36469   0.00000  Uiso   1.00
H926   H     0.71455   0.38011   0.66241   0.00000  Uiso   1.00
H927   H     0.66880   0.39532   0.66768   0.00000  Uiso   1.00
H928   H     0.69089   0.31481   0.65398   0.00000  Uiso   1.00
H929   H     0.64551   0.33357   0.65261   0.00000  Uiso   1.00
H930   H     0.66235   0.37238   0.59608   0.00000  Uiso   1.00
H931   H     0.66950   0.32463   0.58632   0.00000  Uiso   1.00
H932   H     0.70793   0.35359   0.59677   0.00000  Uiso   1.00
H933   H     0.64178   0.21659   0.22389   0.00000  Uiso   1.00
H934   H     0.98065   0.30555   0.09732   0.00000  Uiso   1.00
H935   H     0.68526   0.19962   0.24164   0.00000  Uiso   1.00
H936   H     0.64324   0.26565   0.27382   0.00000  Uiso   1.00
H937   H     0.68619   0.24869   0.29159   0.00000  Uiso   1.00
H938   H     0.71506   0.26121   0.22747   0.00000  Uiso   1.00
H939   H     0.69426   0.30172   0.24708   0.00000  Uiso   1.00
H940   H     0.67186   0.27716   0.20869   0.00000  Uiso   1.00
H941   H     0.93695   0.33474   0.64583   0.00000  Uiso   1.00
H942   H     0.94419   0.36403   0.68625   0.00000  Uiso   1.00
H943   H     0.89144   0.37969   0.61802   0.00000  Uiso   1.00
H944   H     0.90218   0.41038   0.65724   0.00000  Uiso   1.00
H945   H     0.98065   0.19445   0.90268   0.00000  Uiso   1.00
H946   H     0.96758   0.41117   0.63629   0.00000  Uiso   1.00
H947   H     0.93729   0.42614   0.59832   0.00000  Uiso   1.00
H948   H     0.95647   0.38095   0.59651   0.00000  Uiso   1.00
H949   H     0.71876   0.37735   0.33283   0.00000  Uiso   1.00
H950   H     0.70733   0.35604   0.28804   0.00000  Uiso   1.00
H951   H     0.67665   0.33385   0.36847   0.00000  Uiso   1.00
H952   H     0.66948   0.31029   0.32324   0.00000  Uiso   1.00
H953   H     0.73686   0.29905   0.31786   0.00000  Uiso   1.00
H954   H     0.71693   0.27916   0.36073   0.00000  Uiso   1.00
H955   H     0.74289   0.32064   0.36467   0.00000  Uiso   1.00
H956   H     0.94445   0.23065   0.59732   0.00000  Uiso   1.00
H957   H     0.78545   0.11989   0.66241   0.00000  Uiso   1.00
H958   H     0.83120   0.10469   0.66768   0.00000  Uiso   1.00
H959   H     0.80911   0.18519   0.65398   0.00000  Uiso   1.00
H960   H     0.85449   0.16643   0.65261   0.00000  Uiso   1.00
H961   H     0.83764   0.12762   0.59608   0.00000  Uiso   1.00
H962   H     0.83049   0.17537   0.58632   0.00000  Uiso   1.00
H963   H     0.79207   0.14641   0.59677   0.00000  Uiso   1.00
H964   H     0.55555   0.23065   0.40268   0.00000  Uiso   1.00
H965   H     0.76910   0.44435   0.59734   0.00000  Uiso   1.00
H966   H     0.76910   0.05565   0.40266   0.00000  Uiso   1.00
H967   H     0.55555   0.26935   0.59732   0.00000  Uiso   1.00
H968   H     0.52018   0.19470   0.02672   0.00000  Uiso   1.00
H969   H     0.94445   0.26935   0.40268   0.00000  Uiso   1.00
H970   H     0.73090   0.05565   0.59734   0.00000  Uiso   1.00
H971   H     0.73090   0.44435   0.40266   0.00000  Uiso   1.00
H972   H     0.62736   0.46876   0.16717   0.00000  Uiso   1.00
H973   H     0.60603   0.45732   0.21196   0.00000  Uiso   1.00
H974   H     0.58387   0.42667   0.13151   0.00000  Uiso   1.00
H975   H     0.56030   0.41947   0.17674   0.00000  Uiso   1.00
H976   H     0.54902   0.48683   0.18216   0.00000  Uiso   1.00
H977   H     0.52918   0.46694   0.13924   0.00000  Uiso   1.00
H978   H     0.57065   0.49291   0.13537   0.00000  Uiso   1.00
H979   H     0.52018   0.30530   0.97328   0.00000  Uiso   1.00
H980   H     0.86989   0.03545   0.83759   0.00000  Uiso   1.00
H981   H     0.85468   0.08120   0.83232   0.00000  Uiso   1.00
H982   H     0.93519   0.05911   0.84602   0.00000  Uiso   1.00
H983   H     0.91643   0.10449   0.84739   0.00000  Uiso   1.00
H984   H     0.87762   0.08764   0.90392   0.00000  Uiso   1.00
H985   H     0.92537   0.08050   0.91368   0.00000  Uiso   1.00
H986   H     0.89642   0.04207   0.90323   0.00000  Uiso   1.00
H987   H     0.53340   0.10823   0.27610   0.00000  Uiso   1.00
H988   H     0.55038   0.06475   0.25836   0.00000  Uiso   1.00
H989   H     0.98435   0.10674   0.22616   0.00000  Uiso   1.00
H990   H     0.80538   0.01998   0.02675   0.00000  Uiso   1.00
H991   H     0.50133   0.06380   0.20840   0.00000  Uiso   1.00
H992   H     0.98880   0.03494   0.27252   0.00000  Uiso   1.00
H993   H     0.94829   0.05571   0.25290   0.00000  Uiso   1.00
H994   H     0.97283   0.07813   0.29129   0.00000  Uiso   1.00
H995   H     0.91526   0.31307   0.85420   0.00000  Uiso   1.00
H996   H     0.88600   0.30579   0.81376   0.00000  Uiso   1.00
H997   H     0.87027   0.35856   0.88195   0.00000  Uiso   1.00
H998   H     0.83961   0.34779   0.84272   0.00000  Uiso   1.00
H999   H     0.83884   0.28239   0.86368   0.00000  Uiso   1.00
H1000  H     0.82383   0.31268   0.90163   0.00000  Uiso   1.00
H1001  H     0.69462   0.01998   0.97325   0.00000  Uiso   1.00
H1002  H     0.86903   0.29353   0.90348   0.00000  Uiso   1.00
H1003  H     0.87264   0.03125   0.16715   0.00000  Uiso   1.00
H1004  H     0.89395   0.04268   0.21194   0.00000  Uiso   1.00
H1005  H     0.91613   0.07337   0.13152   0.00000  Uiso   1.00
H1006  H     0.93970   0.08054   0.17675   0.00000  Uiso   1.00
H1007  H     0.95095   0.01316   0.18212   0.00000  Uiso   1.00
H1008  H     0.97083   0.03310   0.13925   0.00000  Uiso   1.00
H1009  H     0.92935   0.00713   0.13531   0.00000  Uiso   1.00
H1010  H     0.63011   0.46455   0.83759   0.00000  Uiso   1.00
H1011  H     0.64531   0.41880   0.83232   0.00000  Uiso   1.00
H1012  H     0.97983   0.30530   0.02672   0.00000  Uiso   1.00
H1013  H     0.56481   0.44089   0.84602   0.00000  Uiso   1.00
H1014  H     0.58357   0.39551   0.84739   0.00000  Uiso   1.00
H1015  H     0.62237   0.41236   0.90392   0.00000  Uiso   1.00
H1016  H     0.57463   0.41950   0.91368   0.00000  Uiso   1.00
H1017  H     0.60358   0.45793   0.90323   0.00000  Uiso   1.00
H1018  H     0.96661   0.39174   0.27610   0.00000  Uiso   1.00
H1019  H     0.94962   0.43523   0.25840   0.00000  Uiso   1.00
H1020  H     0.51565   0.39326   0.22613   0.00000  Uiso   1.00
H1021  H     0.99867   0.43623   0.20843   0.00000  Uiso   1.00
H1022  H     0.51122   0.46502   0.27258   0.00000  Uiso   1.00
H1023  H     0.97983   0.19470   0.97328   0.00000  Uiso   1.00
H1024  H     0.55173   0.44425   0.25293   0.00000  Uiso   1.00
H1025  H     0.52719   0.42180   0.29129   0.00000  Uiso   1.00
H1026  H     0.58474   0.18695   0.85418   0.00000  Uiso   1.00
H1027  H     0.61402   0.19420   0.81375   0.00000  Uiso   1.00
H1028  H     0.62970   0.14144   0.88197   0.00000  Uiso   1.00
H1029  H     0.66039   0.15219   0.84275   0.00000  Uiso   1.00
H1030  H     0.66117   0.21759   0.86370   0.00000  Uiso   1.00
H1031  H     0.67615   0.18730   0.90166   0.00000  Uiso   1.00
H1032  H     0.63096   0.20647   0.90348   0.00000  Uiso   1.00
H1033  H     0.62736   0.03125   0.83285   0.00000  Uiso   1.00
H1034  H     0.94470   0.22982   0.52672   0.00000  Uiso   1.00
H1035  H     0.60604   0.04268   0.78806   0.00000  Uiso   1.00
H1036  H     0.58387   0.07337   0.86848   0.00000  Uiso   1.00
H1037  H     0.56030   0.08054   0.82325   0.00000  Uiso   1.00
H1038  H     0.54905   0.01316   0.81788   0.00000  Uiso   1.00
H1039  H     0.52917   0.03309   0.86075   0.00000  Uiso   1.00
H1040  H     0.57065   0.00713   0.86468   0.00000  Uiso   1.00
H1041  H     0.86989   0.46456   0.16241   0.00000  Uiso   1.00
H1042  H     0.85469   0.41880   0.16768   0.00000  Uiso   1.00
H1043  H     0.93519   0.44090   0.15398   0.00000  Uiso   1.00
H1044  H     0.91643   0.39551   0.15261   0.00000  Uiso   1.00
O1045  O     0.75000   0.00000   0.25000   0.00000  Uiso   1.00
O1046  O     0.75000   0.46964   0.66317   0.00000  Uiso   1.00
O1047  O     0.96964   0.25000   0.33683   0.00000  Uiso   1.00
O1048  O     0.53036   0.25000   0.66317   0.00000  Uiso   1.00
O1049  O     0.50000   0.21964   0.83683   0.00000  Uiso   1.00
O1050  O     0.50000   0.28036   0.16317   0.00000  Uiso   1.00
O1051  O     0.78036  -0.00000   0.83683   0.00000  Uiso   1.00
O1052  O     0.71964  -0.00000   0.16317   0.00000  Uiso   1.00
O1053  O     0.50000   0.28036   0.83683   0.00000  Uiso   1.00
O1054  O     0.50000   0.21964   0.16317   0.00000  Uiso   1.00
O1055  O     0.71964  -0.00000   0.83683   0.00000  Uiso   1.00
O1056  O     0.75000  -0.00000   0.75000   0.00000  Uiso   1.00
O1057  O     0.78036  -0.00000   0.16317   0.00000  Uiso   1.00
O1058  O     0.70726   0.07307   0.27282   0.00000  Uiso   1.00
O1059  O     0.79275   0.42693   0.72718   0.00000  Uiso   1.00
O1060  O     0.92693   0.20725   0.27282   0.00000  Uiso   1.00
O1061  O     0.57307   0.29275   0.72718   0.00000  Uiso   1.00
O1062  O     0.79275   0.42693   0.27282   0.00000  Uiso   1.00
O1063  O     0.70726   0.07307   0.72718   0.00000  Uiso   1.00
O1064  O     0.57307   0.29275   0.27282   0.00000  Uiso   1.00
O1065  O     0.92693   0.20725   0.72718   0.00000  Uiso   1.00
O1066  O     0.70726   0.42693   0.72718   0.00000  Uiso   1.00
O1067  O     0.50000   0.25000   0.25000   0.00000  Uiso   1.00
O1068  O     0.79275   0.07307   0.27282   0.00000  Uiso   1.00
O1069  O     0.92693   0.29274   0.72718   0.00000  Uiso   1.00
O1070  O     0.57307   0.20726   0.27282   0.00000  Uiso   1.00
O1071  O     0.79275   0.07307   0.72718   0.00000  Uiso   1.00
O1072  O     0.70726   0.42693   0.27282   0.00000  Uiso   1.00
O1073  O     0.57307   0.20726   0.72718   0.00000  Uiso   1.00
O1074  O     0.92693   0.29274   0.27282   0.00000  Uiso   1.00
O1075  O     0.95726   0.32307   0.77282   0.00000  Uiso   1.00
O1076  O     0.54275   0.17693   0.22718   0.00000  Uiso   1.00
O1077  O     0.67693   0.45726   0.77282   0.00000  Uiso   1.00
O1078  O     0.50000   0.25000   0.75000   0.00000  Uiso   1.00
O1079  O     0.82307   0.04274   0.22718   0.00000  Uiso   1.00
O1080  O     0.54275   0.17693   0.77282   0.00000  Uiso   1.00
O1081  O     0.95726   0.32307   0.22718   0.00000  Uiso   1.00
O1082  O     0.82307   0.04274   0.77282   0.00000  Uiso   1.00
O1083  O     0.67693   0.45726   0.22718   0.00000  Uiso   1.00
O1084  O     0.95726   0.17693   0.22718   0.00000  Uiso   1.00
O1085  O     0.54275   0.32307   0.77282   0.00000  Uiso   1.00
O1086  O     0.67693   0.04274   0.22718   0.00000  Uiso   1.00
O1087  O     0.82307   0.45726   0.77282   0.00000  Uiso   1.00
O1088  O     0.54275   0.32307   0.22718   0.00000  Uiso   1.00
O1089  O     0.75000   0.46964   0.33683   0.00000  Uiso   1.00
O1090  O     0.95726   0.17693   0.77282   0.00000  Uiso   1.00
O1091  O     0.82307   0.45726   0.22718   0.00000  Uiso   1.00
O1092  O     0.67693   0.04274   0.77282   0.00000  Uiso   1.00
O1093  O     0.63572   0.41578   0.18281   0.00000  Uiso   1.00
O1094  O     0.88911   0.05970   0.78833   0.00000  Uiso   1.00
O1095  O     0.55603   0.10884   0.22071   0.00000  Uiso   1.00
O1096  O     0.91070   0.35776   0.81924   0.00000  Uiso   1.00
O1097  O     0.86427   0.08423   0.18281   0.00000  Uiso   1.00
O1098  O     0.61089   0.44030   0.78833   0.00000  Uiso   1.00
O1099  O     0.94397   0.39116   0.22071   0.00000  Uiso   1.00
O1100  O     0.75000   0.03036   0.66317   0.00000  Uiso   1.00
O1101  O     0.58930   0.14224   0.81924   0.00000  Uiso   1.00
O1102  O     0.63573   0.08423   0.81719   0.00000  Uiso   1.00
O1103  O     0.88912   0.44030   0.21167   0.00000  Uiso   1.00
O1104  O     0.55603   0.39116   0.77928   0.00000  Uiso   1.00
O1105  O     0.91070   0.14224   0.18076   0.00000  Uiso   1.00
O1106  O     0.86428   0.41578   0.81719   0.00000  Uiso   1.00
O1107  O     0.61089   0.05970   0.21166   0.00000  Uiso   1.00
O1108  O     0.94397   0.10884   0.77929   0.00000  Uiso   1.00
O1109  O     0.58929   0.35777   0.18076   0.00000  Uiso   1.00
O1110  O     0.85884   0.19397   0.72071   0.00000  Uiso   1.00
O1111  O     0.53036   0.25000   0.33683   0.00000  Uiso   1.00
O1112  O     0.60777   0.33929   0.31924   0.00000  Uiso   1.00
O1113  O     0.83423   0.38573   0.68281   0.00000  Uiso   1.00
O1114  O     0.69030   0.13911   0.28833   0.00000  Uiso   1.00
O1115  O     0.64116   0.30603   0.72072   0.00000  Uiso   1.00
O1116  O     0.89224   0.16070   0.31924   0.00000  Uiso   1.00
O1117  O     0.66577   0.11427   0.68281   0.00000  Uiso   1.00
O1118  O     0.80970   0.36089   0.28834   0.00000  Uiso   1.00
O1119  O     0.85884   0.30603   0.27929   0.00000  Uiso   1.00
O1120  O     0.60776   0.16070   0.68076   0.00000  Uiso   1.00
O1121  O     0.83423   0.11427   0.31719   0.00000  Uiso   1.00
O1122  O     0.96964   0.25000   0.66317   0.00000  Uiso   1.00
O1123  O     0.69030   0.36089   0.71167   0.00000  Uiso   1.00
O1124  O     0.64116   0.19397   0.27928   0.00000  Uiso   1.00
O1125  O     0.89224   0.33930   0.68076   0.00000  Uiso   1.00
O1126  O     0.66578   0.38572   0.31719   0.00000  Uiso   1.00
O1127  O     0.80970   0.13911   0.71167   0.00000  Uiso   1.00
O1128  O     0.75000   0.03036   0.33683   0.00000  Uiso   1.00
Zn1129 Zn    0.70660   0.00000   0.21760   0.00000  Uiso   1.00
Zn1130 Zn    0.54340   0.25000   0.28240   0.00000  Uiso   1.00
Zn1131 Zn    0.75000   0.45660   0.71760   0.00000  Uiso   1.00
Zn1132 Zn    0.75000   0.04340   0.28240   0.00000  Uiso   1.00
Zn1133 Zn    0.54340   0.25000   0.71760   0.00000  Uiso   1.00
Zn1134 Zn    0.95660   0.25000   0.28240   0.00000  Uiso   1.00
Zn1135 Zn    0.75000   0.04340   0.71760   0.00000  Uiso   1.00
Zn1136 Zn    0.75000   0.45660   0.28240   0.00000  Uiso   1.00
Zn1137 Zn    0.79340  -0.00000   0.78240   0.00000  Uiso   1.00
Zn1138 Zn    0.50000   0.20660   0.21760   0.00000  Uiso   1.00
Zn1139 Zn    0.50000   0.29340   0.78240   0.00000  Uiso   1.00
Zn1140 Zn    0.79340   0.00000   0.21760   0.00000  Uiso   1.00
Zn1141 Zn    0.70660  -0.00000   0.78240   0.00000  Uiso   1.00
Zn1142 Zn    0.50000   0.29340   0.21760   0.00000  Uiso   1.00
Zn1143 Zn    0.50000   0.20660   0.78240   0.00000  Uiso   1.00
Zn1144 Zn    0.95660   0.25000   0.71760   0.00000  Uiso   1.00
C1145  C     0.21880   0.98915   0.04183   0.00000  Uiso   1.00
C1146  C     0.03115   0.73903   0.45819   0.00000  Uiso   1.00
C1147  C     0.34831   0.90169   0.75000   0.00000  Uiso   1.00
C1148  C     0.40207   0.65206   0.25000   0.00000  Uiso   1.00
C1149  C     0.09800   0.84800   0.75000   0.00000  Uiso   1.00
C1150  C     0.34824   0.90176   0.25000   0.00000  Uiso   1.00
C1151  C     0.15169   0.59831   0.75000   0.00000  Uiso   1.00
C1152  C     0.09794   0.65207   0.75000   0.00000  Uiso   1.00
C1153  C     0.40200   0.84800   0.25000   0.00000  Uiso   1.00
C1154  C     0.15176   0.90176   0.75000   0.00000  Uiso   1.00
C1155  C     0.34831   0.59831   0.25000   0.00000  Uiso   1.00
C1156  C     0.40206   0.84793   0.75000   0.00000  Uiso   1.00
C1157  C     0.26085   0.96880   0.54183   0.00000  Uiso   1.00
C1158  C     0.09800   0.65200   0.25000   0.00000  Uiso   1.00
C1159  C     0.34824   0.59824   0.75000   0.00000  Uiso   1.00
C1160  C     0.15169   0.90169   0.25000   0.00000  Uiso   1.00
C1161  C     0.25000   0.50000   0.10249   0.00000  Uiso   1.00
C1162  C     0.25000   0.50000   0.89752   0.00000  Uiso   1.00
C1163  C     0.00000   0.75000   0.10248   0.00000  Uiso   1.00
C1164  C     0.00000   0.75000   0.89752   0.00000  Uiso   1.00
C1165  C     0.00000   0.75000   0.60248   0.00000  Uiso   1.00
C1166  C     0.00000   0.75000   0.39752   0.00000  Uiso   1.00
C1167  C     0.25000   0.50000   0.60249   0.00000  Uiso   1.00
C1168  C     0.26085   0.53120   0.45817   0.00000  Uiso   1.00
C1169  C     0.25000   0.50000   0.39752   0.00000  Uiso   1.00
C1170  C     0.11251   0.94666   0.18242   0.00000  Uiso   1.00
C1171  C     0.07728   0.93891   0.16013   0.00000  Uiso   1.00
C1172  C     0.05523   0.97364   0.15392   0.00000  Uiso   1.00
C1173  C     0.37860   0.56289   0.82778   0.00000  Uiso   1.00
C1174  C     0.41054   0.57534   0.85312   0.00000  Uiso   1.00
C1175  C     0.40184   0.57106   0.89614   0.00000  Uiso   1.00
C1176  C     0.03642   0.59054   0.25002   0.00000  Uiso   1.00
C1177  C     0.49858   0.58125   0.23457   0.00000  Uiso   1.00
C1178  C     0.47580   0.56125   0.26480   0.00000  Uiso   1.00
C1179  C     0.03115   0.76097   0.54181   0.00000  Uiso   1.00
C1180  C     0.39440   0.82644   0.83572   0.00000  Uiso   1.00
C1181  C     0.36189   0.83697   0.86120   0.00000  Uiso   1.00
C1182  C     0.34759   0.80428   0.88385   0.00000  Uiso   1.00
C1183  C     0.38749   0.55335   0.18241   0.00000  Uiso   1.00
C1184  C     0.42272   0.56111   0.16013   0.00000  Uiso   1.00
C1185  C     0.44476   0.52638   0.15390   0.00000  Uiso   1.00
C1186  C     0.12140   0.93711   0.82778   0.00000  Uiso   1.00
C1187  C     0.08946   0.92466   0.85312   0.00000  Uiso   1.00
C1188  C     0.09816   0.92894   0.89614   0.00000  Uiso   1.00
C1189  C     0.46358   0.90945   0.25003   0.00000  Uiso   1.00
C1190  C     0.46885   0.76097   0.45819   0.00000  Uiso   1.00
C1191  C     0.00142   0.91875   0.23458   0.00000  Uiso   1.00
C1192  C     0.02422   0.93871   0.26482   0.00000  Uiso   1.00
C1193  C     0.10561   0.67357   0.83572   0.00000  Uiso   1.00
C1194  C     0.13810   0.66302   0.86122   0.00000  Uiso   1.00
C1195  C     0.15240   0.69572   0.88387   0.00000  Uiso   1.00
C1196  C     0.11251   0.55334   0.81759   0.00000  Uiso   1.00
C1197  C     0.07728   0.56110   0.83987   0.00000  Uiso   1.00
C1198  C     0.05524   0.52637   0.84610   0.00000  Uiso   1.00
C1199  C     0.37860   0.93711   0.17222   0.00000  Uiso   1.00
C1200  C     0.41054   0.92466   0.14689   0.00000  Uiso   1.00
C1201  C     0.23915   0.53120   0.54183   0.00000  Uiso   1.00
C1202  C     0.40184   0.92894   0.10386   0.00000  Uiso   1.00
C1203  C     0.03642   0.90947   0.74998   0.00000  Uiso   1.00
C1204  C     0.49858   0.91874   0.76542   0.00000  Uiso   1.00
C1205  C     0.47580   0.93874   0.73520   0.00000  Uiso   1.00
C1206  C     0.39439   0.67357   0.16429   0.00000  Uiso   1.00
C1207  C     0.36190   0.66303   0.13878   0.00000  Uiso   1.00
C1208  C     0.34759   0.69572   0.11614   0.00000  Uiso   1.00
C1209  C     0.38749   0.94666   0.81759   0.00000  Uiso   1.00
C1210  C     0.42272   0.93890   0.83987   0.00000  Uiso   1.00
C1211  C     0.44476   0.97363   0.84610   0.00000  Uiso   1.00
C1212  C     0.23915   0.96880   0.45817   0.00000  Uiso   1.00
C1213  C     0.12141   0.56289   0.17221   0.00000  Uiso   1.00
C1214  C     0.08947   0.57537   0.14688   0.00000  Uiso   1.00
C1215  C     0.09817   0.57109   0.10385   0.00000  Uiso   1.00
C1216  C     0.46358   0.59054   0.74998   0.00000  Uiso   1.00
C1217  C     0.00142   0.58125   0.76543   0.00000  Uiso   1.00
C1218  C     0.02420   0.56126   0.73520   0.00000  Uiso   1.00
C1219  C     0.10560   0.82645   0.16428   0.00000  Uiso   1.00
C1220  C     0.13809   0.83699   0.13878   0.00000  Uiso   1.00
C1221  C     0.15239   0.80430   0.11612   0.00000  Uiso   1.00
C1222  C     0.34055   0.71358   0.75003   0.00000  Uiso   1.00
C1223  C     0.21871   0.98944   0.08213   0.00000  Uiso   1.00
C1224  C     0.33123   0.75141   0.73456   0.00000  Uiso   1.00
C1225  C     0.31126   0.77420   0.76480   0.00000  Uiso   1.00
C1226  C     0.07645   0.85559   0.33572   0.00000  Uiso   1.00
C1227  C     0.08699   0.88808   0.36122   0.00000  Uiso   1.00
C1228  C     0.05430   0.90238   0.38388   0.00000  Uiso   1.00
C1229  C     0.30334   0.86251   0.68241   0.00000  Uiso   1.00
C1230  C     0.31110   0.82728   0.66013   0.00000  Uiso   1.00
C1231  C     0.27637   0.80524   0.65390   0.00000  Uiso   1.00
C1232  C     0.18711   0.62860   0.32778   0.00000  Uiso   1.00
C1233  C     0.17466   0.66054   0.35311   0.00000  Uiso   1.00
C1234  C     0.28129   0.98944   0.91787   0.00000  Uiso   1.00
C1235  C     0.17894   0.65184   0.39614   0.00000  Uiso   1.00
C1236  C     0.15946   0.78642   0.75003   0.00000  Uiso   1.00
C1237  C     0.16875   0.74858   0.73457   0.00000  Uiso   1.00
C1238  C     0.18875   0.72580   0.76480   0.00000  Uiso   1.00
C1239  C     0.42357   0.64439   0.33572   0.00000  Uiso   1.00
C1240  C     0.41303   0.61190   0.36122   0.00000  Uiso   1.00
C1241  C     0.44572   0.59759   0.38386   0.00000  Uiso   1.00
C1242  C     0.19666   0.63749   0.68241   0.00000  Uiso   1.00
C1243  C     0.18890   0.67272   0.66013   0.00000  Uiso   1.00
C1244  C     0.22363   0.69476   0.65390   0.00000  Uiso   1.00
C1245  C     0.01070   0.71876   0.08212   0.00000  Uiso   1.00
C1246  C     0.31289   0.87141   0.32778   0.00000  Uiso   1.00
C1247  C     0.32535   0.83946   0.35312   0.00000  Uiso   1.00
C1248  C     0.32107   0.84816   0.39615   0.00000  Uiso   1.00
C1249  C     0.34054   0.78642   0.24998   0.00000  Uiso   1.00
C1250  C     0.33125   0.74858   0.26543   0.00000  Uiso   1.00
C1251  C     0.31125   0.72580   0.23520   0.00000  Uiso   1.00
C1252  C     0.07644   0.64439   0.66428   0.00000  Uiso   1.00
C1253  C     0.08698   0.61190   0.63878   0.00000  Uiso   1.00
C1254  C     0.05428   0.59759   0.61614   0.00000  Uiso   1.00
C1255  C     0.30335   0.63749   0.31759   0.00000  Uiso   1.00
C1256  C     0.28120   0.98915   0.95817   0.00000  Uiso   1.00
C1257  C     0.01070   0.78124   0.91788   0.00000  Uiso   1.00
C1258  C     0.31110   0.67272   0.33987   0.00000  Uiso   1.00
C1259  C     0.27638   0.69476   0.34611   0.00000  Uiso   1.00
C1260  C     0.18711   0.87140   0.67222   0.00000  Uiso   1.00
C1261  C     0.17466   0.83946   0.64689   0.00000  Uiso   1.00
C1262  C     0.17894   0.84816   0.60386   0.00000  Uiso   1.00
C1263  C     0.15946   0.71358   0.24997   0.00000  Uiso   1.00
C1264  C     0.16874   0.75142   0.26542   0.00000  Uiso   1.00
C1265  C     0.18873   0.77421   0.23519   0.00000  Uiso   1.00
C1266  C     0.42356   0.85561   0.66428   0.00000  Uiso   1.00
C1267  C     0.41302   0.88809   0.63877   0.00000  Uiso   1.00
C1268  C     0.28129   0.51056   0.08213   0.00000  Uiso   1.00
C1269  C     0.44571   0.90240   0.61612   0.00000  Uiso   1.00
C1270  C     0.19666   0.86250   0.31758   0.00000  Uiso   1.00
C1271  C     0.18891   0.82727   0.33985   0.00000  Uiso   1.00
C1272  C     0.22364   0.80523   0.34608   0.00000  Uiso   1.00
C1273  C     0.31289   0.62860   0.67222   0.00000  Uiso   1.00
C1274  C     0.32534   0.66054   0.64689   0.00000  Uiso   1.00
C1275  C     0.32106   0.65184   0.60386   0.00000  Uiso   1.00
C1276  C     0.21871   0.51056   0.91787   0.00000  Uiso   1.00
C1277  C     0.48930   0.78124   0.08212   0.00000  Uiso   1.00
C1278  C     0.48930   0.71876   0.91788   0.00000  Uiso   1.00
C1279  C     0.46876   0.73930   0.58212   0.00000  Uiso   1.00
C1280  C     0.03124   0.73930   0.41788   0.00000  Uiso   1.00
C1281  C     0.26056   0.96871   0.58213   0.00000  Uiso   1.00
C1282  C     0.26056   0.53129   0.41787   0.00000  Uiso   1.00
C1283  C     0.03124   0.76070   0.58212   0.00000  Uiso   1.00
C1284  C     0.01097   0.71885   0.04181   0.00000  Uiso   1.00
C1285  C     0.46876   0.76070   0.41788   0.00000  Uiso   1.00
C1286  C     0.23944   0.53129   0.58213   0.00000  Uiso   1.00
C1287  C     0.23944   0.96871   0.41787   0.00000  Uiso   1.00
C1288  C     0.25000   0.50000   0.02133   0.00000  Uiso   1.00
C1289  C     0.25000   0.50000   0.97867   0.00000  Uiso   1.00
C1290  C     0.00000   0.75000   0.02132   0.00000  Uiso   1.00
C1291  C     0.00000   0.75000   0.97868   0.00000  Uiso   1.00
C1292  C     0.00000   0.75000   0.52132   0.00000  Uiso   1.00
C1293  C     0.00000   0.75000   0.47868   0.00000  Uiso   1.00
C1294  C     0.25000   0.50000   0.52133   0.00000  Uiso   1.00
C1295  C     0.01097   0.78115   0.95819   0.00000  Uiso   1.00
C1296  C     0.25000   0.50000   0.47867   0.00000  Uiso   1.00
C1297  C     0.25000   0.50000   0.35518   0.00000  Uiso   1.00
C1298  C     0.25000   0.50000   0.64482   0.00000  Uiso   1.00
C1299  C     0.00000   0.75000   0.35518   0.00000  Uiso   1.00
C1300  C     0.00000   0.75000   0.64482   0.00000  Uiso   1.00
C1301  C     0.00000   0.75000   0.85518   0.00000  Uiso   1.00
C1302  C     0.00000   0.75000   0.14482   0.00000  Uiso   1.00
C1303  C     0.25000   0.50000   0.85518   0.00000  Uiso   1.00
C1304  C     0.25000   0.50000   0.14482   0.00000  Uiso   1.00
C1305  C     0.17991   0.57009   0.25000   0.00000  Uiso   1.00
C1306  C     0.28120   0.51085   0.04183   0.00000  Uiso   1.00
C1307  C     0.32012   0.92988   0.75000   0.00000  Uiso   1.00
C1308  C     0.43003   0.68003   0.25000   0.00000  Uiso   1.00
C1309  C     0.07000   0.82001   0.75000   0.00000  Uiso   1.00
C1310  C     0.32009   0.92991   0.25000   0.00000  Uiso   1.00
C1311  C     0.17988   0.57012   0.75000   0.00000  Uiso   1.00
C1312  C     0.06997   0.81997   0.25000   0.00000  Uiso   1.00
C1313  C     0.43000   0.67999   0.75000   0.00000  Uiso   1.00
C1314  C     0.17991   0.92991   0.75000   0.00000  Uiso   1.00
C1315  C     0.32012   0.57012   0.25000   0.00000  Uiso   1.00
C1316  C     0.43003   0.81997   0.75000   0.00000  Uiso   1.00
C1317  C     0.21880   0.51085   0.95817   0.00000  Uiso   1.00
C1318  C     0.07000   0.68000   0.25000   0.00000  Uiso   1.00
C1319  C     0.32009   0.57009   0.75000   0.00000  Uiso   1.00
C1320  C     0.17988   0.92988   0.25000   0.00000  Uiso   1.00
C1321  C     0.06997   0.68003   0.75000   0.00000  Uiso   1.00
C1322  C     0.43000   0.82000   0.25000   0.00000  Uiso   1.00
C1323  C     0.13023   0.89588   0.21646   0.00000  Uiso   1.00
C1324  C     0.38182   0.59197   0.76900   0.00000  Uiso   1.00
C1325  C     0.09030   0.61735   0.23470   0.00000  Uiso   1.00
C1326  C     0.39375   0.86650   0.78456   0.00000  Uiso   1.00
C1327  C     0.36976   0.60413   0.21646   0.00000  Uiso   1.00
C1328  C     0.48903   0.78115   0.04181   0.00000  Uiso   1.00
C1329  C     0.11818   0.90803   0.76900   0.00000  Uiso   1.00
C1330  C     0.40970   0.88265   0.23470   0.00000  Uiso   1.00
C1331  C     0.10625   0.63350   0.78456   0.00000  Uiso   1.00
C1332  C     0.13024   0.60412   0.78354   0.00000  Uiso   1.00
C1333  C     0.38182   0.90803   0.23100   0.00000  Uiso   1.00
C1334  C     0.09030   0.88265   0.76530   0.00000  Uiso   1.00
C1335  C     0.39375   0.63350   0.21544   0.00000  Uiso   1.00
C1336  C     0.36976   0.89588   0.78354   0.00000  Uiso   1.00
C1337  C     0.11818   0.59197   0.23100   0.00000  Uiso   1.00
C1338  C     0.40970   0.61735   0.76530   0.00000  Uiso   1.00
C1339  C     0.48903   0.71885   0.95819   0.00000  Uiso   1.00
C1340  C     0.10625   0.86650   0.21544   0.00000  Uiso   1.00
C1341  C     0.36735   0.65970   0.73470   0.00000  Uiso   1.00
C1342  C     0.11650   0.85625   0.28456   0.00000  Uiso   1.00
C1343  C     0.35412   0.88024   0.71646   0.00000  Uiso   1.00
C1344  C     0.15804   0.63182   0.26900   0.00000  Uiso   1.00
C1345  C     0.13265   0.84030   0.73470   0.00000  Uiso   1.00
C1346  C     0.38350   0.64375   0.28456   0.00000  Uiso   1.00
C1347  C     0.14588   0.61976   0.71646   0.00000  Uiso   1.00
C1348  C     0.34197   0.86818   0.26900   0.00000  Uiso   1.00
C1349  C     0.36735   0.84030   0.26530   0.00000  Uiso   1.00
C1350  C     0.46885   0.73903   0.54181   0.00000  Uiso   1.00
C1351  C     0.11650   0.64375   0.71544   0.00000  Uiso   1.00
C1352  C     0.35413   0.61976   0.28354   0.00000  Uiso   1.00
C1353  C     0.15803   0.86818   0.73100   0.00000  Uiso   1.00
C1354  C     0.13266   0.65970   0.26530   0.00000  Uiso   1.00
C1355  C     0.38350   0.85625   0.71544   0.00000  Uiso   1.00
C1356  C     0.14588   0.88023   0.28354   0.00000  Uiso   1.00
C1357  C     0.34197   0.63182   0.73100   0.00000  Uiso   1.00
C1358  C     0.09794   0.84794   0.25000   0.00000  Uiso   1.00
C1359  C     0.40200   0.65200   0.75000   0.00000  Uiso   1.00
C1360  C     0.15176   0.59824   0.25000   0.00000  Uiso   1.00
H1361  H     0.19462   0.98002   0.02675   0.00000  Uiso   1.00
H1362  H     0.05530   0.72983   0.47328   0.00000  Uiso   1.00
H1363  H     0.37763   0.91236   0.09608   0.00000  Uiso   1.00
H1364  H     0.42537   0.91951   0.08632   0.00000  Uiso   1.00
H1365  H     0.39641   0.95794   0.09677   0.00000  Uiso   1.00
H1366  H     0.03341   0.89179   0.72389   0.00000  Uiso   1.00
H1367  H     0.05038   0.93526   0.74165   0.00000  Uiso   1.00
H1368  H     0.48435   0.89323   0.77381   0.00000  Uiso   1.00
H1369  H     0.00131   0.93618   0.79160   0.00000  Uiso   1.00
H1370  H     0.48879   0.96507   0.72750   0.00000  Uiso   1.00
H1371  H     0.44827   0.94425   0.74708   0.00000  Uiso   1.00
H1372  H     0.47285   0.92188   0.70869   0.00000  Uiso   1.00
H1373  H     0.26998   0.94462   0.52675   0.00000  Uiso   1.00
H1374  H     0.41526   0.68695   0.14582   0.00000  Uiso   1.00
H1375  H     0.38598   0.69420   0.18625   0.00000  Uiso   1.00
H1376  H     0.37029   0.64145   0.11803   0.00000  Uiso   1.00
H1377  H     0.33961   0.65220   0.15725   0.00000  Uiso   1.00
H1378  H     0.33883   0.71760   0.13631   0.00000  Uiso   1.00
H1379  H     0.32384   0.68731   0.09835   0.00000  Uiso   1.00
H1380  H     0.36903   0.70648   0.09652   0.00000  Uiso   1.00
H1381  H     0.37264   0.96875   0.83284   0.00000  Uiso   1.00
H1382  H     0.39396   0.95732   0.78806   0.00000  Uiso   1.00
H1383  H     0.41613   0.92663   0.86848   0.00000  Uiso   1.00
H1384  H     0.26998   0.55538   0.47325   0.00000  Uiso   1.00
H1385  H     0.43970   0.91947   0.82325   0.00000  Uiso   1.00
H1386  H     0.45095   0.98684   0.81787   0.00000  Uiso   1.00
H1387  H     0.47083   0.96691   0.86075   0.00000  Uiso   1.00
H1388  H     0.42935   0.99287   0.86468   0.00000  Uiso   1.00
H1389  H     0.13011   0.53545   0.16240   0.00000  Uiso   1.00
H1390  H     0.14533   0.58120   0.16768   0.00000  Uiso   1.00
H1391  H     0.06481   0.55914   0.15398   0.00000  Uiso   1.00
H1392  H     0.08359   0.60452   0.15261   0.00000  Uiso   1.00
H1393  H     0.12239   0.58765   0.09608   0.00000  Uiso   1.00
H1394  H     0.07464   0.58054   0.08632   0.00000  Uiso   1.00
H1395  H     0.05530   0.77018   0.52672   0.00000  Uiso   1.00
H1396  H     0.10357   0.54209   0.09677   0.00000  Uiso   1.00
H1397  H     0.46660   0.60824   0.72390   0.00000  Uiso   1.00
H1398  H     0.44962   0.56475   0.74163   0.00000  Uiso   1.00
H1399  H     0.01565   0.60674   0.77384   0.00000  Uiso   1.00
H1400  H     0.49867   0.56379   0.79159   0.00000  Uiso   1.00
H1401  H     0.01120   0.53494   0.72747   0.00000  Uiso   1.00
H1402  H     0.05172   0.55572   0.74710   0.00000  Uiso   1.00
H1403  H     0.02717   0.57814   0.70871   0.00000  Uiso   1.00
H1404  H     0.08473   0.81306   0.14582   0.00000  Uiso   1.00
H1405  H     0.11402   0.80581   0.18624   0.00000  Uiso   1.00
H1406  H     0.44470   0.77017   0.47328   0.00000  Uiso   1.00
H1407  H     0.12969   0.85857   0.11803   0.00000  Uiso   1.00
H1408  H     0.16038   0.84782   0.15724   0.00000  Uiso   1.00
H1409  H     0.16115   0.78242   0.13629   0.00000  Uiso   1.00
H1410  H     0.17614   0.81272   0.09833   0.00000  Uiso   1.00
H1411  H     0.13095   0.79355   0.09651   0.00000  Uiso   1.00
H1412  H     0.35826   0.71662   0.77609   0.00000  Uiso   1.00
H1413  H     0.31478   0.69962   0.75841   0.00000  Uiso   1.00
H1414  H     0.35671   0.76565   0.72612   0.00000  Uiso   1.00
H1415  H     0.31375   0.74864   0.70842   0.00000  Uiso   1.00
H1416  H     0.28497   0.76118   0.77259   0.00000  Uiso   1.00
H1417  H     0.23002   0.55538   0.52675   0.00000  Uiso   1.00
H1418  H     0.30568   0.80170   0.75289   0.00000  Uiso   1.00
H1419  H     0.32817   0.77721   0.79126   0.00000  Uiso   1.00
H1420  H     0.06308   0.83471   0.35419   0.00000  Uiso   1.00
H1421  H     0.05581   0.86399   0.31377   0.00000  Uiso   1.00
H1422  H     0.10858   0.87969   0.38197   0.00000  Uiso   1.00
H1423  H     0.09781   0.91037   0.34275   0.00000  Uiso   1.00
H1424  H     0.03242   0.91114   0.36372   0.00000  Uiso   1.00
H1425  H     0.06271   0.92612   0.40167   0.00000  Uiso   1.00
H1426  H     0.04356   0.88093   0.40350   0.00000  Uiso   1.00
H1427  H     0.28125   0.87736   0.66715   0.00000  Uiso   1.00
H1428  H     0.23002   0.94462   0.47325   0.00000  Uiso   1.00
H1429  H     0.29268   0.85604   0.71194   0.00000  Uiso   1.00
H1430  H     0.32337   0.83387   0.63152   0.00000  Uiso   1.00
H1431  H     0.33053   0.81030   0.67675   0.00000  Uiso   1.00
H1432  H     0.26316   0.79905   0.68212   0.00000  Uiso   1.00
H1433  H     0.28309   0.77917   0.63924   0.00000  Uiso   1.00
H1434  H     0.25713   0.82065   0.63531   0.00000  Uiso   1.00
H1435  H     0.21455   0.61989   0.33759   0.00000  Uiso   1.00
H1436  H     0.16880   0.60469   0.33232   0.00000  Uiso   1.00
H1437  H     0.19089   0.68519   0.34602   0.00000  Uiso   1.00
H1438  H     0.14551   0.66643   0.34739   0.00000  Uiso   1.00
H1439  H     0.19435   0.98090   0.09734   0.00000  Uiso   1.00
H1440  H     0.16236   0.62763   0.40392   0.00000  Uiso   1.00
H1441  H     0.16951   0.67537   0.41368   0.00000  Uiso   1.00
H1442  H     0.20793   0.64642   0.40323   0.00000  Uiso   1.00
H1443  H     0.14177   0.78340   0.77611   0.00000  Uiso   1.00
H1444  H     0.18525   0.80038   0.75837   0.00000  Uiso   1.00
H1445  H     0.14326   0.73435   0.72616   0.00000  Uiso   1.00
H1446  H     0.18621   0.75133   0.70841   0.00000  Uiso   1.00
H1447  H     0.21506   0.73880   0.77253   0.00000  Uiso   1.00
H1448  H     0.19428   0.69828   0.75291   0.00000  Uiso   1.00
H1449  H     0.17187   0.72283   0.79129   0.00000  Uiso   1.00
H1450  H     0.30565   0.98090   0.90266   0.00000  Uiso   1.00
H1451  H     0.43695   0.66526   0.35418   0.00000  Uiso   1.00
H1452  H     0.44420   0.63597   0.31375   0.00000  Uiso   1.00
H1453  H     0.39145   0.62029   0.38197   0.00000  Uiso   1.00
H1454  H     0.40220   0.58961   0.34275   0.00000  Uiso   1.00
H1455  H     0.46760   0.58883   0.36369   0.00000  Uiso   1.00
H1456  H     0.43731   0.57385   0.40166   0.00000  Uiso   1.00
H1457  H     0.45648   0.61903   0.40348   0.00000  Uiso   1.00
H1458  H     0.21875   0.62264   0.66715   0.00000  Uiso   1.00
H1459  H     0.20732   0.64396   0.71194   0.00000  Uiso   1.00
H1460  H     0.17663   0.66613   0.63152   0.00000  Uiso   1.00
H1461  H     0.01935   0.69445   0.09732   0.00000  Uiso   1.00
H1462  H     0.16947   0.68970   0.67675   0.00000  Uiso   1.00
H1463  H     0.23684   0.70095   0.68213   0.00000  Uiso   1.00
H1464  H     0.21691   0.72083   0.63925   0.00000  Uiso   1.00
H1465  H     0.24287   0.67935   0.63532   0.00000  Uiso   1.00
H1466  H     0.28545   0.88011   0.33760   0.00000  Uiso   1.00
H1467  H     0.33120   0.89532   0.33232   0.00000  Uiso   1.00
H1468  H     0.30913   0.81481   0.34602   0.00000  Uiso   1.00
H1469  H     0.35450   0.83358   0.34739   0.00000  Uiso   1.00
H1470  H     0.33765   0.87238   0.40392   0.00000  Uiso   1.00
H1471  H     0.33051   0.82464   0.41368   0.00000  Uiso   1.00
H1472  H     0.30538   0.98002   0.97325   0.00000  Uiso   1.00
H1473  H     0.01935   0.80555   0.90268   0.00000  Uiso   1.00
H1474  H     0.29208   0.85358   0.40323   0.00000  Uiso   1.00
H1475  H     0.35823   0.78340   0.22390   0.00000  Uiso   1.00
H1476  H     0.31475   0.80038   0.24163   0.00000  Uiso   1.00
H1477  H     0.35674   0.73435   0.27384   0.00000  Uiso   1.00
H1478  H     0.31380   0.75133   0.29160   0.00000  Uiso   1.00
H1479  H     0.28494   0.73880   0.22748   0.00000  Uiso   1.00
H1480  H     0.30571   0.69829   0.24710   0.00000  Uiso   1.00
H1481  H     0.32813   0.72283   0.20871   0.00000  Uiso   1.00
H1482  H     0.06305   0.66526   0.64582   0.00000  Uiso   1.00
H1483  H     0.05580   0.63598   0.68625   0.00000  Uiso   1.00
H1484  H     0.30565   0.51910   0.09734   0.00000  Uiso   1.00
H1485  H     0.10856   0.62029   0.61803   0.00000  Uiso   1.00
H1486  H     0.09780   0.58961   0.65725   0.00000  Uiso   1.00
H1487  H     0.03241   0.58883   0.63630   0.00000  Uiso   1.00
H1488  H     0.06270   0.57385   0.59835   0.00000  Uiso   1.00
H1489  H     0.04353   0.61904   0.59652   0.00000  Uiso   1.00
H1490  H     0.28125   0.62264   0.33285   0.00000  Uiso   1.00
H1491  H     0.29268   0.64396   0.28806   0.00000  Uiso   1.00
H1492  H     0.32337   0.66613   0.36848   0.00000  Uiso   1.00
H1493  H     0.33054   0.68970   0.32325   0.00000  Uiso   1.00
H1494  H     0.26316   0.70095   0.31788   0.00000  Uiso   1.00
H1495  H     0.19435   0.51910   0.90266   0.00000  Uiso   1.00
H1496  H     0.28309   0.72083   0.36076   0.00000  Uiso   1.00
H1497  H     0.25713   0.67935   0.36469   0.00000  Uiso   1.00
H1498  H     0.21455   0.88011   0.66241   0.00000  Uiso   1.00
H1499  H     0.16880   0.89532   0.66768   0.00000  Uiso   1.00
H1500  H     0.19089   0.81481   0.65398   0.00000  Uiso   1.00
H1501  H     0.14551   0.83357   0.65261   0.00000  Uiso   1.00
H1502  H     0.16235   0.87238   0.59608   0.00000  Uiso   1.00
H1503  H     0.16950   0.82463   0.58632   0.00000  Uiso   1.00
H1504  H     0.20793   0.85359   0.59677   0.00000  Uiso   1.00
H1505  H     0.14178   0.71659   0.22389   0.00000  Uiso   1.00
H1506  H     0.48065   0.80555   0.09732   0.00000  Uiso   1.00
H1507  H     0.18526   0.69962   0.24164   0.00000  Uiso   1.00
H1508  H     0.14324   0.76565   0.27382   0.00000  Uiso   1.00
H1509  H     0.18619   0.74869   0.29159   0.00000  Uiso   1.00
H1510  H     0.21506   0.76121   0.22747   0.00000  Uiso   1.00
H1511  H     0.19426   0.80172   0.24708   0.00000  Uiso   1.00
H1512  H     0.17186   0.77716   0.20869   0.00000  Uiso   1.00
H1513  H     0.43695   0.83474   0.64583   0.00000  Uiso   1.00
H1514  H     0.44419   0.86403   0.68625   0.00000  Uiso   1.00
H1515  H     0.39144   0.87969   0.61802   0.00000  Uiso   1.00
H1516  H     0.40218   0.91038   0.65724   0.00000  Uiso   1.00
H1517  H     0.48065   0.69445   0.90268   0.00000  Uiso   1.00
H1518  H     0.46758   0.91117   0.63629   0.00000  Uiso   1.00
H1519  H     0.43729   0.92614   0.59832   0.00000  Uiso   1.00
H1520  H     0.45647   0.88095   0.59651   0.00000  Uiso   1.00
H1521  H     0.21876   0.87735   0.33283   0.00000  Uiso   1.00
H1522  H     0.20733   0.85604   0.28804   0.00000  Uiso   1.00
H1523  H     0.17665   0.83385   0.36847   0.00000  Uiso   1.00
H1524  H     0.16948   0.81029   0.32324   0.00000  Uiso   1.00
H1525  H     0.23686   0.79905   0.31786   0.00000  Uiso   1.00
H1526  H     0.21693   0.77916   0.36073   0.00000  Uiso   1.00
H1527  H     0.24289   0.82064   0.36467   0.00000  Uiso   1.00
H1528  H     0.44445   0.73065   0.59732   0.00000  Uiso   1.00
H1529  H     0.28545   0.61989   0.66241   0.00000  Uiso   1.00
H1530  H     0.33120   0.60469   0.66768   0.00000  Uiso   1.00
H1531  H     0.30911   0.68519   0.65398   0.00000  Uiso   1.00
H1532  H     0.35449   0.66643   0.65261   0.00000  Uiso   1.00
H1533  H     0.33764   0.62762   0.59608   0.00000  Uiso   1.00
H1534  H     0.33049   0.67537   0.58632   0.00000  Uiso   1.00
H1535  H     0.29207   0.64641   0.59677   0.00000  Uiso   1.00
H1536  H     0.05555   0.73065   0.40268   0.00000  Uiso   1.00
H1537  H     0.26910   0.94435   0.59734   0.00000  Uiso   1.00
H1538  H     0.26910   0.55565   0.40266   0.00000  Uiso   1.00
H1539  H     0.05555   0.76935   0.59732   0.00000  Uiso   1.00
H1540  H     0.02018   0.69470   0.02672   0.00000  Uiso   1.00
H1541  H     0.44445   0.76935   0.40268   0.00000  Uiso   1.00
H1542  H     0.23090   0.55565   0.59734   0.00000  Uiso   1.00
H1543  H     0.23090   0.94435   0.40266   0.00000  Uiso   1.00
H1544  H     0.12736   0.96876   0.16717   0.00000  Uiso   1.00
H1545  H     0.10603   0.95732   0.21196   0.00000  Uiso   1.00
H1546  H     0.08387   0.92667   0.13151   0.00000  Uiso   1.00
H1547  H     0.06030   0.91947   0.17674   0.00000  Uiso   1.00
H1548  H     0.04902   0.98683   0.18216   0.00000  Uiso   1.00
H1549  H     0.02918   0.96694   0.13924   0.00000  Uiso   1.00
H1550  H     0.07065   0.99291   0.13537   0.00000  Uiso   1.00
H1551  H     0.02018   0.80530   0.97328   0.00000  Uiso   1.00
H1552  H     0.36989   0.53545   0.83759   0.00000  Uiso   1.00
H1553  H     0.35468   0.58120   0.83232   0.00000  Uiso   1.00
H1554  H     0.43519   0.55911   0.84602   0.00000  Uiso   1.00
H1555  H     0.41643   0.60449   0.84739   0.00000  Uiso   1.00
H1556  H     0.37762   0.58764   0.90392   0.00000  Uiso   1.00
H1557  H     0.42537   0.58050   0.91368   0.00000  Uiso   1.00
H1558  H     0.39642   0.54207   0.90323   0.00000  Uiso   1.00
H1559  H     0.03340   0.60823   0.27610   0.00000  Uiso   1.00
H1560  H     0.05038   0.56475   0.25836   0.00000  Uiso   1.00
H1561  H     0.48435   0.60674   0.22616   0.00000  Uiso   1.00
H1562  H     0.30538   0.51998   0.02675   0.00000  Uiso   1.00
H1563  H     0.00133   0.56380   0.20840   0.00000  Uiso   1.00
H1564  H     0.48880   0.53494   0.27252   0.00000  Uiso   1.00
H1565  H     0.44829   0.55571   0.25290   0.00000  Uiso   1.00
H1566  H     0.47283   0.57813   0.29129   0.00000  Uiso   1.00
H1567  H     0.41526   0.81307   0.85420   0.00000  Uiso   1.00
H1568  H     0.38600   0.80579   0.81376   0.00000  Uiso   1.00
H1569  H     0.37027   0.85856   0.88195   0.00000  Uiso   1.00
H1570  H     0.33961   0.84779   0.84272   0.00000  Uiso   1.00
H1571  H     0.33884   0.78239   0.86368   0.00000  Uiso   1.00
H1572  H     0.32383   0.81268   0.90163   0.00000  Uiso   1.00
H1573  H     0.19462   0.51998   0.97325   0.00000  Uiso   1.00
H1574  H     0.36903   0.79353   0.90348   0.00000  Uiso   1.00
H1575  H     0.37264   0.53125   0.16715   0.00000  Uiso   1.00
H1576  H     0.39395   0.54268   0.21194   0.00000  Uiso   1.00
H1577  H     0.41613   0.57337   0.13152   0.00000  Uiso   1.00
H1578  H     0.43970   0.58054   0.17675   0.00000  Uiso   1.00
H1579  H     0.45095   0.51316   0.18212   0.00000  Uiso   1.00
H1580  H     0.47083   0.53310   0.13925   0.00000  Uiso   1.00
H1581  H     0.42935   0.50713   0.13531   0.00000  Uiso   1.00
H1582  H     0.13011   0.96455   0.83759   0.00000  Uiso   1.00
H1583  H     0.14531   0.91880   0.83232   0.00000  Uiso   1.00
H1584  H     0.47983   0.80530   0.02672   0.00000  Uiso   1.00
H1585  H     0.06481   0.94089   0.84602   0.00000  Uiso   1.00
H1586  H     0.08357   0.89551   0.84739   0.00000  Uiso   1.00
H1587  H     0.12237   0.91236   0.90392   0.00000  Uiso   1.00
H1588  H     0.07463   0.91950   0.91368   0.00000  Uiso   1.00
H1589  H     0.10358   0.95793   0.90323   0.00000  Uiso   1.00
H1590  H     0.46661   0.89174   0.27610   0.00000  Uiso   1.00
H1591  H     0.44962   0.93523   0.25840   0.00000  Uiso   1.00
H1592  H     0.01565   0.89326   0.22613   0.00000  Uiso   1.00
H1593  H     0.49867   0.93623   0.20843   0.00000  Uiso   1.00
H1594  H     0.01122   0.96502   0.27258   0.00000  Uiso   1.00
H1595  H     0.47983   0.69470   0.97328   0.00000  Uiso   1.00
H1596  H     0.05173   0.94425   0.25293   0.00000  Uiso   1.00
H1597  H     0.02719   0.92180   0.29129   0.00000  Uiso   1.00
H1598  H     0.08474   0.68695   0.85418   0.00000  Uiso   1.00
H1599  H     0.11402   0.69420   0.81375   0.00000  Uiso   1.00
H1600  H     0.12970   0.64144   0.88197   0.00000  Uiso   1.00
H1601  H     0.16039   0.65219   0.84275   0.00000  Uiso   1.00
H1602  H     0.16117   0.71759   0.86370   0.00000  Uiso   1.00
H1603  H     0.17615   0.68730   0.90166   0.00000  Uiso   1.00
H1604  H     0.13096   0.70647   0.90348   0.00000  Uiso   1.00
H1605  H     0.12736   0.53125   0.83285   0.00000  Uiso   1.00
H1606  H     0.44470   0.72982   0.52672   0.00000  Uiso   1.00
H1607  H     0.10604   0.54268   0.78806   0.00000  Uiso   1.00
H1608  H     0.08387   0.57337   0.86848   0.00000  Uiso   1.00
H1609  H     0.06030   0.58054   0.82325   0.00000  Uiso   1.00
H1610  H     0.04905   0.51316   0.81788   0.00000  Uiso   1.00
H1611  H     0.02917   0.53309   0.86075   0.00000  Uiso   1.00
H1612  H     0.07065   0.50713   0.86468   0.00000  Uiso   1.00
H1613  H     0.36989   0.96456   0.16241   0.00000  Uiso   1.00
H1614  H     0.35469   0.91880   0.16768   0.00000  Uiso   1.00
H1615  H     0.43519   0.94090   0.15398   0.00000  Uiso   1.00
H1616  H     0.41643   0.89551   0.15261   0.00000  Uiso   1.00
O1617  O     0.25000   0.50000   0.25000   0.00000  Uiso   1.00
O1618  O     0.25000   0.96964   0.66317   0.00000  Uiso   1.00
O1619  O     0.46964   0.75000   0.33683   0.00000  Uiso   1.00
O1620  O     0.03036   0.75000   0.66317   0.00000  Uiso   1.00
O1621  O     0.00000   0.71964   0.83683   0.00000  Uiso   1.00
O1622  O     0.00000   0.78036   0.16317   0.00000  Uiso   1.00
O1623  O     0.28036   0.50000   0.83683   0.00000  Uiso   1.00
O1624  O     0.21964   0.50000   0.16317   0.00000  Uiso   1.00
O1625  O     0.00000   0.78036   0.83683   0.00000  Uiso   1.00
O1626  O     0.00000   0.71964   0.16317   0.00000  Uiso   1.00
O1627  O     0.21964   0.50000   0.83683   0.00000  Uiso   1.00
O1628  O     0.25000   0.50000   0.75000   0.00000  Uiso   1.00
O1629  O     0.28036   0.50000   0.16317   0.00000  Uiso   1.00
O1630  O     0.20726   0.57307   0.27282   0.00000  Uiso   1.00
O1631  O     0.29275   0.92693   0.72718   0.00000  Uiso   1.00
O1632  O     0.42693   0.70725   0.27282   0.00000  Uiso   1.00
O1633  O     0.07307   0.79275   0.72718   0.00000  Uiso   1.00
O1634  O     0.29275   0.92693   0.27282   0.00000  Uiso   1.00
O1635  O     0.20726   0.57307   0.72718   0.00000  Uiso   1.00
O1636  O     0.07307   0.79275   0.27282   0.00000  Uiso   1.00
O1637  O     0.42693   0.70725   0.72718   0.00000  Uiso   1.00
O1638  O     0.20726   0.92693   0.72718   0.00000  Uiso   1.00
O1639  O     0.00000   0.75000   0.25000   0.00000  Uiso   1.00
O1640  O     0.29275   0.57307   0.27282   0.00000  Uiso   1.00
O1641  O     0.42693   0.79274   0.72718   0.00000  Uiso   1.00
O1642  O     0.07307   0.70726   0.27282   0.00000  Uiso   1.00
O1643  O     0.29275   0.57307   0.72718   0.00000  Uiso   1.00
O1644  O     0.20726   0.92693   0.27282   0.00000  Uiso   1.00
O1645  O     0.07307   0.70726   0.72718   0.00000  Uiso   1.00
O1646  O     0.42693   0.79274   0.27282   0.00000  Uiso   1.00
O1647  O     0.45726   0.82307   0.77282   0.00000  Uiso   1.00
O1648  O     0.04275   0.67693   0.22718   0.00000  Uiso   1.00
O1649  O     0.17693   0.95726   0.77282   0.00000  Uiso   1.00
O1650  O     0.00000   0.75000   0.75000   0.00000  Uiso   1.00
O1651  O     0.32307   0.54274   0.22718   0.00000  Uiso   1.00
O1652  O     0.04275   0.67693   0.77282   0.00000  Uiso   1.00
O1653  O     0.45726   0.82307   0.22718   0.00000  Uiso   1.00
O1654  O     0.32307   0.54274   0.77282   0.00000  Uiso   1.00
O1655  O     0.17693   0.95726   0.22718   0.00000  Uiso   1.00
O1656  O     0.45726   0.67693   0.22718   0.00000  Uiso   1.00
O1657  O     0.04275   0.82307   0.77282   0.00000  Uiso   1.00
O1658  O     0.17693   0.54274   0.22718   0.00000  Uiso   1.00
O1659  O     0.32307   0.95726   0.77282   0.00000  Uiso   1.00
O1660  O     0.04275   0.82307   0.22718   0.00000  Uiso   1.00
O1661  O     0.25000   0.96964   0.33683   0.00000  Uiso   1.00
O1662  O     0.45726   0.67693   0.77282   0.00000  Uiso   1.00
O1663  O     0.32307   0.95726   0.22718   0.00000  Uiso   1.00
O1664  O     0.17693   0.54274   0.77282   0.00000  Uiso   1.00
O1665  O     0.13572   0.91578   0.18281   0.00000  Uiso   1.00
O1666  O     0.38911   0.55970   0.78833   0.00000  Uiso   1.00
O1667  O     0.05603   0.60884   0.22071   0.00000  Uiso   1.00
O1668  O     0.41070   0.85776   0.81924   0.00000  Uiso   1.00
O1669  O     0.36427   0.58423   0.18281   0.00000  Uiso   1.00
O1670  O     0.11089   0.94030   0.78833   0.00000  Uiso   1.00
O1671  O     0.44397   0.89116   0.22071   0.00000  Uiso   1.00
O1672  O     0.25000   0.53036   0.66317   0.00000  Uiso   1.00
O1673  O     0.08930   0.64224   0.81924   0.00000  Uiso   1.00
O1674  O     0.13573   0.58423   0.81719   0.00000  Uiso   1.00
O1675  O     0.38912   0.94030   0.21167   0.00000  Uiso   1.00
O1676  O     0.05603   0.89116   0.77928   0.00000  Uiso   1.00
O1677  O     0.41070   0.64224   0.18076   0.00000  Uiso   1.00
O1678  O     0.36428   0.91578   0.81719   0.00000  Uiso   1.00
O1679  O     0.11089   0.55970   0.21166   0.00000  Uiso   1.00
O1680  O     0.44397   0.60884   0.77929   0.00000  Uiso   1.00
O1681  O     0.08929   0.85777   0.18076   0.00000  Uiso   1.00
O1682  O     0.35884   0.69397   0.72071   0.00000  Uiso   1.00
O1683  O     0.03036   0.75000   0.33683   0.00000  Uiso   1.00
O1684  O     0.10777   0.83929   0.31924   0.00000  Uiso   1.00
O1685  O     0.33423   0.88573   0.68281   0.00000  Uiso   1.00
O1686  O     0.19030   0.63911   0.28833   0.00000  Uiso   1.00
O1687  O     0.14116   0.80603   0.72072   0.00000  Uiso   1.00
O1688  O     0.39224   0.66070   0.31924   0.00000  Uiso   1.00
O1689  O     0.16577   0.61427   0.68281   0.00000  Uiso   1.00
O1690  O     0.30970   0.86089   0.28834   0.00000  Uiso   1.00
O1691  O     0.35884   0.80603   0.27929   0.00000  Uiso   1.00
O1692  O     0.10776   0.66070   0.68076   0.00000  Uiso   1.00
O1693  O     0.33423   0.61427   0.31719   0.00000  Uiso   1.00
O1694  O     0.46964   0.75000   0.66317   0.00000  Uiso   1.00
O1695  O     0.19030   0.86089   0.71167   0.00000  Uiso   1.00
O1696  O     0.14116   0.69397   0.27928   0.00000  Uiso   1.00
O1697  O     0.39224   0.83930   0.68076   0.00000  Uiso   1.00
O1698  O     0.16578   0.88572   0.31719   0.00000  Uiso   1.00
O1699  O     0.30970   0.63911   0.71167   0.00000  Uiso   1.00
O1700  O     0.25000   0.53036   0.33683   0.00000  Uiso   1.00
Zn1701 Zn    0.20660   0.50000   0.21760   0.00000  Uiso   1.00
Zn1702 Zn    0.04340   0.75000   0.28240   0.00000  Uiso   1.00
Zn1703 Zn    0.25000   0.95660   0.71760   0.00000  Uiso   1.00
Zn1704 Zn    0.25000   0.54340   0.28240   0.00000  Uiso   1.00
Zn1705 Zn    0.04340   0.75000   0.71760   0.00000  Uiso   1.00
Zn1706 Zn    0.45660   0.75000   0.28240   0.00000  Uiso   1.00
Zn1707 Zn    0.25000   0.54340   0.71760   0.00000  Uiso   1.00
Zn1708 Zn    0.25000   0.95660   0.28240   0.00000  Uiso   1.00
Zn1709 Zn    0.29340   0.50000   0.78240   0.00000  Uiso   1.00
Zn1710 Zn    0.00000   0.70660   0.21760   0.00000  Uiso   1.00
Zn1711 Zn    0.00000   0.79340   0.78240   0.00000  Uiso   1.00
Zn1712 Zn    0.29340   0.50000   0.21760   0.00000  Uiso   1.00
Zn1713 Zn    0.20660   0.50000   0.78240   0.00000  Uiso   1.00
Zn1714 Zn    0.00000   0.79340   0.21760   0.00000  Uiso   1.00
Zn1715 Zn    0.00000   0.70660   0.78240   0.00000  Uiso   1.00
Zn1716 Zn    0.45660   0.75000   0.71760   0.00000  Uiso   1.00
C1717  C     0.71880   0.98915   0.04183   0.00000  Uiso   1.00
C1718  C     0.53115   0.73903   0.45819   0.00000  Uiso   1.00
C1719  C     0.84831   0.90169   0.75000   0.00000  Uiso   1.00
C1720  C     0.90207   0.65206   0.25000   0.00000  Uiso   1.00
C1721  C     0.59800   0.84800   0.75000   0.00000  Uiso   1.00
C1722  C     0.84824   0.90176   0.25000   0.00000  Uiso   1.00
C1723  C     0.65169   0.59831   0.75000   0.00000  Uiso   1.00
C1724  C     0.59794   0.65207   0.75000   0.00000  Uiso   1.00
C1725  C     0.90200   0.84800   0.25000   0.00000  Uiso   1.00
C1726  C     0.65176   0.90176   0.75000   0.00000  Uiso   1.00
C1727  C     0.84831   0.59831   0.25000   0.00000  Uiso   1.00
C1728  C     0.90206   0.84793   0.75000   0.00000  Uiso   1.00
C1729  C     0.76085   0.96880   0.54183   0.00000  Uiso   1.00
C1730  C     0.59800   0.65200   0.25000   0.00000  Uiso   1.00
C1731  C     0.84824   0.59824   0.75000   0.00000  Uiso   1.00
C1732  C     0.65169   0.90169   0.25000   0.00000  Uiso   1.00
C1733  C     0.75000   0.50000   0.10249   0.00000  Uiso   1.00
C1734  C     0.75000   0.50000   0.89752   0.00000  Uiso   1.00
C1735  C     0.50000   0.75000   0.10248   0.00000  Uiso   1.00
C1736  C     0.50000   0.75000   0.89752   0.00000  Uiso   1.00
C1737  C     0.50000   0.75000   0.60248   0.00000  Uiso   1.00
C1738  C     0.50000   0.75000   0.39752   0.00000  Uiso   1.00
C1739  C     0.75000   0.50000   0.60249   0.00000  Uiso   1.00
C1740  C     0.76085   0.53120   0.45817   0.00000  Uiso   1.00
C1741  C     0.75000   0.50000   0.39752   0.00000  Uiso   1.00
C1742  C     0.61251   0.94666   0.18242   0.00000  Uiso   1.00
C1743  C     0.57728   0.93891   0.16013   0.00000  Uiso   1.00
C1744  C     0.55523   0.97364   0.15392   0.00000  Uiso   1.00
C1745  C     0.87860   0.56289   0.82778   0.00000  Uiso   1.00
C1746  C     0.91054   0.57534   0.85312   0.00000  Uiso   1.00
C1747  C     0.90184   0.57106   0.89614   0.00000  Uiso   1.00
C1748  C     0.53642   0.59054   0.25002   0.00000  Uiso   1.00
C1749  C     0.99858   0.58125   0.23457   0.00000  Uiso   1.00
C1750  C     0.97580   0.56125   0.26480   0.00000  Uiso   1.00
C1751  C     0.53115   0.76097   0.54181   0.00000  Uiso   1.00
C1752  C     0.89440   0.82644   0.83572   0.00000  Uiso   1.00
C1753  C     0.86189   0.83697   0.86120   0.00000  Uiso   1.00
C1754  C     0.84759   0.80428   0.88385   0.00000  Uiso   1.00
C1755  C     0.88749   0.55335   0.18241   0.00000  Uiso   1.00
C1756  C     0.92272   0.56111   0.16013   0.00000  Uiso   1.00
C1757  C     0.94476   0.52638   0.15390   0.00000  Uiso   1.00
C1758  C     0.62140   0.93711   0.82778   0.00000  Uiso   1.00
C1759  C     0.58946   0.92466   0.85312   0.00000  Uiso   1.00
C1760  C     0.59816   0.92894   0.89614   0.00000  Uiso   1.00
C1761  C     0.96358   0.90945   0.25003   0.00000  Uiso   1.00
C1762  C     0.96885   0.76097   0.45819   0.00000  Uiso   1.00
C1763  C     0.50142   0.91875   0.23458   0.00000  Uiso   1.00
C1764  C     0.52422   0.93871   0.26482   0.00000  Uiso   1.00
C1765  C     0.60561   0.67357   0.83572   0.00000  Uiso   1.00
C1766  C     0.63810   0.66302   0.86122   0.00000  Uiso   1.00
C1767  C     0.65240   0.69572   0.88387   0.00000  Uiso   1.00
C1768  C     0.61251   0.55334   0.81759   0.00000  Uiso   1.00
C1769  C     0.57728   0.56110   0.83987   0.00000  Uiso   1.00
C1770  C     0.55524   0.52637   0.84610   0.00000  Uiso   1.00
C1771  C     0.87860   0.93711   0.17222   0.00000  Uiso   1.00
C1772  C     0.91054   0.92466   0.14689   0.00000  Uiso   1.00
C1773  C     0.73915   0.53120   0.54183   0.00000  Uiso   1.00
C1774  C     0.90184   0.92894   0.10386   0.00000  Uiso   1.00
C1775  C     0.53642   0.90947   0.74998   0.00000  Uiso   1.00
C1776  C     0.99858   0.91874   0.76542   0.00000  Uiso   1.00
C1777  C     0.97580   0.93874   0.73520   0.00000  Uiso   1.00
C1778  C     0.89439   0.67357   0.16429   0.00000  Uiso   1.00
C1779  C     0.86190   0.66303   0.13878   0.00000  Uiso   1.00
C1780  C     0.84759   0.69572   0.11614   0.00000  Uiso   1.00
C1781  C     0.88749   0.94666   0.81759   0.00000  Uiso   1.00
C1782  C     0.92272   0.93890   0.83987   0.00000  Uiso   1.00
C1783  C     0.94476   0.97363   0.84610   0.00000  Uiso   1.00
C1784  C     0.73915   0.96880   0.45817   0.00000  Uiso   1.00
C1785  C     0.62141   0.56289   0.17221   0.00000  Uiso   1.00
C1786  C     0.58947   0.57537   0.14688   0.00000  Uiso   1.00
C1787  C     0.59817   0.57109   0.10385   0.00000  Uiso   1.00
C1788  C     0.96358   0.59054   0.74998   0.00000  Uiso   1.00
C1789  C     0.50142   0.58125   0.76543   0.00000  Uiso   1.00
C1790  C     0.52420   0.56126   0.73520   0.00000  Uiso   1.00
C1791  C     0.60560   0.82645   0.16428   0.00000  Uiso   1.00
C1792  C     0.63809   0.83699   0.13878   0.00000  Uiso   1.00
C1793  C     0.65239   0.80430   0.11612   0.00000  Uiso   1.00
C1794  C     0.84055   0.71358   0.75003   0.00000  Uiso   1.00
C1795  C     0.71871   0.98944   0.08213   0.00000  Uiso   1.00
C1796  C     0.83123   0.75141   0.73456   0.00000  Uiso   1.00
C1797  C     0.81126   0.77420   0.76480   0.00000  Uiso   1.00
C1798  C     0.57645   0.85559   0.33572   0.00000  Uiso   1.00
C1799  C     0.58699   0.88808   0.36122   0.00000  Uiso   1.00
C1800  C     0.55430   0.90238   0.38388   0.00000  Uiso   1.00
C1801  C     0.80334   0.86251   0.68241   0.00000  Uiso   1.00
C1802  C     0.81110   0.82728   0.66013   0.00000  Uiso   1.00
C1803  C     0.77637   0.80524   0.65390   0.00000  Uiso   1.00
C1804  C     0.68711   0.62860   0.32778   0.00000  Uiso   1.00
C1805  C     0.67466   0.66054   0.35311   0.00000  Uiso   1.00
C1806  C     0.78129   0.98944   0.91787   0.00000  Uiso   1.00
C1807  C     0.67894   0.65184   0.39614   0.00000  Uiso   1.00
C1808  C     0.65946   0.78642   0.75003   0.00000  Uiso   1.00
C1809  C     0.66875   0.74858   0.73457   0.00000  Uiso   1.00
C1810  C     0.68875   0.72580   0.76480   0.00000  Uiso   1.00
C1811  C     0.92357   0.64439   0.33572   0.00000  Uiso   1.00
C1812  C     0.91303   0.61190   0.36122   0.00000  Uiso   1.00
C1813  C     0.94572   0.59759   0.38386   0.00000  Uiso   1.00
C1814  C     0.69666   0.63749   0.68241   0.00000  Uiso   1.00
C1815  C     0.68890   0.67272   0.66013   0.00000  Uiso   1.00
C1816  C     0.72363   0.69476   0.65390   0.00000  Uiso   1.00
C1817  C     0.51070   0.71876   0.08212   0.00000  Uiso   1.00
C1818  C     0.81289   0.87141   0.32778   0.00000  Uiso   1.00
C1819  C     0.82535   0.83946   0.35312   0.00000  Uiso   1.00
C1820  C     0.82107   0.84816   0.39615   0.00000  Uiso   1.00
C1821  C     0.84054   0.78642   0.24998   0.00000  Uiso   1.00
C1822  C     0.83125   0.74858   0.26543   0.00000  Uiso   1.00
C1823  C     0.81125   0.72580   0.23520   0.00000  Uiso   1.00
C1824  C     0.57644   0.64439   0.66428   0.00000  Uiso   1.00
C1825  C     0.58698   0.61190   0.63878   0.00000  Uiso   1.00
C1826  C     0.55428   0.59759   0.61614   0.00000  Uiso   1.00
C1827  C     0.80335   0.63749   0.31759   0.00000  Uiso   1.00
C1828  C     0.78120   0.98915   0.95817   0.00000  Uiso   1.00
C1829  C     0.51070   0.78124   0.91788   0.00000  Uiso   1.00
C1830  C     0.81110   0.67272   0.33987   0.00000  Uiso   1.00
C1831  C     0.77638   0.69476   0.34611   0.00000  Uiso   1.00
C1832  C     0.68711   0.87140   0.67222   0.00000  Uiso   1.00
C1833  C     0.67466   0.83946   0.64689   0.00000  Uiso   1.00
C1834  C     0.67894   0.84816   0.60386   0.00000  Uiso   1.00
C1835  C     0.65946   0.71358   0.24997   0.00000  Uiso   1.00
C1836  C     0.66874   0.75142   0.26542   0.00000  Uiso   1.00
C1837  C     0.68873   0.77421   0.23519   0.00000  Uiso   1.00
C1838  C     0.92356   0.85561   0.66428   0.00000  Uiso   1.00
C1839  C     0.91302   0.88809   0.63877   0.00000  Uiso   1.00
C1840  C     0.78129   0.51056   0.08213   0.00000  Uiso   1.00
C1841  C     0.94571   0.90240   0.61612   0.00000  Uiso   1.00
C1842  C     0.69666   0.86250   0.31758   0.00000  Uiso   1.00
C1843  C     0.68891   0.82727   0.33985   0.00000  Uiso   1.00
C1844  C     0.72364   0.80523   0.34608   0.00000  Uiso   1.00
C1845  C     0.81289   0.62860   0.67222   0.00000  Uiso   1.00
C1846  C     0.82534   0.66054   0.64689   0.00000  Uiso   1.00
C1847  C     0.82106   0.65184   0.60386   0.00000  Uiso   1.00
C1848  C     0.71871   0.51056   0.91787   0.00000  Uiso   1.00
C1849  C     0.98930   0.78124   0.08212   0.00000  Uiso   1.00
C1850  C     0.98930   0.71876   0.91788   0.00000  Uiso   1.00
C1851  C     0.96876   0.73930   0.58212   0.00000  Uiso   1.00
C1852  C     0.53124   0.73930   0.41788   0.00000  Uiso   1.00
C1853  C     0.76056   0.96871   0.58213   0.00000  Uiso   1.00
C1854  C     0.76056   0.53129   0.41787   0.00000  Uiso   1.00
C1855  C     0.53124   0.76070   0.58212   0.00000  Uiso   1.00
C1856  C     0.51097   0.71885   0.04181   0.00000  Uiso   1.00
C1857  C     0.96876   0.76070   0.41788   0.00000  Uiso   1.00
C1858  C     0.73944   0.53129   0.58213   0.00000  Uiso   1.00
C1859  C     0.73944   0.96871   0.41787   0.00000  Uiso   1.00
C1860  C     0.75000   0.50000   0.02133   0.00000  Uiso   1.00
C1861  C     0.75000   0.50000   0.97867   0.00000  Uiso   1.00
C1862  C     0.50000   0.75000   0.02132   0.00000  Uiso   1.00
C1863  C     0.50000   0.75000   0.97868   0.00000  Uiso   1.00
C1864  C     0.50000   0.75000   0.52132   0.00000  Uiso   1.00
C1865  C     0.50000   0.75000   0.47868   0.00000  Uiso   1.00
C1866  C     0.75000   0.50000   0.52133   0.00000  Uiso   1.00
C1867  C     0.51097   0.78115   0.95819   0.00000  Uiso   1.00
C1868  C     0.75000   0.50000   0.47867   0.00000  Uiso   1.00
C1869  C     0.75000   0.50000   0.35518   0.00000  Uiso   1.00
C1870  C     0.75000   0.50000   0.64482   0.00000  Uiso   1.00
C1871  C     0.50000   0.75000   0.35518   0.00000  Uiso   1.00
C1872  C     0.50000   0.75000   0.64482   0.00000  Uiso   1.00
C1873  C     0.50000   0.75000   0.85518   0.00000  Uiso   1.00
C1874  C     0.50000   0.75000   0.14482   0.00000  Uiso   1.00
C1875  C     0.75000   0.50000   0.85518   0.00000  Uiso   1.00
C1876  C     0.75000   0.50000   0.14482   0.00000  Uiso   1.00
C1877  C     0.67991   0.57009   0.25000   0.00000  Uiso   1.00
C1878  C     0.78120   0.51085   0.04183   0.00000  Uiso   1.00
C1879  C     0.82012   0.92988   0.75000   0.00000  Uiso   1.00
C1880  C     0.93003   0.68003   0.25000   0.00000  Uiso   1.00
C1881  C     0.57000   0.82001   0.75000   0.00000  Uiso   1.00
C1882  C     0.82009   0.92991   0.25000   0.00000  Uiso   1.00
C1883  C     0.67988   0.57012   0.75000   0.00000  Uiso   1.00
C1884  C     0.56997   0.81997   0.25000   0.00000  Uiso   1.00
C1885  C     0.93000   0.67999   0.75000   0.00000  Uiso   1.00
C1886  C     0.67991   0.92991   0.75000   0.00000  Uiso   1.00
C1887  C     0.82012   0.57012   0.25000   0.00000  Uiso   1.00
C1888  C     0.93003   0.81997   0.75000   0.00000  Uiso   1.00
C1889  C     0.71880   0.51085   0.95817   0.00000  Uiso   1.00
C1890  C     0.57000   0.68000   0.25000   0.00000  Uiso   1.00
C1891  C     0.82009   0.57009   0.75000   0.00000  Uiso   1.00
C1892  C     0.67988   0.92988   0.25000   0.00000  Uiso   1.00
C1893  C     0.56997   0.68003   0.75000   0.00000  Uiso   1.00
C1894  C     0.93000   0.82000   0.25000   0.00000  Uiso   1.00
C1895  C     0.63023   0.89588   0.21646   0.00000  Uiso   1.00
C1896  C     0.88182   0.59197   0.76900   0.00000  Uiso   1.00
C1897  C     0.59030   0.61735   0.23470   0.00000  Uiso   1.00
C1898  C     0.89375   0.86650   0.78456   0.00000  Uiso   1.00
C1899  C     0.86976   0.60413   0.21646   0.00000  Uiso   1.00
C1900  C     0.98903   0.78115   0.04181   0.00000  Uiso   1.00
C1901  C     0.61818   0.90803   0.76900   0.00000  Uiso   1.00
C1902  C     0.90970   0.88265   0.23470   0.00000  Uiso   1.00
C1903  C     0.60625   0.63350   0.78456   0.00000  Uiso   1.00
C1904  C     0.63024   0.60412   0.78354   0.00000  Uiso   1.00
C1905  C     0.88182   0.90803   0.23100   0.00000  Uiso   1.00
C1906  C     0.59030   0.88265   0.76530   0.00000  Uiso   1.00
C1907  C     0.89375   0.63350   0.21544   0.00000  Uiso   1.00
C1908  C     0.86976   0.89588   0.78354   0.00000  Uiso   1.00
C1909  C     0.61818   0.59197   0.23100   0.00000  Uiso   1.00
C1910  C     0.90970   0.61735   0.76530   0.00000  Uiso   1.00
C1911  C     0.98903   0.71885   0.95819   0.00000  Uiso   1.00
C1912  C     0.60625   0.86650   0.21544   0.00000  Uiso   1.00
C1913  C     0.86735   0.65970   0.73470   0.00000  Uiso   1.00
C1914  C     0.61650   0.85625   0.28456   0.00000  Uiso   1.00
C1915  C     0.85412   0.88024   0.71646   0.00000  Uiso   1.00
C1916  C     0.65804   0.63182   0.26900   0.00000  Uiso   1.00
C1917  C     0.63265   0.84030   0.73470   0.00000  Uiso   1.00
C1918  C     0.88350   0.64375   0.28456   0.00000  Uiso   1.00
C1919  C     0.64588   0.61976   0.71646   0.00000  Uiso   1.00
C1920  C     0.84197   0.86818   0.26900   0.00000  Uiso   1.00
C1921  C     0.86735   0.84030   0.26530   0.00000  Uiso   1.00
C1922  C     0.96885   0.73903   0.54181   0.00000  Uiso   1.00
C1923  C     0.61650   0.64375   0.71544   0.00000  Uiso   1.00
C1924  C     0.85413   0.61976   0.28354   0.00000  Uiso   1.00
C1925  C     0.65803   0.86818   0.73100   0.00000  Uiso   1.00
C1926  C     0.63266   0.65970   0.26530   0.00000  Uiso   1.00
C1927  C     0.88350   0.85625   0.71544   0.00000  Uiso   1.00
C1928  C     0.64588   0.88023   0.28354   0.00000  Uiso   1.00
C1929  C     0.84197   0.63182   0.73100   0.00000  Uiso   1.00
C1930  C     0.59794   0.84794   0.25000   0.00000  Uiso   1.00
C1931  C     0.90200   0.65200   0.75000   0.00000  Uiso   1.00
C1932  C     0.65176   0.59824   0.25000   0.00000  Uiso   1.00
H1933  H     0.69462   0.98002   0.02675   0.00000  Uiso   1.00
H1934  H     0.55530   0.72983   0.47328   0.00000  Uiso   1.00
H1935  H     0.87763   0.91236   0.09608   0.00000  Uiso   1.00
H1936  H     0.92537   0.91951   0.08632   0.00000  Uiso   1.00
H1937  H     0.89641   0.95794   0.09677   0.00000  Uiso   1.00
H1938  H     0.53341   0.89179   0.72389   0.00000  Uiso   1.00
H1939  H     0.55038   0.93526   0.74165   0.00000  Uiso   1.00
H1940  H     0.98435   0.89323   0.77381   0.00000  Uiso   1.00
H1941  H     0.50131   0.93618   0.79160   0.00000  Uiso   1.00
H1942  H     0.98879   0.96507   0.72750   0.00000  Uiso   1.00
H1943  H     0.94827   0.94425   0.74708   0.00000  Uiso   1.00
H1944  H     0.97285   0.92188   0.70869   0.00000  Uiso   1.00
H1945  H     0.76998   0.94462   0.52675   0.00000  Uiso   1.00
H1946  H     0.91526   0.68695   0.14582   0.00000  Uiso   1.00
H1947  H     0.88598   0.69420   0.18625   0.00000  Uiso   1.00
H1948  H     0.87029   0.64145   0.11803   0.00000  Uiso   1.00
H1949  H     0.83961   0.65220   0.15725   0.00000  Uiso   1.00
H1950  H     0.83883   0.71760   0.13631   0.00000  Uiso   1.00
H1951  H     0.82384   0.68731   0.09835   0.00000  Uiso   1.00
H1952  H     0.86903   0.70648   0.09652   0.00000  Uiso   1.00
H1953  H     0.87264   0.96875   0.83284   0.00000  Uiso   1.00
H1954  H     0.89396   0.95732   0.78806   0.00000  Uiso   1.00
H1955  H     0.91613   0.92663   0.86848   0.00000  Uiso   1.00
H1956  H     0.76998   0.55538   0.47325   0.00000  Uiso   1.00
H1957  H     0.93970   0.91947   0.82325   0.00000  Uiso   1.00
H1958  H     0.95095   0.98684   0.81787   0.00000  Uiso   1.00
H1959  H     0.97083   0.96691   0.86075   0.00000  Uiso   1.00
H1960  H     0.92935   0.99287   0.86468   0.00000  Uiso   1.00
H1961  H     0.63011   0.53545   0.16240   0.00000  Uiso   1.00
H1962  H     0.64533   0.58120   0.16768   0.00000  Uiso   1.00
H1963  H     0.56481   0.55914   0.15398   0.00000  Uiso   1.00
H1964  H     0.58359   0.60452   0.15261   0.00000  Uiso   1.00
H1965  H     0.62239   0.58765   0.09608   0.00000  Uiso   1.00
H1966  H     0.57464   0.58054   0.08632   0.00000  Uiso   1.00
H1967  H     0.55530   0.77018   0.52672   0.00000  Uiso   1.00
H1968  H     0.60357   0.54209   0.09677   0.00000  Uiso   1.00
H1969  H     0.96660   0.60824   0.72390   0.00000  Uiso   1.00
H1970  H     0.94962   0.56475   0.74163   0.00000  Uiso   1.00
H1971  H     0.51565   0.60674   0.77384   0.00000  Uiso   1.00
H1972  H     0.99867   0.56379   0.79159   0.00000  Uiso   1.00
H1973  H     0.51120   0.53494   0.72747   0.00000  Uiso   1.00
H1974  H     0.55172   0.55572   0.74710   0.00000  Uiso   1.00
H1975  H     0.52717   0.57814   0.70871   0.00000  Uiso   1.00
H1976  H     0.58473   0.81306   0.14582   0.00000  Uiso   1.00
H1977  H     0.61402   0.80581   0.18624   0.00000  Uiso   1.00
H1978  H     0.94470   0.77017   0.47328   0.00000  Uiso   1.00
H1979  H     0.62969   0.85857   0.11803   0.00000  Uiso   1.00
H1980  H     0.66038   0.84782   0.15724   0.00000  Uiso   1.00
H1981  H     0.66115   0.78242   0.13629   0.00000  Uiso   1.00
H1982  H     0.67614   0.81272   0.09833   0.00000  Uiso   1.00
H1983  H     0.63095   0.79355   0.09651   0.00000  Uiso   1.00
H1984  H     0.85826   0.71662   0.77609   0.00000  Uiso   1.00
H1985  H     0.81478   0.69962   0.75841   0.00000  Uiso   1.00
H1986  H     0.85671   0.76565   0.72612   0.00000  Uiso   1.00
H1987  H     0.81375   0.74864   0.70842   0.00000  Uiso   1.00
H1988  H     0.78497   0.76118   0.77259   0.00000  Uiso   1.00
H1989  H     0.73002   0.55538   0.52675   0.00000  Uiso   1.00
H1990  H     0.80568   0.80170   0.75289   0.00000  Uiso   1.00
H1991  H     0.82817   0.77721   0.79126   0.00000  Uiso   1.00
H1992  H     0.56308   0.83471   0.35419   0.00000  Uiso   1.00
H1993  H     0.55581   0.86399   0.31377   0.00000  Uiso   1.00
H1994  H     0.60858   0.87969   0.38197   0.00000  Uiso   1.00
H1995  H     0.59781   0.91037   0.34275   0.00000  Uiso   1.00
H1996  H     0.53242   0.91114   0.36372   0.00000  Uiso   1.00
H1997  H     0.56271   0.92612   0.40167   0.00000  Uiso   1.00
H1998  H     0.54356   0.88093   0.40350   0.00000  Uiso   1.00
H1999  H     0.78125   0.87736   0.66715   0.00000  Uiso   1.00
H2000  H     0.73002   0.94462   0.47325   0.00000  Uiso   1.00
H2001  H     0.79268   0.85604   0.71194   0.00000  Uiso   1.00
H2002  H     0.82337   0.83387   0.63152   0.00000  Uiso   1.00
H2003  H     0.83053   0.81030   0.67675   0.00000  Uiso   1.00
H2004  H     0.76316   0.79905   0.68212   0.00000  Uiso   1.00
H2005  H     0.78309   0.77917   0.63924   0.00000  Uiso   1.00
H2006  H     0.75713   0.82065   0.63531   0.00000  Uiso   1.00
H2007  H     0.71455   0.61989   0.33759   0.00000  Uiso   1.00
H2008  H     0.66880   0.60469   0.33232   0.00000  Uiso   1.00
H2009  H     0.69089   0.68519   0.34602   0.00000  Uiso   1.00
H2010  H     0.64551   0.66643   0.34739   0.00000  Uiso   1.00
H2011  H     0.69435   0.98090   0.09734   0.00000  Uiso   1.00
H2012  H     0.66236   0.62763   0.40392   0.00000  Uiso   1.00
H2013  H     0.66951   0.67537   0.41368   0.00000  Uiso   1.00
H2014  H     0.70793   0.64642   0.40323   0.00000  Uiso   1.00
H2015  H     0.64177   0.78340   0.77611   0.00000  Uiso   1.00
H2016  H     0.68525   0.80038   0.75837   0.00000  Uiso   1.00
H2017  H     0.64326   0.73435   0.72616   0.00000  Uiso   1.00
H2018  H     0.68621   0.75133   0.70841   0.00000  Uiso   1.00
H2019  H     0.71506   0.73880   0.77253   0.00000  Uiso   1.00
H2020  H     0.69428   0.69828   0.75291   0.00000  Uiso   1.00
H2021  H     0.67187   0.72283   0.79129   0.00000  Uiso   1.00
H2022  H     0.80565   0.98090   0.90266   0.00000  Uiso   1.00
H2023  H     0.93695   0.66526   0.35418   0.00000  Uiso   1.00
H2024  H     0.94420   0.63597   0.31375   0.00000  Uiso   1.00
H2025  H     0.89145   0.62029   0.38197   0.00000  Uiso   1.00
H2026  H     0.90220   0.58961   0.34275   0.00000  Uiso   1.00
H2027  H     0.96760   0.58883   0.36369   0.00000  Uiso   1.00
H2028  H     0.93731   0.57385   0.40166   0.00000  Uiso   1.00
H2029  H     0.95648   0.61903   0.40348   0.00000  Uiso   1.00
H2030  H     0.71875   0.62264   0.66715   0.00000  Uiso   1.00
H2031  H     0.70732   0.64396   0.71194   0.00000  Uiso   1.00
H2032  H     0.67663   0.66613   0.63152   0.00000  Uiso   1.00
H2033  H     0.51935   0.69445   0.09732   0.00000  Uiso   1.00
H2034  H     0.66947   0.68970   0.67675   0.00000  Uiso   1.00
H2035  H     0.73684   0.70095   0.68213   0.00000  Uiso   1.00
H2036  H     0.71691   0.72083   0.63925   0.00000  Uiso   1.00
H2037  H     0.74287   0.67935   0.63532   0.00000  Uiso   1.00
H2038  H     0.78545   0.88011   0.33760   0.00000  Uiso   1.00
H2039  H     0.83120   0.89532   0.33232   0.00000  Uiso   1.00
H2040  H     0.80913   0.81481   0.34602   0.00000  Uiso   1.00
H2041  H     0.85450   0.83358   0.34739   0.00000  Uiso   1.00
H2042  H     0.83765   0.87238   0.40392   0.00000  Uiso   1.00
H2043  H     0.83051   0.82464   0.41368   0.00000  Uiso   1.00
H2044  H     0.80538   0.98002   0.97325   0.00000  Uiso   1.00
H2045  H     0.51935   0.80555   0.90268   0.00000  Uiso   1.00
H2046  H     0.79208   0.85358   0.40323   0.00000  Uiso   1.00
H2047  H     0.85823   0.78340   0.22390   0.00000  Uiso   1.00
H2048  H     0.81475   0.80038   0.24163   0.00000  Uiso   1.00
H2049  H     0.85674   0.73435   0.27384   0.00000  Uiso   1.00
H2050  H     0.81380   0.75133   0.29160   0.00000  Uiso   1.00
H2051  H     0.78494   0.73880   0.22748   0.00000  Uiso   1.00
H2052  H     0.80571   0.69829   0.24710   0.00000  Uiso   1.00
H2053  H     0.82813   0.72283   0.20871   0.00000  Uiso   1.00
H2054  H     0.56305   0.66526   0.64582   0.00000  Uiso   1.00
H2055  H     0.55580   0.63598   0.68625   0.00000  Uiso   1.00
H2056  H     0.80565   0.51910   0.09734   0.00000  Uiso   1.00
H2057  H     0.60856   0.62029   0.61803   0.00000  Uiso   1.00
H2058  H     0.59780   0.58961   0.65725   0.00000  Uiso   1.00
H2059  H     0.53241   0.58883   0.63630   0.00000  Uiso   1.00
H2060  H     0.56270   0.57385   0.59835   0.00000  Uiso   1.00
H2061  H     0.54353   0.61904   0.59652   0.00000  Uiso   1.00
H2062  H     0.78125   0.62264   0.33285   0.00000  Uiso   1.00
H2063  H     0.79268   0.64396   0.28806   0.00000  Uiso   1.00
H2064  H     0.82337   0.66613   0.36848   0.00000  Uiso   1.00
H2065  H     0.83054   0.68970   0.32325   0.00000  Uiso   1.00
H2066  H     0.76316   0.70095   0.31788   0.00000  Uiso   1.00
H2067  H     0.69435   0.51910   0.90266   0.00000  Uiso   1.00
H2068  H     0.78309   0.72083   0.36076   0.00000  Uiso   1.00
H2069  H     0.75713   0.67935   0.36469   0.00000  Uiso   1.00
H2070  H     0.71455   0.88011   0.66241   0.00000  Uiso   1.00
H2071  H     0.66880   0.89532   0.66768   0.00000  Uiso   1.00
H2072  H     0.69089   0.81481   0.65398   0.00000  Uiso   1.00
H2073  H     0.64551   0.83357   0.65261   0.00000  Uiso   1.00
H2074  H     0.66235   0.87238   0.59608   0.00000  Uiso   1.00
H2075  H     0.66950   0.82463   0.58632   0.00000  Uiso   1.00
H2076  H     0.70793   0.85359   0.59677   0.00000  Uiso   1.00
H2077  H     0.64178   0.71659   0.22389   0.00000  Uiso   1.00
H2078  H     0.98065   0.80555   0.09732   0.00000  Uiso   1.00
H2079  H     0.68526   0.69962   0.24164   0.00000  Uiso   1.00
H2080  H     0.64324   0.76565   0.27382   0.00000  Uiso   1.00
H2081  H     0.68619   0.74869   0.29159   0.00000  Uiso   1.00
H2082  H     0.71506   0.76121   0.22747   0.00000  Uiso   1.00
H2083  H     0.69426   0.80172   0.24708   0.00000  Uiso   1.00
H2084  H     0.67186   0.77716   0.20869   0.00000  Uiso   1.00
H2085  H     0.93695   0.83474   0.64583   0.00000  Uiso   1.00
H2086  H     0.94419   0.86403   0.68625   0.00000  Uiso   1.00
H2087  H     0.89144   0.87969   0.61802   0.00000  Uiso   1.00
H2088  H     0.90218   0.91038   0.65724   0.00000  Uiso   1.00
H2089  H     0.98065   0.69445   0.90268   0.00000  Uiso   1.00
H2090  H     0.96758   0.91117   0.63629   0.00000  Uiso   1.00
H2091  H     0.93729   0.92614   0.59832   0.00000  Uiso   1.00
H2092  H     0.95647   0.88095   0.59651   0.00000  Uiso   1.00
H2093  H     0.71876   0.87735   0.33283   0.00000  Uiso   1.00
H2094  H     0.70733   0.85604   0.28804   0.00000  Uiso   1.00
H2095  H     0.67665   0.83385   0.36847   0.00000  Uiso   1.00
H2096  H     0.66948   0.81029   0.32324   0.00000  Uiso   1.00
H2097  H     0.73686   0.79905   0.31786   0.00000  Uiso   1.00
H2098  H     0.71693   0.77916   0.36073   0.00000  Uiso   1.00
H2099  H     0.74289   0.82064   0.36467   0.00000  Uiso   1.00
H2100  H     0.94445   0.73065   0.59732   0.00000  Uiso   1.00
H2101  H     0.78545   0.61989   0.66241   0.00000  Uiso   1.00
H2102  H     0.83120   0.60469   0.66768   0.00000  Uiso   1.00
H2103  H     0.80911   0.68519   0.65398   0.00000  Uiso   1.00
H2104  H     0.85449   0.66643   0.65261   0.00000  Uiso   1.00
H2105  H     0.83764   0.62762   0.59608   0.00000  Uiso   1.00
H2106  H     0.83049   0.67537   0.58632   0.00000  Uiso   1.00
H2107  H     0.79207   0.64641   0.59677   0.00000  Uiso   1.00
H2108  H     0.55555   0.73065   0.40268   0.00000  Uiso   1.00
H2109  H     0.76910   0.94435   0.59734   0.00000  Uiso   1.00
H2110  H     0.76910   0.55565   0.40266   0.00000  Uiso   1.00
H2111  H     0.55555   0.76935   0.59732   0.00000  Uiso   1.00
H2112  H     0.52018   0.69470   0.02672   0.00000  Uiso   1.00
H2113  H     0.94445   0.76935   0.40268   0.00000  Uiso   1.00
H2114  H     0.73090   0.55565   0.59734   0.00000  Uiso   1.00
H2115  H     0.73090   0.94435   0.40266   0.00000  Uiso   1.00
H2116  H     0.62736   0.96876   0.16717   0.00000  Uiso   1.00
H2117  H     0.60603   0.95732   0.21196   0.00000  Uiso   1.00
H2118  H     0.58387   0.92667   0.13151   0.00000  Uiso   1.00
H2119  H     0.56030   0.91947   0.17674   0.00000  Uiso   1.00
H2120  H     0.54902   0.98683   0.18216   0.00000  Uiso   1.00
H2121  H     0.52918   0.96694   0.13924   0.00000  Uiso   1.00
H2122  H     0.57065   0.99291   0.13537   0.00000  Uiso   1.00
H2123  H     0.52018   0.80530   0.97328   0.00000  Uiso   1.00
H2124  H     0.86989   0.53545   0.83759   0.00000  Uiso   1.00
H2125  H     0.85468   0.58120   0.83232   0.00000  Uiso   1.00
H2126  H     0.93519   0.55911   0.84602   0.00000  Uiso   1.00
H2127  H     0.91643   0.60449   0.84739   0.00000  Uiso   1.00
H2128  H     0.87762   0.58764   0.90392   0.00000  Uiso   1.00
H2129  H     0.92537   0.58050   0.91368   0.00000  Uiso   1.00
H2130  H     0.89642   0.54207   0.90323   0.00000  Uiso   1.00
H2131  H     0.53340   0.60823   0.27610   0.00000  Uiso   1.00
H2132  H     0.55038   0.56475   0.25836   0.00000  Uiso   1.00
H2133  H     0.98435   0.60674   0.22616   0.00000  Uiso   1.00
H2134  H     0.80538   0.51998   0.02675   0.00000  Uiso   1.00
H2135  H     0.50133   0.56380   0.20840   0.00000  Uiso   1.00
H2136  H     0.98880   0.53494   0.27252   0.00000  Uiso   1.00
H2137  H     0.94829   0.55571   0.25290   0.00000  Uiso   1.00
H2138  H     0.97283   0.57813   0.29129   0.00000  Uiso   1.00
H2139  H     0.91526   0.81307   0.85420   0.00000  Uiso   1.00
H2140  H     0.88600   0.80579   0.81376   0.00000  Uiso   1.00
H2141  H     0.87027   0.85856   0.88195   0.00000  Uiso   1.00
H2142  H     0.83961   0.84779   0.84272   0.00000  Uiso   1.00
H2143  H     0.83884   0.78239   0.86368   0.00000  Uiso   1.00
H2144  H     0.82383   0.81268   0.90163   0.00000  Uiso   1.00
H2145  H     0.69462   0.51998   0.97325   0.00000  Uiso   1.00
H2146  H     0.86903   0.79353   0.90348   0.00000  Uiso   1.00
H2147  H     0.87264   0.53125   0.16715   0.00000  Uiso   1.00
H2148  H     0.89395   0.54268   0.21194   0.00000  Uiso   1.00
H2149  H     0.91613   0.57337   0.13152   0.00000  Uiso   1.00
H2150  H     0.93970   0.58054   0.17675   0.00000  Uiso   1.00
H2151  H     0.95095   0.51316   0.18212   0.00000  Uiso   1.00
H2152  H     0.97083   0.53310   0.13925   0.00000  Uiso   1.00
H2153  H     0.92935   0.50713   0.13531   0.00000  Uiso   1.00
H2154  H     0.63011   0.96455   0.83759   0.00000  Uiso   1.00
H2155  H     0.64531   0.91880   0.83232   0.00000  Uiso   1.00
H2156  H     0.97983   0.80530   0.02672   0.00000  Uiso   1.00
H2157  H     0.56481   0.94089   0.84602   0.00000  Uiso   1.00
H2158  H     0.58357   0.89551   0.84739   0.00000  Uiso   1.00
H2159  H     0.62237   0.91236   0.90392   0.00000  Uiso   1.00
H2160  H     0.57463   0.91950   0.91368   0.00000  Uiso   1.00
H2161  H     0.60358   0.95793   0.90323   0.00000  Uiso   1.00
H2162  H     0.96661   0.89174   0.27610   0.00000  Uiso   1.00
H2163  H     0.94962   0.93523   0.25840   0.00000  Uiso   1.00
H2164  H     0.51565   0.89326   0.22613   0.00000  Uiso   1.00
H2165  H     0.99867   0.93623   0.20843   0.00000  Uiso   1.00
H2166  H     0.51122   0.96502   0.27258   0.00000  Uiso   1.00
H2167  H     0.97983   0.69470   0.97328   0.00000  Uiso   1.00
H2168  H     0.55173   0.94425   0.25293   0.00000  Uiso   1.00
H2169  H     0.52719   0.92180   0.29129   0.00000  Uiso   1.00
H2170  H     0.58474   0.68695   0.85418   0.00000  Uiso   1.00
H2171  H     0.61402   0.69420   0.81375   0.00000  Uiso   1.00
H2172  H     0.62970   0.64144   0.88197   0.00000  Uiso   1.00
H2173  H     0.66039   0.65219   0.84275   0.00000  Uiso   1.00
H2174  H     0.66117   0.71759   0.86370   0.00000  Uiso   1.00
H2175  H     0.67615   0.68730   0.90166   0.00000  Uiso   1.00
H2176  H     0.63096   0.70647   0.90348   0.00000  Uiso   1.00
H2177  H     0.62736   0.53125   0.83285   0.00000  Uiso   1.00
H2178  H     0.94470   0.72982   0.52672   0.00000  Uiso   1.00
H2179  H     0.60604   0.54268   0.78806   0.00000  Uiso   1.00
H2180  H     0.58387   0.57337   0.86848   0.00000  Uiso   1.00
H2181  H     0.56030   0.58054   0.82325   0.00000  Uiso   1.00
H2182  H     0.54905   0.51316   0.81788   0.00000  Uiso   1.00
H2183  H     0.52917   0.53309   0.86075   0.00000  Uiso   1.00
H2184  H     0.57065   0.50713   0.86468   0.00000  Uiso   1.00
H2185  H     0.86989   0.96456   0.16241   0.00000  Uiso   1.00
H2186  H     0.85469   0.91880   0.16768   0.00000  Uiso   1.00
H2187  H     0.93519   0.94090   0.15398   0.00000  Uiso   1.00
H2188  H     0.91643   0.89551   0.15261   0.00000  Uiso   1.00
O2189  O     0.75000   0.50000   0.25000   0.00000  Uiso   1.00
O2190  O     0.75000   0.96964   0.66317   0.00000  Uiso   1.00
O2191  O     0.96964   0.75000   0.33683   0.00000  Uiso   1.00
O2192  O     0.53036   0.75000   0.66317   0.00000  Uiso   1.00
O2193  O     0.50000   0.71964   0.83683   0.00000  Uiso   1.00
O2194  O     0.50000   0.78036   0.16317   0.00000  Uiso   1.00
O2195  O     0.78036   0.50000   0.83683   0.00000  Uiso   1.00
O2196  O     0.71964   0.50000   0.16317   0.00000  Uiso   1.00
O2197  O     0.50000   0.78036   0.83683   0.00000  Uiso   1.00
O2198  O     0.50000   0.71964   0.16317   0.00000  Uiso   1.00
O2199  O     0.71964   0.50000   0.83683   0.00000  Uiso   1.00
O2200  O     0.75000   0.50000   0.75000   0.00000  Uiso   1.00
O2201  O     0.78036   0.50000   0.16317   0.00000  Uiso   1.00
O2202  O     0.70726   0.57307   0.27282   0.00000  Uiso   1.00
O2203  O     0.79275   0.92693   0.72718   0.00000  Uiso   1.00
O2204  O     0.92693   0.70725   0.27282   0.00000  Uiso   1.00
O2205  O     0.57307   0.79275   0.72718   0.00000  Uiso   1.00
O2206  O     0.79275   0.92693   0.27282   0.00000  Uiso   1.00
O2207  O     0.70726   0.57307   0.72718   0.00000  Uiso   1.00
O2208  O     0.57307   0.79275   0.27282   0.00000  Uiso   1.00
O2209  O     0.92693   0.70725   0.72718   0.00000  Uiso   1.00
O2210  O     0.70726   0.92693   0.72718   0.00000  Uiso   1.00
O2211  O     0.50000   0.75000   0.25000   0.00000  Uiso   1.00
O2212  O     0.79275   0.57307   0.27282   0.00000  Uiso   1.00
O2213  O     0.92693   0.79274   0.72718   0.00000  Uiso   1.00
O2214  O     0.57307   0.70726   0.27282   0.00000  Uiso   1.00
O2215  O     0.79275   0.57307   0.72718   0.00000  Uiso   1.00
O2216  O     0.70726   0.92693   0.27282   0.00000  Uiso   1.00
O2217  O     0.57307   0.70726   0.72718   0.00000  Uiso   1.00
O2218  O     0.92693   0.79274   0.27282   0.00000  Uiso   1.00
O2219  O     0.95726   0.82307   0.77282   0.00000  Uiso   1.00
O2220  O     0.54275   0.67693   0.22718   0.00000  Uiso   1.00
O2221  O     0.67693   0.95726   0.77282   0.00000  Uiso   1.00
O2222  O     0.50000   0.75000   0.75000   0.00000  Uiso   1.00
O2223  O     0.82307   0.54274   0.22718   0.00000  Uiso   1.00
O2224  O     0.54275   0.67693   0.77282   0.00000  Uiso   1.00
O2225  O     0.95726   0.82307   0.22718   0.00000  Uiso   1.00
O2226  O     0.82307   0.54274   0.77282   0.00000  Uiso   1.00
O2227  O     0.67693   0.95726   0.22718   0.00000  Uiso   1.00
O2228  O     0.95726   0.67693   0.22718   0.00000  Uiso   1.00
O2229  O     0.54275   0.82307   0.77282   0.00000  Uiso   1.00
O2230  O     0.67693   0.54274   0.22718   0.00000  Uiso   1.00
O2231  O     0.82307   0.95726   0.77282   0.00000  Uiso   1.00
O2232  O     0.54275   0.82307   0.22718   0.00000  Uiso   1.00
O2233  O     0.75000   0.96964   0.33683   0.00000  Uiso   1.00
O2234  O     0.95726   0.67693   0.77282   0.00000  Uiso   1.00
O2235  O     0.82307   0.95726   0.22718   0.00000  Uiso   1.00
O2236  O     0.67693   0.54274   0.77282   0.00000  Uiso   1.00
O2237  O     0.63572   0.91578   0.18281   0.00000  Uiso   1.00
O2238  O     0.88911   0.55970   0.78833   0.00000  Uiso   1.00
O2239  O     0.55603   0.60884   0.22071   0.00000  Uiso   1.00
O2240  O     0.91070   0.85776   0.81924   0.00000  Uiso   1.00
O2241  O     0.86427   0.58423   0.18281   0.00000  Uiso   1.00
O2242  O     0.61089   0.94030   0.78833   0.00000  Uiso   1.00
O2243  O     0.94397   0.89116   0.22071   0.00000  Uiso   1.00
O2244  O     0.75000   0.53036   0.66317   0.00000  Uiso   1.00
O2245  O     0.58930   0.64224   0.81924   0.00000  Uiso   1.00
O2246  O     0.63573   0.58423   0.81719   0.00000  Uiso   1.00
O2247  O     0.88912   0.94030   0.21167   0.00000  Uiso   1.00
O2248  O     0.55603   0.89116   0.77928   0.00000  Uiso   1.00
O2249  O     0.91070   0.64224   0.18076   0.00000  Uiso   1.00
O2250  O     0.86428   0.91578   0.81719   0.00000  Uiso   1.00
O2251  O     0.61089   0.55970   0.21166   0.00000  Uiso   1.00
O2252  O     0.94397   0.60884   0.77929   0.00000  Uiso   1.00
O2253  O     0.58929   0.85777   0.18076   0.00000  Uiso   1.00
O2254  O     0.85884   0.69397   0.72071   0.00000  Uiso   1.00
O2255  O     0.53036   0.75000   0.33683   0.00000  Uiso   1.00
O2256  O     0.60777   0.83929   0.31924   0.00000  Uiso   1.00
O2257  O     0.83423   0.88573   0.68281   0.00000  Uiso   1.00
O2258  O     0.69030   0.63911   0.28833   0.00000  Uiso   1.00
O2259  O     0.64116   0.80603   0.72072   0.00000  Uiso   1.00
O2260  O     0.89224   0.66070   0.31924   0.00000  Uiso   1.00
O2261  O     0.66577   0.61427   0.68281   0.00000  Uiso   1.00
O2262  O     0.80970   0.86089   0.28834   0.00000  Uiso   1.00
O2263  O     0.85884   0.80603   0.27929   0.00000  Uiso   1.00
O2264  O     0.60776   0.66070   0.68076   0.00000  Uiso   1.00
O2265  O     0.83423   0.61427   0.31719   0.00000  Uiso   1.00
O2266  O     0.96964   0.75000   0.66317   0.00000  Uiso   1.00
O2267  O     0.69030   0.86089   0.71167   0.00000  Uiso   1.00
O2268  O     0.64116   0.69397   0.27928   0.00000  Uiso   1.00
O2269  O     0.89224   0.83930   0.68076   0.00000  Uiso   1.00
O2270  O     0.66578   0.88572   0.31719   0.00000  Uiso   1.00
O2271  O     0.80970   0.63911   0.71167   0.00000  Uiso   1.00
O2272  O     0.75000   0.53036   0.33683   0.00000  Uiso   1.00
Zn2273 Zn    0.70660   0.50000   0.21760   0.00000  Uiso   1.00
Zn2274 Zn    0.54340   0.75000   0.28240   0.00000  Uiso   1.00
Zn2275 Zn    0.75000   0.95660   0.71760   0.00000  Uiso   1.00
Zn2276 Zn    0.75000   0.54340   0.28240   0.00000  Uiso   1.00
Zn2277 Zn    0.54340   0.75000   0.71760   0.00000  Uiso   1.00
Zn2278 Zn    0.95660   0.75000   0.28240   0.00000  Uiso   1.00
Zn2279 Zn    0.75000   0.54340   0.71760   0.00000  Uiso   1.00
Zn2280 Zn    0.75000   0.95660   0.28240   0.00000  Uiso   1.00
Zn2281 Zn    0.79340   0.50000   0.78240   0.00000  Uiso   1.00
Zn2282 Zn    0.50000   0.70660   0.21760   0.00000  Uiso   1.00
Zn2283 Zn    0.50000   0.79340   0.78240   0.00000  Uiso   1.00
Zn2284 Zn    0.79340   0.50000   0.21760   0.00000  Uiso   1.00
Zn2285 Zn    0.70660   0.50000   0.78240   0.00000  Uiso   1.00
Zn2286 Zn    0.50000   0.79340   0.21760   0.00000  Uiso   1.00
Zn2287 Zn    0.50000   0.70660   0.78240   0.00000  Uiso   1.00
Zn2288 Zn    0.95660   0.75000   0.71760   0.00000  Uiso   1.00
loop_
_geom_bond_atom_site_label_1
_geom_bond_atom_site_label_2
_geom_bond_distance
_geom_bond_site_symmetry_2
_ccdc_geom_bond_type
C1     C79     1.390   .     A
C1     H217    1.083   .     S
C1     C1288   1.404   .     S
C2     H218    1.083   .     S
C2     C149    1.404   .     A
C2     C136    1.390   .     A
C3     C163    1.465   .     S
C3     C192    1.416   .     A
C3     C199    1.416   .     A
C4     C191    1.407   .     A
C4     C202    1.407   .     A
C4     C164    1.453   .     S
C5     C201    1.407   .     A
C5     C190    1.407   .     A
C5     C165    1.454   .     S
C6     C166    1.462   .     S
C6     C189    1.416   .     A
C6     C204    1.416   .     A
C7     C203    1.416   .     A
C7     C167    1.465   .     S
C7     C188    1.416   .     A
C8     C207    1.407   .     A
C8     C177    1.453   .     S
C8     C187    1.407   .     A
C9     C186    1.407   .     A
C9     C178    1.454   .     S
C9     C205    1.407   .     A
C10    C185    1.416   .     A
C10    C170    1.462   .     S
C10    C209    1.416   .     A
C11    C171    1.465   .     S
C11    C183    1.416   .     A
C11    C208    1.416   .     A
C12    C172    1.453   .     S
C12    C182    1.407   .     A
C12    C211    1.407   .     A
C13    C1294   1.404   .     A
C13    H229    1.083   .     S
C13    C137    1.390   .     A
C14    C181    1.407   .     A
C14    C174    1.454   .     S
C14    C210    1.407   .     A
C15    C213    1.416   .     A
C15    C180    1.416   .     A
C15    C175    1.462   .     S
C16    C179    1.416   .     A
C16    C212    1.416   .     A
C16    C176    1.465   .     S
C17    C160    1.460   .     S
C17    C1223   1.402   1_545 A
C17    C124    1.402   .     S
C18    C159    1.460   .     S
C18    C132    1.402   .     A
C18    C1234   1.402   1_545 S
C19    C158    1.460   .     S
C19    C101    1.402   .     A
C19    C705    1.402   1_455 S
C20    C113    1.402   .     A
C20    C157    1.460   .     S
C20    C706    1.402   1_455 S
C21    C707    1.402   1_455 A
C21    C156    1.460   .     S
C21    C139    1.402   .     S
C22    C136    1.402   .     A
C22    C713    1.402   1_455 S
C22    C155    1.460   .     S
C23    C154    1.460   .     S
C23    C1281   1.402   1_545 A
C23    C142    1.402   .     S
C24    H240    1.083   .     S
C24    C152    1.404   .     A
C24    C138    1.390   .     A
C25    C153    1.460   .     S
C25    C1287   1.402   1_545 A
C25    C138    1.402   .     S
C26    H401    1.117   .     S
C26    C27     1.532   .     S
C26    O521    1.419   .     S
C26    H400    1.110   .     S
C27    H402    1.111   .     S
C27    H403    1.108   .     S
C27    C28     1.526   .     S
C28    H406    1.110   .     S
C28    H405    1.110   .     S
C28    H404    1.111   .     S
C29    C30     1.533   .     S
C29    H409    1.117   .     S
C29    H408    1.110   .     S
C29    O522    1.419   .     S
C30    H411    1.110   .     S
C30    C31     1.526   .     S
C30    H410    1.111   .     S
C31    H412    1.111   .     S
C31    H414    1.111   .     S
C31    H413    1.110   .     S
C32    H415    1.115   .     S
C32    H416    1.115   .     S
C32    O523    1.412   .     S
C32    C605    1.527   1_455 S
C33    H417    1.111   .     S
C33    C34     1.525   .     S
C33    C604    1.527   .     S
C33    H991    1.112   .     S
C34    H420    1.111   .     S
C34    H421    1.110   .     S
C34    H422    1.110   .     S
C35    C148    1.404   .     A
C35    H251    1.083   .     S
C35    C139    1.390   .     A
C36    H424    1.115   .     S
C36    O524    1.416   .     S
C36    C37     1.532   .     S
C36    H423    1.111   .     S
C37    C38     1.526   .     S
C37    H426    1.111   .     S
C37    H425    1.112   .     S
C38    H428    1.110   .     S
C38    H427    1.111   .     S
C38    H430    1.111   .     S
C39    C40     1.532   .     S
C39    H432    1.117   .     S
C39    O525    1.419   .     S
C39    H431    1.110   .     S
C40    H433    1.111   .     S
C40    H434    1.108   .     S
C40    C41     1.526   .     S
C41    H437    1.110   .     S
C41    H435    1.111   .     S
C41    H436    1.110   .     S
C42    H439    1.117   .     S
C42    O526    1.419   .     S
C42    C43     1.533   .     S
C42    H438    1.110   .     S
C43    C44     1.526   .     S
C43    H442    1.110   .     S
C43    H441    1.111   .     S
C44    H445    1.111   .     S
C44    H444    1.110   .     S
C44    H443    1.111   .     S
C45    H446    1.115   .     S
C45    O527    1.412   .     S
C45    H447    1.115   .     S
C45    C619    1.527   .     S
C46    C141    1.390   .     A
C46    H262    1.083   .     S
C46    C721    1.404   .     S
C47    C48     1.526   .     S
C47    H448    1.111   .     S
C47    C617    1.527   1_455 S
C47    H1021   1.112   1_455 S
C48    H450    1.111   .     S
C48    H452    1.110   .     S
C48    H453    1.109   .     S
C49    H455    1.115   .     S
C49    C50     1.532   .     S
C49    O529    1.416   .     S
C49    H454    1.111   .     S
C50    H457    1.111   .     S
C50    H456    1.112   .     S
C50    C51     1.526   .     S
C51    H460    1.111   .     S
C51    H458    1.111   .     S
C51    H459    1.110   .     S
C52    H463    1.117   .     S
C52    C53     1.532   .     S
C52    H461    1.110   .     S
C52    O530    1.419   .     S
C53    H465    1.108   .     S
C53    C54     1.526   .     S
C53    H464    1.112   .     S
C54    H466    1.111   .     S
C54    H467    1.110   .     S
C54    H468    1.110   .     S
C55    H469    1.110   .     S
C55    C56     1.533   .     S
C55    H470    1.117   .     S
C55    O531    1.419   .     S
C56    H472    1.110   .     S
C56    C58     1.526   .     S
C56    H471    1.111   .     S
C57    H273    1.083   .     S
C57    C142    1.390   .     A
C57    C150    1.404   .     S
C58    H221    1.111   .     S
C58    H220    1.110   .     S
C58    H219    1.111   .     S
C59    H222    1.115   .     S
C59    O532    1.412   .     S
C59    H223    1.115   .     S
C59    C632    1.527   1_455 S
C60    C61     1.525   .     S
C60    H224    1.111   .     S
C60    C631    1.527   .     S
C60    H797    1.112   .     S
C61    H227    1.110   .     S
C61    H226    1.111   .     S
C61    H228    1.109   .     S
C62    H230    1.111   .     S
C62    C63     1.532   .     S
C62    O533    1.416   .     S
C62    H231    1.115   .     S
C63    C64     1.526   .     S
C63    H233    1.111   .     S
C63    H232    1.112   .     S
C64    H235    1.110   .     S
C64    H234    1.111   .     S
C64    H236    1.111   .     S
C65    H238    1.117   .     S
C65    H237    1.110   .     S
C65    O534    1.419   .     S
C65    C66     1.532   .     S
C66    C67     1.526   .     S
C66    H241    1.108   .     S
C66    H239    1.111   .     S
C67    H244    1.109   .     S
C67    H242    1.111   .     S
C67    H243    1.110   .     S
C68    C143    1.390   .     A
C68    H284    1.083   .     S
C68    C1296   1.404   .     S
C69    H245    1.110   .     S
C69    C70     1.533   .     S
C69    H246    1.117   .     S
C69    O535    1.419   .     S
C70    H247    1.111   .     S
C70    C71     1.526   .     S
C70    H248    1.110   .     S
C71    H249    1.111   .     S
C71    H252    1.111   .     S
C71    H250    1.110   .     S
C72    H253    1.115   .     S
C72    H254    1.115   .     S
C72    O536    1.412   .     S
C72    C645    1.527   .     S
C73    H255    1.111   .     S
C73    C74     1.525   .     S
C73    C644    1.527   1_455 S
C73    H828    1.112   1_455 S
C74    H258    1.110   .     S
C74    H259    1.109   .     S
C74    H257    1.111   .     S
C75    H261    1.115   .     S
C75    O537    1.416   .     S
C75    C76     1.532   .     S
C75    H260    1.111   .     S
C76    C77     1.526   .     S
C76    H264    1.111   .     S
C76    H263    1.112   .     S
C77    H265    1.111   .     S
C77    H266    1.110   .     S
C77    H267    1.111   .     S
C78    H268    1.115   .     S
C78    C80     1.527   .     S
C78    H269    1.115   .     S
C78    O538    1.412   .     S
C79    H295    1.083   .     S
C79    C1161   1.402   .     A
C80    H271    1.112   .     S
C80    H270    1.111   .     S
C80    C81     1.525   .     S
C81    H274    1.110   .     S
C81    H272    1.111   .     S
C81    H275    1.109   .     S
C82    O540    1.416   .     S
C82    C83     1.532   .     S
C82    H276    1.111   .     S
C82    H277    1.115   .     S
C83    H279    1.111   .     S
C83    C84     1.526   .     S
C83    H278    1.112   .     S
C84    H281    1.110   .     S
C84    H280    1.111   .     S
C84    H282    1.111   .     S
C85    H283    1.110   .     S
C85    C86     1.532   .     S
C85    O541    1.419   .     S
C85    H285    1.117   .     S
C86    H286    1.112   .     S
C86    H287    1.108   .     S
C86    C87     1.526   .     S
C87    H290    1.110   .     S
C87    H288    1.111   .     S
C87    H289    1.110   .     S
C88    H292    1.117   .     S
C88    C89     1.533   .     S
C88    O542    1.419   .     S
C88    H291    1.110   .     S
C89    H294    1.110   .     S
C89    C91     1.526   .     S
C89    H293    1.111   .     S
C90    C112    1.390   .     A
C90    H306    1.083   .     S
C90    C1162   1.402   .     S
C91    H296    1.111   .     S
C91    H298    1.111   .     S
C91    H297    1.110   .     S
C92    O543    1.412   .     S
C92    H299    1.115   .     S
C92    C93     1.527   .     S
C92    H300    1.115   .     S
C93    H302    1.112   .     S
C93    C94     1.525   .     S
C93    H301    1.111   .     S
C94    H303    1.111   .     S
C94    H305    1.109   .     S
C94    H304    1.110   .     S
C95    H307    1.111   .     S
C95    H308    1.115   .     S
C95    O544    1.416   .     S
C95    C96     1.532   .     S
C96    H310    1.111   .     S
C96    H309    1.112   .     S
C96    C97     1.526   .     S
C97    H312    1.110   .     S
C97    H313    1.111   .     S
C97    H311    1.111   .     S
C98    H314    1.110   .     S
C98    C99     1.532   .     S
C98    O545    1.419   .     S
C98    H315    1.117   .     S
C99    H316    1.112   .     S
C99    H318    1.108   .     S
C99    C100    1.526   .     S
C100   H321    1.110   .     S
C100   H319    1.111   .     S
C100   H320    1.110   .     S
C101   H317    1.083   .     S
C101   C140    1.390   .     A
C102   O546    1.419   .     S
C102   H323    1.117   .     S
C102   C103    1.533   .     S
C102   H322    1.110   .     S
C103   H324    1.111   .     S
C103   H325    1.110   .     S
C103   C104    1.526   .     S
C104   H330    1.111   .     S
C104   H327    1.110   .     S
C104   H326    1.111   .     S
C105   H331    1.115   .     S
C105   O547    1.412   .     S
C105   H332    1.115   .     S
C105   C106    1.527   .     S
C106   H334    1.112   .     S
C106   C107    1.525   .     S
C106   H333    1.111   .     S
C107   H336    1.110   .     S
C107   H337    1.110   .     S
C107   H335    1.111   .     S
C108   C109    1.532   .     S
C108   H339    1.115   .     S
C108   O548    1.416   .     S
C108   H338    1.111   .     S
C109   H341    1.112   .     S
C109   C110    1.526   .     S
C109   H342    1.111   .     S
C110   H345    1.111   .     S
C110   H343    1.111   .     S
C110   H344    1.110   .     S
C111   H346    1.110   .     S
C111   H347    1.117   .     S
C111   C114    1.532   .     S
C111   O549    1.419   .     S
C112   H328    1.083   .     S
C112   C1289   1.404   .     S
C113   C151    1.390   .     A
C113   H329    1.083   .     S
C114   C115    1.526   .     S
C114   H349    1.108   .     S
C114   H348    1.112   .     S
C115   H352    1.110   .     S
C115   H350    1.111   .     S
C115   H353    1.110   .     S
C116   H355    1.117   .     S
C116   H354    1.110   .     S
C116   O551    1.419   .     S
C116   C117    1.533   .     S
C117   H357    1.110   .     S
C117   H356    1.111   .     S
C117   C118    1.526   .     S
C118   H360    1.111   .     S
C118   H358    1.111   .     S
C118   H359    1.110   .     S
C119   H363    1.115   .     S
C119   H361    1.115   .     S
C119   C120    1.527   .     S
C119   O552    1.412   .     S
C120   H364    1.111   .     S
C120   H365    1.112   .     S
C120   C121    1.525   .     S
C121   H366    1.111   .     S
C121   H368    1.110   .     S
C121   H367    1.110   .     S
C122   O553    1.416   .     S
C122   H369    1.111   .     S
C122   H370    1.115   .     S
C122   C123    1.532   .     S
C123   H372    1.111   .     S
C123   C125    1.526   .     S
C123   H371    1.112   .     S
C124   H340    1.083   .     S
C124   C162    1.390   .     A
C125   H375    1.110   .     S
C125   H374    1.111   .     S
C125   H376    1.111   .     S
C126   C127    1.532   .     S
C126   H378    1.117   .     S
C126   O554    1.419   .     S
C126   H377    1.110   .     S
C127   C128    1.526   .     S
C127   H380    1.108   .     S
C127   H379    1.112   .     S
C128   H381    1.111   .     S
C128   H383    1.109   .     S
C128   H382    1.110   .     S
C129   H386    1.117   .     S
C129   C130    1.533   .     S
C129   H385    1.110   .     S
C129   O555    1.419   .     S
C130   H388    1.110   .     S
C130   C131    1.526   .     S
C130   H387    1.111   .     S
C131   H389    1.111   .     S
C131   H390    1.110   .     S
C131   H391    1.111   .     S
C132   H351    1.083   .     S
C132   C173    1.390   .     A
C133   C184    1.390   .     A
C133   H362    1.083   .     S
C133   C591    1.402   .     S
C134   C195    1.390   .     A
C134   H373    1.083   .     S
C134   C592    1.402   .     S
C135   H384    1.083   .     S
C135   C206    1.390   .     A
C135   C593    1.402   .     A
C136   H392    1.083   .     S
C137   C1167   1.402   .     A
C137   H393    1.083   .     S
C138   H394    1.083   .     S
C139   H395    1.083   .     S
C140   C146    1.404   .     A
C140   H396    1.083   .     S
C141   H397    1.083   .     S
C141   C594    1.402   .     S
C142   H398    1.083   .     S
C143   H399    1.083   .     S
C143   C1169   1.402   .     A
C144   C162    1.404   .     A
C144   C1145   1.404   1_545 S
C144   C145    1.471   1_554 S
C145   C173    1.404   .     A
C145   C144    1.471   1_556 S
C145   C1256   1.404   1_545 S
C146   C147    1.471   1_554 S
C146   C756    1.404   1_455 S
C147   C151    1.404   .     A
C147   C146    1.471   1_556 S
C147   C767    1.404   1_455 S
C148   C149    1.471   .     S
C148   C778    1.404   1_455 S
C149   C618    1.404   1_455 S
C150   C1157   1.404   1_545 A
C150   C152    1.471   .     S
C151   H407    1.083   .     S
C152   C1212   1.404   1_545 S
C153   O1661   1.282   1_545 A
C153   O556    1.282   .     S
C154   O1618   1.282   1_545 A
C154   O528    1.282   .     S
C155   O1047   1.282   1_455 A
C155   O539    1.282   .     S
C156   O1122   1.282   1_455 A
C156   O476    1.282   .     S
C157   O477    1.282   .     A
C157   O481    1.282   .     A
C158   O478    1.282   .     S
C158   O482    1.282   .     S
C159   O483    1.282   .     A
C159   O479    1.282   .     A
C160   O480    1.282   .     S
C160   O485    1.282   .     S
C161   O486    1.281   .     A
C161   C216    1.462   .     S
C161   O514    1.281   .     A
C162   H418    1.083   .     S
C163   O515    1.281   .     A
C163   O487    1.281   .     A
C164   O488    1.278   .     A
C164   O512    1.278   .     A
C165   O489    1.279   .     A
C165   O513    1.279   .     A
C166   O519    1.281   .     A
C166   O490    1.281   .     A
C167   O520    1.281   .     A
C167   O491    1.281   .     A
C168   C214    1.453   .     S
C168   O492    1.278   .     A
C168   O516    1.278   .     A
C169   O493    1.279   .     A
C169   O518    1.279   .     A
C169   C215    1.454   .     S
C170   O494    1.281   .     A
C170   O505    1.281   .     A
C171   O496    1.281   .     A
C171   O507    1.281   .     A
C172   O497    1.278   .     A
C172   O503    1.278   .     A
C173   H429    1.083   .     S
C174   O498    1.279   .     A
C174   O504    1.279   .     A
C175   O510    1.281   .     A
C175   O499    1.281   .     A
C176   O511    1.281   .     A
C176   O500    1.281   .     A
C177   O501    1.278   .     A
C177   O508    1.278   .     A
C178   O509    1.279   .     A
C178   O502    1.279   .     A
C179   O521    1.386   .     S
C179   C196    1.394   .     A
C180   O522    1.386   .     S
C180   C194    1.391   .     A
C181   O523    1.384   .     S
C181   C193    1.391   .     A
C182   C192    1.394   .     A
C182   O524    1.386   .     S
C183   O525    1.386   .     S
C183   C191    1.394   .     A
C184   H440    1.083   .     S
C184   C718    1.404   .     S
C185   C190    1.391   .     A
C185   O526    1.386   .     S
C186   O527    1.384   .     S
C186   C189    1.391   .     A
C187   O529    1.386   .     S
C187   C188    1.394   .     A
C188   O530    1.386   .     S
C189   O531    1.386   .     S
C190   O532    1.384   .     S
C191   O533    1.386   .     S
C192   O534    1.386   .     S
C193   O535    1.386   .     S
C193   C216    1.416   .     A
C194   C215    1.407   .     A
C194   O536    1.384   .     S
C195   H451    1.083   .     S
C195   C719    1.404   .     S
C196   C214    1.407   .     A
C196   O537    1.386   .     S
C197   O538    1.384   .     S
C197   C213    1.391   .     A
C197   C215    1.407   .     A
C198   C214    1.407   .     A
C198   O540    1.386   .     S
C198   C212    1.394   .     A
C199   O541    1.386   .     S
C199   C211    1.394   .     A
C200   O542    1.386   .     S
C200   C216    1.416   .     A
C200   C210    1.391   .     A
C201   C209    1.391   .     A
C201   O543    1.384   .     S
C202   O544    1.386   .     S
C202   C208    1.394   .     A
C203   O545    1.386   .     S
C203   C207    1.394   .     A
C204   O546    1.386   .     S
C204   C205    1.391   .     A
C205   O547    1.384   .     S
C206   H462    1.083   .     S
C206   C720    1.404   .     S
C207   O548    1.386   .     S
C208   O549    1.386   .     S
C209   O551    1.386   .     S
C210   O552    1.384   .     S
C211   O553    1.386   .     S
C212   O554    1.386   .     S
C213   O555    1.386   .     S
H225   C632    1.112   1_455 S
H256   C645    1.112   .     S
H419   C605    1.112   1_455 S
H449   C619    1.112   .     S
O473   Zn568   1.947   .     S
O473   Zn1708  1.947   1_545 S
O473   Zn557   1.947   .     S
O473   Zn560   1.947   .     S
O474   C1298   1.282   .     A
O474   Zn559   1.937   .     S
O475   Zn562   1.937   .     S
O475   C727    1.282   .     A
O476   Zn561   1.937   .     S
O477   Zn571   1.937   .     S
O478   Zn570   1.937   .     S
O479   Zn565   1.937   .     S
O480   Zn557   1.937   .     S
O481   Zn567   1.937   .     S
O482   Zn566   1.937   .     S
O483   Zn569   1.937   .     S
O484   Zn563   1.947   .     S
O484   Zn565   1.947   .     S
O484   Zn569   1.947   .     S
O484   Zn1703  1.947   1_545 S
O485   Zn568   1.937   .     S
O486   Zn560   1.940   .     S
O487   Zn559   1.940   .     S
O488   Zn562   1.940   .     S
O489   Zn561   1.940   .     S
O490   Zn564   1.940   .     S
O491   Zn563   1.940   .     S
O492   Zn558   1.940   .     S
O493   Zn572   1.940   .     S
O494   Zn559   1.940   .     S
O495   Zn566   1.947   .     S
O495   Zn570   1.947   .     S
O495   Zn558   1.947   .     S
O495   Zn1134  1.947   1_455 S
O496   Zn560   1.940   .     S
O497   Zn572   1.940   .     S
O498   Zn558   1.940   .     S
O499   Zn563   1.940   .     S
O500   Zn564   1.940   .     S
O501   Zn561   1.940   .     S
O502   Zn562   1.940   .     S
O503   Zn1139  1.940   .     S
O504   Zn566   1.940   .     S
O505   Zn1713  1.940   .     S
O506   Zn561   1.947   .     S
O506   Zn567   1.947   .     S
O506   Zn571   1.947   .     S
O506   Zn1144  1.947   1_455 S
O507   Zn568   1.940   .     S
O508   Zn571   1.940   .     S
O509   Zn1142  1.940   .     S
O510   Zn565   1.940   .     S
O511   Zn1701  1.940   .     S
O512   Zn1138  1.940   .     S
O513   Zn567   1.940   .     S
O514   Zn557   1.940   .     S
O515   Zn1709  1.940   .     S
O516   Zn570   1.940   .     S
O517   Zn564   1.937   .     S
O517   C1297   1.282   .     A
O518   Zn1143  1.940   .     S
O519   Zn1712  1.940   .     S
O520   Zn569   1.940   .     S
O528   Zn563   1.937   .     S
O539   Zn558   1.937   .     S
O550   C728    1.282   .     A
O550   Zn572   1.937   .     S
O556   Zn560   1.937   .     S
Zn557  O1655   1.940   1_545 S
Zn559  O1628   1.947   .     S
Zn562  O1067   1.947   .     S
Zn564  O1617   1.947   .     S
Zn565  O1659   1.940   1_545 S
Zn566  O1084   1.940   1_455 S
Zn567  O1075   1.940   1_455 S
Zn568  O1663   1.940   1_545 S
Zn569  O1649   1.940   1_545 S
Zn570  O1081   1.940   1_455 S
Zn571  O1090   1.940   1_455 S
Zn572  O1078   1.947   .     S
C573   C651    1.390   .     A
C573   H789    1.083   .     S
C573   C1860   1.404   .     S
C574   H790    1.083   .     S
C574   C721    1.404   .     A
C574   C708    1.390   .     A
C575   C735    1.465   .     S
C575   C764    1.416   .     A
C575   C771    1.416   .     A
C576   C763    1.407   .     A
C576   C774    1.407   .     A
C576   C736    1.453   .     S
C577   C773    1.407   .     A
C577   C762    1.407   .     A
C577   C737    1.454   .     S
C578   C738    1.462   .     S
C578   C761    1.416   .     A
C578   C776    1.416   .     A
C579   C775    1.416   .     A
C579   C739    1.465   .     S
C579   C760    1.416   .     A
C580   C779    1.407   .     A
C580   C749    1.453   .     S
C580   C759    1.407   .     A
C581   C758    1.407   .     A
C581   C750    1.454   .     S
C581   C777    1.407   .     A
C582   C757    1.416   .     A
C582   C742    1.462   .     S
C582   C781    1.416   .     A
C583   C743    1.465   .     S
C583   C755    1.416   .     A
C583   C780    1.416   .     A
C584   C744    1.453   .     S
C584   C754    1.407   .     A
C584   C783    1.407   .     A
C585   C1866   1.404   .     A
C585   H801    1.083   .     S
C585   C709    1.390   .     A
C586   C753    1.407   .     A
C586   C746    1.454   .     S
C586   C782    1.407   .     A
C587   C785    1.416   .     A
C587   C752    1.416   .     A
C587   C747    1.462   .     S
C588   C751    1.416   .     A
C588   C784    1.416   .     A
C588   C748    1.465   .     S
C589   C732    1.460   .     S
C589   C1795   1.402   1_545 A
C589   C696    1.402   .     S
C590   C731    1.460   .     S
C590   C704    1.402   .     A
C590   C1806   1.402   1_545 S
C591   C730    1.460   .     S
C591   C673    1.402   .     A
C592   C685    1.402   .     A
C592   C729    1.460   .     S
C593   C728    1.460   .     S
C593   C711    1.402   .     S
C594   C708    1.402   .     A
C594   C727    1.460   .     S
C595   C726    1.460   .     S
C595   C1853   1.402   1_545 A
C595   C714    1.402   .     S
C596   H812    1.083   .     S
C596   C724    1.404   .     A
C596   C710    1.390   .     A
C597   C725    1.460   .     S
C597   C1859   1.402   1_545 A
C597   C710    1.402   .     S
C598   H973    1.117   .     S
C598   C599    1.532   .     S
C598   O1093   1.419   .     S
C598   H972    1.110   .     S
C599   H974    1.111   .     S
C599   H975    1.108   .     S
C599   C600    1.526   .     S
C600   H978    1.110   .     S
C600   H977    1.110   .     S
C600   H976    1.111   .     S
C601   C602    1.533   .     S
C601   H981    1.117   .     S
C601   H980    1.110   .     S
C601   O1094   1.419   .     S
C602   H983    1.110   .     S
C602   C603    1.526   .     S
C602   H982    1.111   .     S
C603   H984    1.111   .     S
C603   H986    1.111   .     S
C603   H985    1.110   .     S
C604   H987    1.115   .     S
C604   H988    1.115   .     S
C604   O1095   1.412   .     S
C605   H989    1.111   .     S
C605   C606    1.525   .     S
C605   C32     1.527   1_655 S
C605   H419    1.112   1_655 S
C606   H992    1.111   .     S
C606   H993    1.110   .     S
C606   H994    1.110   .     S
C607   C720    1.404   .     A
C607   H823    1.083   .     S
C607   C711    1.390   .     A
C608   H996    1.115   .     S
C608   O1096   1.416   .     S
C608   C609    1.532   .     S
C608   H995    1.111   .     S
C609   C610    1.526   .     S
C609   H998    1.111   .     S
C609   H997    1.112   .     S
C610   H1000   1.110   .     S
C610   H999    1.111   .     S
C610   H1002   1.111   .     S
C611   C612    1.532   .     S
C611   H1004   1.117   .     S
C611   O1097   1.419   .     S
C611   H1003   1.110   .     S
C612   H1005   1.111   .     S
C612   H1006   1.108   .     S
C612   C613    1.526   .     S
C613   H1009   1.110   .     S
C613   H1007   1.111   .     S
C613   H1008   1.110   .     S
C614   H1011   1.117   .     S
C614   O1098   1.419   .     S
C614   C615    1.533   .     S
C614   H1010   1.110   .     S
C615   C616    1.526   .     S
C615   H1014   1.110   .     S
C615   H1013   1.111   .     S
C616   H1017   1.111   .     S
C616   H1016   1.110   .     S
C616   H1015   1.111   .     S
C617   H1018   1.115   .     S
C617   O1099   1.412   .     S
C617   H1019   1.115   .     S
C617   C47     1.527   1_655 S
C618   C713    1.390   .     A
C618   H834    1.083   .     S
C618   C149    1.404   1_655 S
C619   C620    1.526   .     S
C619   H1020   1.111   .     S
C620   H1022   1.111   .     S
C620   H1024   1.110   .     S
C620   H1025   1.109   .     S
C621   H1027   1.115   .     S
C621   C622    1.532   .     S
C621   O1101   1.416   .     S
C621   H1026   1.111   .     S
C622   H1029   1.111   .     S
C622   H1028   1.112   .     S
C622   C623    1.526   .     S
C623   H1032   1.111   .     S
C623   H1030   1.111   .     S
C623   H1031   1.110   .     S
C624   H1035   1.117   .     S
C624   C625    1.532   .     S
C624   H1033   1.110   .     S
C624   O1102   1.419   .     S
C625   H1037   1.108   .     S
C625   C626    1.526   .     S
C625   H1036   1.112   .     S
C626   H1038   1.111   .     S
C626   H1039   1.110   .     S
C626   H1040   1.110   .     S
C627   H1041   1.110   .     S
C627   C628    1.533   .     S
C627   H1042   1.117   .     S
C627   O1103   1.419   .     S
C628   H1044   1.110   .     S
C628   C630    1.526   .     S
C628   H1043   1.111   .     S
C629   H845    1.083   .     S
C629   C714    1.390   .     A
C629   C722    1.404   .     S
C630   H793    1.111   .     S
C630   H792    1.110   .     S
C630   H791    1.111   .     S
C631   H794    1.115   .     S
C631   O1104   1.412   .     S
C631   H795    1.115   .     S
C632   C633    1.525   .     S
C632   H796    1.111   .     S
C632   C59     1.527   1_655 S
C632   H225    1.112   1_655 S
C633   H799    1.110   .     S
C633   H798    1.111   .     S
C633   H800    1.109   .     S
C634   H802    1.111   .     S
C634   C635    1.532   .     S
C634   O1105   1.416   .     S
C634   H803    1.115   .     S
C635   C636    1.526   .     S
C635   H805    1.111   .     S
C635   H804    1.112   .     S
C636   H807    1.110   .     S
C636   H806    1.111   .     S
C636   H808    1.111   .     S
C637   H810    1.117   .     S
C637   H809    1.110   .     S
C637   O1106   1.419   .     S
C637   C638    1.532   .     S
C638   C639    1.526   .     S
C638   H813    1.108   .     S
C638   H811    1.111   .     S
C639   H816    1.109   .     S
C639   H814    1.111   .     S
C639   H815    1.110   .     S
C640   C715    1.390   .     A
C640   H856    1.083   .     S
C640   C1868   1.404   .     S
C641   H817    1.110   .     S
C641   C642    1.533   .     S
C641   H818    1.117   .     S
C641   O1107   1.419   .     S
C642   H819    1.111   .     S
C642   C643    1.526   .     S
C642   H820    1.110   .     S
C643   H821    1.111   .     S
C643   H824    1.111   .     S
C643   H822    1.110   .     S
C644   H825    1.115   .     S
C644   H826    1.115   .     S
C644   O1108   1.412   .     S
C644   C73     1.527   1_655 S
C645   H827    1.111   .     S
C645   C646    1.525   .     S
C646   H830    1.110   .     S
C646   H831    1.109   .     S
C646   H829    1.111   .     S
C647   H833    1.115   .     S
C647   O1109   1.416   .     S
C647   C648    1.532   .     S
C647   H832    1.111   .     S
C648   C649    1.526   .     S
C648   H836    1.111   .     S
C648   H835    1.112   .     S
C649   H837    1.111   .     S
C649   H838    1.110   .     S
C649   H839    1.111   .     S
C650   H840    1.115   .     S
C650   C652    1.527   .     S
C650   H841    1.115   .     S
C650   O1110   1.412   .     S
C651   H867    1.083   .     S
C651   C1733   1.402   .     A
C652   H843    1.112   .     S
C652   H842    1.111   .     S
C652   C653    1.525   .     S
C653   H846    1.110   .     S
C653   H844    1.111   .     S
C653   H847    1.109   .     S
C654   O1112   1.416   .     S
C654   C655    1.532   .     S
C654   H848    1.111   .     S
C654   H849    1.115   .     S
C655   H851    1.111   .     S
C655   C656    1.526   .     S
C655   H850    1.112   .     S
C656   H853    1.110   .     S
C656   H852    1.111   .     S
C656   H854    1.111   .     S
C657   H855    1.110   .     S
C657   C658    1.532   .     S
C657   O1113   1.419   .     S
C657   H857    1.117   .     S
C658   H858    1.112   .     S
C658   H859    1.108   .     S
C658   C659    1.526   .     S
C659   H862    1.110   .     S
C659   H860    1.111   .     S
C659   H861    1.110   .     S
C660   H864    1.117   .     S
C660   C661    1.533   .     S
C660   O1114   1.419   .     S
C660   H863    1.110   .     S
C661   H866    1.110   .     S
C661   C663    1.526   .     S
C661   H865    1.111   .     S
C662   C684    1.390   .     A
C662   H878    1.083   .     S
C662   C1734   1.402   .     S
C663   H868    1.111   .     S
C663   H870    1.111   .     S
C663   H869    1.110   .     S
C664   O1115   1.412   .     S
C664   H871    1.115   .     S
C664   C665    1.527   .     S
C664   H872    1.115   .     S
C665   H874    1.112   .     S
C665   C666    1.525   .     S
C665   H873    1.111   .     S
C666   H875    1.111   .     S
C666   H877    1.109   .     S
C666   H876    1.110   .     S
C667   H879    1.111   .     S
C667   H880    1.115   .     S
C667   O1116   1.416   .     S
C667   C668    1.532   .     S
C668   H882    1.111   .     S
C668   H881    1.112   .     S
C668   C669    1.526   .     S
C669   H884    1.110   .     S
C669   H885    1.111   .     S
C669   H883    1.111   .     S
C670   H886    1.110   .     S
C670   C671    1.532   .     S
C670   O1117   1.419   .     S
C670   H887    1.117   .     S
C671   H888    1.112   .     S
C671   H890    1.108   .     S
C671   C672    1.526   .     S
C672   H893    1.110   .     S
C672   H891    1.111   .     S
C672   H892    1.110   .     S
C673   H889    1.083   .     S
C673   C712    1.390   .     A
C674   O1118   1.419   .     S
C674   H895    1.117   .     S
C674   C675    1.533   .     S
C674   H894    1.110   .     S
C675   H896    1.111   .     S
C675   H897    1.110   .     S
C675   C676    1.526   .     S
C676   H902    1.111   .     S
C676   H899    1.110   .     S
C676   H898    1.111   .     S
C677   H903    1.115   .     S
C677   O1119   1.412   .     S
C677   H904    1.115   .     S
C677   C678    1.527   .     S
C678   H906    1.112   .     S
C678   C679    1.525   .     S
C678   H905    1.111   .     S
C679   H908    1.110   .     S
C679   H909    1.110   .     S
C679   H907    1.111   .     S
C680   C681    1.532   .     S
C680   H911    1.115   .     S
C680   O1120   1.416   .     S
C680   H910    1.111   .     S
C681   H913    1.112   .     S
C681   C682    1.526   .     S
C681   H914    1.111   .     S
C682   H917    1.111   .     S
C682   H915    1.111   .     S
C682   H916    1.110   .     S
C683   H918    1.110   .     S
C683   H919    1.117   .     S
C683   C686    1.532   .     S
C683   O1121   1.419   .     S
C684   H900    1.083   .     S
C684   C1861   1.404   .     S
C685   C723    1.390   .     A
C685   H901    1.083   .     S
C686   C687    1.526   .     S
C686   H921    1.108   .     S
C686   H920    1.112   .     S
C687   H924    1.110   .     S
C687   H922    1.111   .     S
C687   H925    1.110   .     S
C688   H927    1.117   .     S
C688   H926    1.110   .     S
C688   O1123   1.419   .     S
C688   C689    1.533   .     S
C689   H929    1.110   .     S
C689   H928    1.111   .     S
C689   C690    1.526   .     S
C690   H932    1.111   .     S
C690   H930    1.111   .     S
C690   H931    1.110   .     S
C691   H935    1.115   .     S
C691   H933    1.115   .     S
C691   C692    1.527   .     S
C691   O1124   1.412   .     S
C692   H936    1.111   .     S
C692   H937    1.112   .     S
C692   C693    1.525   .     S
C693   H938    1.111   .     S
C693   H940    1.110   .     S
C693   H939    1.110   .     S
C694   O1125   1.416   .     S
C694   H941    1.111   .     S
C694   H942    1.115   .     S
C694   C695    1.532   .     S
C695   H944    1.111   .     S
C695   C697    1.526   .     S
C695   H943    1.112   .     S
C696   H912    1.083   .     S
C696   C734    1.390   .     A
C697   H947    1.110   .     S
C697   H946    1.111   .     S
C697   H948    1.111   .     S
C698   C699    1.532   .     S
C698   H950    1.117   .     S
C698   O1126   1.419   .     S
C698   H949    1.110   .     S
C699   C700    1.526   .     S
C699   H952    1.108   .     S
C699   H951    1.112   .     S
C700   H953    1.111   .     S
C700   H955    1.109   .     S
C700   H954    1.110   .     S
C701   H958    1.117   .     S
C701   C702    1.533   .     S
C701   H957    1.110   .     S
C701   O1127   1.419   .     S
C702   H960    1.110   .     S
C702   C703    1.526   .     S
C702   H959    1.111   .     S
C703   H961    1.111   .     S
C703   H962    1.110   .     S
C703   H963    1.111   .     S
C704   H923    1.083   .     S
C704   C745    1.390   .     A
C705   C756    1.390   .     A
C705   H934    1.083   .     S
C705   C19     1.402   1_655 S
C706   C767    1.390   .     A
C706   H945    1.083   .     S
C706   C20     1.402   1_655 S
C707   H956    1.083   .     S
C707   C778    1.390   .     A
C707   C21     1.402   1_655 A
C708   H964    1.083   .     S
C709   C1739   1.402   .     A
C709   H965    1.083   .     S
C710   H966    1.083   .     S
C711   H967    1.083   .     S
C712   C718    1.404   .     A
C712   H968    1.083   .     S
C713   H969    1.083   .     S
C713   C22     1.402   1_655 S
C714   H970    1.083   .     S
C715   H971    1.083   .     S
C715   C1741   1.402   .     A
C716   C734    1.404   .     A
C716   C1717   1.404   1_545 S
C716   C717    1.471   1_554 S
C717   C745    1.404   .     A
C717   C716    1.471   1_556 S
C717   C1828   1.404   1_545 S
C718   C719    1.471   1_554 S
C719   C723    1.404   .     A
C719   C718    1.471   1_556 S
C720   C721    1.471   .     S
C722   C1729   1.404   1_545 A
C722   C724    1.471   .     S
C723   H979    1.083   .     S
C724   C1784   1.404   1_545 S
C725   O2233   1.282   1_545 A
C725   O1128   1.282   .     S
C726   O2190   1.282   1_545 A
C726   O1100   1.282   .     S
C727   O1111   1.282   .     S
C728   O1048   1.282   .     S
C729   O1049   1.282   .     A
C729   O1053   1.282   .     A
C730   O1050   1.282   .     S
C730   O1054   1.282   .     S
C731   O1055   1.282   .     A
C731   O1051   1.282   .     A
C732   O1052   1.282   .     S
C732   O1057   1.282   .     S
C733   O1058   1.281   .     A
C733   C788    1.462   .     S
C733   O1086   1.281   .     A
C734   H990    1.083   .     S
C735   O1087   1.281   .     A
C735   O1059   1.281   .     A
C736   O1060   1.278   .     A
C736   O1084   1.278   .     A
C737   O1061   1.279   .     A
C737   O1085   1.279   .     A
C738   O1091   1.281   .     A
C738   O1062   1.281   .     A
C739   O1092   1.281   .     A
C739   O1063   1.281   .     A
C740   C786    1.453   .     S
C740   O1064   1.278   .     A
C740   O1088   1.278   .     A
C741   O1065   1.279   .     A
C741   O1090   1.279   .     A
C741   C787    1.454   .     S
C742   O1066   1.281   .     A
C742   O1077   1.281   .     A
C743   O1068   1.281   .     A
C743   O1079   1.281   .     A
C744   O1069   1.278   .     A
C744   O1075   1.278   .     A
C745   H1001   1.083   .     S
C746   O1070   1.279   .     A
C746   O1076   1.279   .     A
C747   O1082   1.281   .     A
C747   O1071   1.281   .     A
C748   O1083   1.281   .     A
C748   O1072   1.281   .     A
C749   O1073   1.278   .     A
C749   O1080   1.278   .     A
C750   O1081   1.279   .     A
C750   O1074   1.279   .     A
C751   O1093   1.386   .     S
C751   C768    1.394   .     A
C752   O1094   1.386   .     S
C752   C766    1.391   .     A
C753   O1095   1.384   .     S
C753   C765    1.391   .     A
C754   C764    1.394   .     A
C754   O1096   1.386   .     S
C755   O1097   1.386   .     S
C755   C763    1.394   .     A
C756   H1012   1.083   .     S
C756   C146    1.404   1_655 S
C757   C762    1.391   .     A
C757   O1098   1.386   .     S
C758   O1099   1.384   .     S
C758   C761    1.391   .     A
C759   O1101   1.386   .     S
C759   C760    1.394   .     A
C760   O1102   1.386   .     S
C761   O1103   1.386   .     S
C762   O1104   1.384   .     S
C763   O1105   1.386   .     S
C764   O1106   1.386   .     S
C765   O1107   1.386   .     S
C765   C788    1.416   .     A
C766   C787    1.407   .     A
C766   O1108   1.384   .     S
C767   H1023   1.083   .     S
C767   C147    1.404   1_655 S
C768   C786    1.407   .     A
C768   O1109   1.386   .     S
C769   O1110   1.384   .     S
C769   C785    1.391   .     A
C769   C787    1.407   .     A
C770   C786    1.407   .     A
C770   O1112   1.386   .     S
C770   C784    1.394   .     A
C771   O1113   1.386   .     S
C771   C783    1.394   .     A
C772   O1114   1.386   .     S
C772   C788    1.416   .     A
C772   C782    1.391   .     A
C773   C781    1.391   .     A
C773   O1115   1.384   .     S
C774   O1116   1.386   .     S
C774   C780    1.394   .     A
C775   O1117   1.386   .     S
C775   C779    1.394   .     A
C776   O1118   1.386   .     S
C776   C777    1.391   .     A
C777   O1119   1.384   .     S
C778   H1034   1.083   .     S
C778   C148    1.404   1_655 S
C779   O1120   1.386   .     S
C780   O1121   1.386   .     S
C781   O1123   1.386   .     S
C782   O1124   1.384   .     S
C783   O1125   1.386   .     S
C784   O1126   1.386   .     S
C785   O1127   1.386   .     S
H828   C73     1.112   1_655 S
H1021  C47     1.112   1_655 S
O1045  Zn1140  1.947   .     S
O1045  Zn2280  1.947   1_545 S
O1045  Zn1129  1.947   .     S
O1045  Zn1132  1.947   .     S
O1046  C1870   1.282   .     A
O1046  Zn1131  1.937   .     S
O1047  Zn1134  1.937   .     S
O1047  C155    1.282   1_655 A
O1048  Zn1133  1.937   .     S
O1049  Zn1143  1.937   .     S
O1050  Zn1142  1.937   .     S
O1051  Zn1137  1.937   .     S
O1052  Zn1129  1.937   .     S
O1053  Zn1139  1.937   .     S
O1054  Zn1138  1.937   .     S
O1055  Zn1141  1.937   .     S
O1056  Zn1135  1.947   .     S
O1056  Zn1137  1.947   .     S
O1056  Zn1141  1.947   .     S
O1056  Zn2275  1.947   1_545 S
O1057  Zn1140  1.937   .     S
O1058  Zn1132  1.940   .     S
O1059  Zn1131  1.940   .     S
O1060  Zn1134  1.940   .     S
O1061  Zn1133  1.940   .     S
O1062  Zn1136  1.940   .     S
O1063  Zn1135  1.940   .     S
O1064  Zn1130  1.940   .     S
O1065  Zn1144  1.940   .     S
O1066  Zn1131  1.940   .     S
O1067  Zn1138  1.947   .     S
O1067  Zn1142  1.947   .     S
O1067  Zn1130  1.947   .     S
O1068  Zn1132  1.940   .     S
O1069  Zn1144  1.940   .     S
O1070  Zn1130  1.940   .     S
O1071  Zn1135  1.940   .     S
O1072  Zn1136  1.940   .     S
O1073  Zn1133  1.940   .     S
O1074  Zn1134  1.940   .     S
O1075  Zn567   1.940   1_655 S
O1076  Zn1138  1.940   .     S
O1077  Zn2285  1.940   .     S
O1078  Zn1133  1.947   .     S
O1078  Zn1139  1.947   .     S
O1078  Zn1143  1.947   .     S
O1079  Zn1140  1.940   .     S
O1080  Zn1143  1.940   .     S
O1081  Zn570   1.940   1_655 S
O1082  Zn1137  1.940   .     S
O1083  Zn2273  1.940   .     S
O1084  Zn566   1.940   1_655 S
O1085  Zn1139  1.940   .     S
O1086  Zn1129  1.940   .     S
O1087  Zn2281  1.940   .     S
O1088  Zn1142  1.940   .     S
O1089  Zn1136  1.937   .     S
O1089  C1869   1.282   .     A
O1090  Zn571   1.940   1_655 S
O1091  Zn2284  1.940   .     S
O1092  Zn1141  1.940   .     S
O1100  Zn1135  1.937   .     S
O1111  Zn1130  1.937   .     S
O1122  C156    1.282   1_655 A
O1122  Zn1144  1.937   .     S
O1128  Zn1132  1.937   .     S
Zn1129 O2227   1.940   1_545 S
Zn1131 O2200   1.947   .     S
Zn1134 O495    1.947   1_655 S
Zn1136 O2189   1.947   .     S
Zn1137 O2231   1.940   1_545 S
Zn1140 O2235   1.940   1_545 S
Zn1141 O2221   1.940   1_545 S
Zn1144 O506    1.947   1_655 S
C1145  C1223   1.390   .     A
C1145  H1361   1.083   .     S
C1145  C144    1.404   1_565 S
C1146  H1362   1.083   .     S
C1146  C1293   1.404   .     A
C1146  C1280   1.390   .     A
C1147  C1307   1.465   .     S
C1147  C1336   1.416   .     A
C1147  C1343   1.416   .     A
C1148  C1335   1.407   .     A
C1148  C1346   1.407   .     A
C1148  C1308   1.453   .     S
C1149  C1345   1.407   .     A
C1149  C1334   1.407   .     A
C1149  C1309   1.454   .     S
C1150  C1310   1.462   .     S
C1150  C1333   1.416   .     A
C1150  C1348   1.416   .     A
C1151  C1347   1.416   .     A
C1151  C1311   1.465   .     S
C1151  C1332   1.416   .     A
C1152  C1351   1.407   .     A
C1152  C1321   1.453   .     S
C1152  C1331   1.407   .     A
C1153  C1330   1.407   .     A
C1153  C1322   1.454   .     S
C1153  C1349   1.407   .     A
C1154  C1329   1.416   .     A
C1154  C1314   1.462   .     S
C1154  C1353   1.416   .     A
C1155  C1315   1.465   .     S
C1155  C1327   1.416   .     A
C1155  C1352   1.416   .     A
C1156  C1316   1.453   .     S
C1156  C1326   1.407   .     A
C1156  C1355   1.407   .     A
C1157  C150    1.404   1_565 A
C1157  H1373   1.083   .     S
C1157  C1281   1.390   .     A
C1158  C1325   1.407   .     A
C1158  C1318   1.454   .     S
C1158  C1354   1.407   .     A
C1159  C1357   1.416   .     A
C1159  C1324   1.416   .     A
C1159  C1319   1.462   .     S
C1160  C1323   1.416   .     A
C1160  C1356   1.416   .     A
C1160  C1320   1.465   .     S
C1161  C1304   1.460   .     S
C1161  C1268   1.402   .     S
C1162  C1303   1.460   .     S
C1162  C1276   1.402   .     A
C1163  C1302   1.460   .     S
C1163  C1245   1.402   .     A
C1163  C1849   1.402   1_455 S
C1164  C1257   1.402   .     A
C1164  C1301   1.460   .     S
C1164  C1850   1.402   1_455 S
C1165  C1851   1.402   1_455 A
C1165  C1300   1.460   .     S
C1165  C1283   1.402   .     S
C1166  C1280   1.402   .     A
C1166  C1857   1.402   1_455 S
C1166  C1299   1.460   .     S
C1167  C1298   1.460   .     S
C1167  C1286   1.402   .     S
C1168  H1384   1.083   .     S
C1168  C1296   1.404   .     A
C1168  C1282   1.390   .     A
C1169  C1297   1.460   .     S
C1169  C1282   1.402   .     S
C1170  H1545   1.117   .     S
C1170  C1171   1.532   .     S
C1170  O1665   1.419   .     S
C1170  H1544   1.110   .     S
C1171  H1546   1.111   .     S
C1171  H1547   1.108   .     S
C1171  C1172   1.526   .     S
C1172  H1550   1.110   .     S
C1172  H1549   1.110   .     S
C1172  H1548   1.111   .     S
C1173  C1174   1.533   .     S
C1173  H1553   1.117   .     S
C1173  H1552   1.110   .     S
C1173  O1666   1.419   .     S
C1174  H1555   1.110   .     S
C1174  C1175   1.526   .     S
C1174  H1554   1.111   .     S
C1175  H1556   1.111   .     S
C1175  H1558   1.111   .     S
C1175  H1557   1.110   .     S
C1176  H1559   1.115   .     S
C1176  H1560   1.115   .     S
C1176  O1667   1.412   .     S
C1176  C1749   1.527   1_455 S
C1177  H1561   1.111   .     S
C1177  C1178   1.525   .     S
C1177  C1748   1.527   .     S
C1177  H2135   1.112   .     S
C1178  H1564   1.111   .     S
C1178  H1565   1.110   .     S
C1178  H1566   1.110   .     S
C1179  C1292   1.404   .     A
C1179  H1395   1.083   .     S
C1179  C1283   1.390   .     A
C1180  H1568   1.115   .     S
C1180  O1668   1.416   .     S
C1180  C1181   1.532   .     S
C1180  H1567   1.111   .     S
C1181  C1182   1.526   .     S
C1181  H1570   1.111   .     S
C1181  H1569   1.112   .     S
C1182  H1572   1.110   .     S
C1182  H1571   1.111   .     S
C1182  H1574   1.111   .     S
C1183  C1184   1.532   .     S
C1183  H1576   1.117   .     S
C1183  O1669   1.419   .     S
C1183  H1575   1.110   .     S
C1184  H1577   1.111   .     S
C1184  H1578   1.108   .     S
C1184  C1185   1.526   .     S
C1185  H1581   1.110   .     S
C1185  H1579   1.111   .     S
C1185  H1580   1.110   .     S
C1186  H1583   1.117   .     S
C1186  O1670   1.419   .     S
C1186  C1187   1.533   .     S
C1186  H1582   1.110   .     S
C1187  C1188   1.526   .     S
C1187  H1586   1.110   .     S
C1187  H1585   1.111   .     S
C1188  H1589   1.111   .     S
C1188  H1588   1.110   .     S
C1188  H1587   1.111   .     S
C1189  H1590   1.115   .     S
C1189  O1671   1.412   .     S
C1189  H1591   1.115   .     S
C1189  C1763   1.527   .     S
C1190  C1285   1.390   .     A
C1190  H1406   1.083   .     S
C1190  C1865   1.404   .     S
C1191  C1192   1.526   .     S
C1191  H1592   1.111   .     S
C1191  C1761   1.527   1_455 S
C1191  H2165   1.112   1_455 S
C1192  H1594   1.111   .     S
C1192  H1596   1.110   .     S
C1192  H1597   1.109   .     S
C1193  H1599   1.115   .     S
C1193  C1194   1.532   .     S
C1193  O1673   1.416   .     S
C1193  H1598   1.111   .     S
C1194  H1601   1.111   .     S
C1194  H1600   1.112   .     S
C1194  C1195   1.526   .     S
C1195  H1604   1.111   .     S
C1195  H1602   1.111   .     S
C1195  H1603   1.110   .     S
C1196  H1607   1.117   .     S
C1196  C1197   1.532   .     S
C1196  H1605   1.110   .     S
C1196  O1674   1.419   .     S
C1197  H1609   1.108   .     S
C1197  C1198   1.526   .     S
C1197  H1608   1.112   .     S
C1198  H1610   1.111   .     S
C1198  H1611   1.110   .     S
C1198  H1612   1.110   .     S
C1199  H1613   1.110   .     S
C1199  C1200   1.533   .     S
C1199  H1614   1.117   .     S
C1199  O1675   1.419   .     S
C1200  H1616   1.110   .     S
C1200  C1202   1.526   .     S
C1200  H1615   1.111   .     S
C1201  H1417   1.083   .     S
C1201  C1286   1.390   .     A
C1201  C1294   1.404   .     S
C1202  H1365   1.111   .     S
C1202  H1364   1.110   .     S
C1202  H1363   1.111   .     S
C1203  H1366   1.115   .     S
C1203  O1676   1.412   .     S
C1203  H1367   1.115   .     S
C1203  C1776   1.527   1_455 S
C1204  C1205   1.525   .     S
C1204  H1368   1.111   .     S
C1204  C1775   1.527   .     S
C1204  H1941   1.112   .     S
C1205  H1371   1.110   .     S
C1205  H1370   1.111   .     S
C1205  H1372   1.109   .     S
C1206  H1374   1.111   .     S
C1206  C1207   1.532   .     S
C1206  O1677   1.416   .     S
C1206  H1375   1.115   .     S
C1207  C1208   1.526   .     S
C1207  H1377   1.111   .     S
C1207  H1376   1.112   .     S
C1208  H1379   1.110   .     S
C1208  H1378   1.111   .     S
C1208  H1380   1.111   .     S
C1209  H1382   1.117   .     S
C1209  H1381   1.110   .     S
C1209  O1678   1.419   .     S
C1209  C1210   1.532   .     S
C1210  C1211   1.526   .     S
C1210  H1385   1.108   .     S
C1210  H1383   1.111   .     S
C1211  H1388   1.109   .     S
C1211  H1386   1.111   .     S
C1211  H1387   1.110   .     S
C1212  C1287   1.390   .     A
C1212  H1428   1.083   .     S
C1212  C152    1.404   1_565 S
C1213  H1389   1.110   .     S
C1213  C1214   1.533   .     S
C1213  H1390   1.117   .     S
C1213  O1679   1.419   .     S
C1214  H1391   1.111   .     S
C1214  C1215   1.526   .     S
C1214  H1392   1.110   .     S
C1215  H1393   1.111   .     S
C1215  H1396   1.111   .     S
C1215  H1394   1.110   .     S
C1216  H1397   1.115   .     S
C1216  H1398   1.115   .     S
C1216  O1680   1.412   .     S
C1216  C1789   1.527   .     S
C1217  H1399   1.111   .     S
C1217  C1218   1.525   .     S
C1217  C1788   1.527   1_455 S
C1217  H1972   1.112   1_455 S
C1218  H1402   1.110   .     S
C1218  H1403   1.109   .     S
C1218  H1401   1.111   .     S
C1219  H1405   1.115   .     S
C1219  O1681   1.416   .     S
C1219  C1220   1.532   .     S
C1219  H1404   1.111   .     S
C1220  C1221   1.526   .     S
C1220  H1408   1.111   .     S
C1220  H1407   1.112   .     S
C1221  H1409   1.111   .     S
C1221  H1410   1.110   .     S
C1221  H1411   1.111   .     S
C1222  H1412   1.115   .     S
C1222  C1224   1.527   .     S
C1222  H1413   1.115   .     S
C1222  O1682   1.412   .     S
C1223  H1439   1.083   .     S
C1223  C17     1.402   1_565 A
C1224  H1415   1.112   .     S
C1224  H1414   1.111   .     S
C1224  C1225   1.525   .     S
C1225  H1418   1.110   .     S
C1225  H1416   1.111   .     S
C1225  H1419   1.109   .     S
C1226  O1684   1.416   .     S
C1226  C1227   1.532   .     S
C1226  H1420   1.111   .     S
C1226  H1421   1.115   .     S
C1227  H1423   1.111   .     S
C1227  C1228   1.526   .     S
C1227  H1422   1.112   .     S
C1228  H1425   1.110   .     S
C1228  H1424   1.111   .     S
C1228  H1426   1.111   .     S
C1229  H1427   1.110   .     S
C1229  C1230   1.532   .     S
C1229  O1685   1.419   .     S
C1229  H1429   1.117   .     S
C1230  H1430   1.112   .     S
C1230  H1431   1.108   .     S
C1230  C1231   1.526   .     S
C1231  H1434   1.110   .     S
C1231  H1432   1.111   .     S
C1231  H1433   1.110   .     S
C1232  H1436   1.117   .     S
C1232  C1233   1.533   .     S
C1232  O1686   1.419   .     S
C1232  H1435   1.110   .     S
C1233  H1438   1.110   .     S
C1233  C1235   1.526   .     S
C1233  H1437   1.111   .     S
C1234  C1256   1.390   .     A
C1234  H1450   1.083   .     S
C1234  C18     1.402   1_565 S
C1235  H1440   1.111   .     S
C1235  H1442   1.111   .     S
C1235  H1441   1.110   .     S
C1236  O1687   1.412   .     S
C1236  H1443   1.115   .     S
C1236  C1237   1.527   .     S
C1236  H1444   1.115   .     S
C1237  H1446   1.112   .     S
C1237  C1238   1.525   .     S
C1237  H1445   1.111   .     S
C1238  H1447   1.111   .     S
C1238  H1449   1.109   .     S
C1238  H1448   1.110   .     S
C1239  H1451   1.111   .     S
C1239  H1452   1.115   .     S
C1239  O1688   1.416   .     S
C1239  C1240   1.532   .     S
C1240  H1454   1.111   .     S
C1240  H1453   1.112   .     S
C1240  C1241   1.526   .     S
C1241  H1456   1.110   .     S
C1241  H1457   1.111   .     S
C1241  H1455   1.111   .     S
C1242  H1458   1.110   .     S
C1242  C1243   1.532   .     S
C1242  O1689   1.419   .     S
C1242  H1459   1.117   .     S
C1243  H1460   1.112   .     S
C1243  H1462   1.108   .     S
C1243  C1244   1.526   .     S
C1244  H1465   1.110   .     S
C1244  H1463   1.111   .     S
C1244  H1464   1.110   .     S
C1245  H1461   1.083   .     S
C1245  C1284   1.390   .     A
C1246  O1690   1.419   .     S
C1246  H1467   1.117   .     S
C1246  C1247   1.533   .     S
C1246  H1466   1.110   .     S
C1247  H1468   1.111   .     S
C1247  H1469   1.110   .     S
C1247  C1248   1.526   .     S
C1248  H1474   1.111   .     S
C1248  H1471   1.110   .     S
C1248  H1470   1.111   .     S
C1249  H1475   1.115   .     S
C1249  O1691   1.412   .     S
C1249  H1476   1.115   .     S
C1249  C1250   1.527   .     S
C1250  H1478   1.112   .     S
C1250  C1251   1.525   .     S
C1250  H1477   1.111   .     S
C1251  H1480   1.110   .     S
C1251  H1481   1.110   .     S
C1251  H1479   1.111   .     S
C1252  C1253   1.532   .     S
C1252  H1483   1.115   .     S
C1252  O1692   1.416   .     S
C1252  H1482   1.111   .     S
C1253  H1485   1.112   .     S
C1253  C1254   1.526   .     S
C1253  H1486   1.111   .     S
C1254  H1489   1.111   .     S
C1254  H1487   1.111   .     S
C1254  H1488   1.110   .     S
C1255  H1490   1.110   .     S
C1255  H1491   1.117   .     S
C1255  C1258   1.532   .     S
C1255  O1693   1.419   .     S
C1256  H1472   1.083   .     S
C1256  C145    1.404   1_565 S
C1257  C1295   1.390   .     A
C1257  H1473   1.083   .     S
C1258  C1259   1.526   .     S
C1258  H1493   1.108   .     S
C1258  H1492   1.112   .     S
C1259  H1496   1.110   .     S
C1259  H1494   1.111   .     S
C1259  H1497   1.110   .     S
C1260  H1499   1.117   .     S
C1260  H1498   1.110   .     S
C1260  O1695   1.419   .     S
C1260  C1261   1.533   .     S
C1261  H1501   1.110   .     S
C1261  H1500   1.111   .     S
C1261  C1262   1.526   .     S
C1262  H1504   1.111   .     S
C1262  H1502   1.111   .     S
C1262  H1503   1.110   .     S
C1263  H1507   1.115   .     S
C1263  H1505   1.115   .     S
C1263  C1264   1.527   .     S
C1263  O1696   1.412   .     S
C1264  H1508   1.111   .     S
C1264  H1509   1.112   .     S
C1264  C1265   1.525   .     S
C1265  H1510   1.111   .     S
C1265  H1512   1.110   .     S
C1265  H1511   1.110   .     S
C1266  O1697   1.416   .     S
C1266  H1513   1.111   .     S
C1266  H1514   1.115   .     S
C1266  C1267   1.532   .     S
C1267  H1516   1.111   .     S
C1267  C1269   1.526   .     S
C1267  H1515   1.112   .     S
C1268  H1484   1.083   .     S
C1268  C1306   1.390   .     A
C1269  H1519   1.110   .     S
C1269  H1518   1.111   .     S
C1269  H1520   1.111   .     S
C1270  C1271   1.532   .     S
C1270  H1522   1.117   .     S
C1270  O1698   1.419   .     S
C1270  H1521   1.110   .     S
C1271  C1272   1.526   .     S
C1271  H1524   1.108   .     S
C1271  H1523   1.112   .     S
C1272  H1525   1.111   .     S
C1272  H1527   1.109   .     S
C1272  H1526   1.110   .     S
C1273  H1530   1.117   .     S
C1273  C1274   1.533   .     S
C1273  H1529   1.110   .     S
C1273  O1699   1.419   .     S
C1274  H1532   1.110   .     S
C1274  C1275   1.526   .     S
C1274  H1531   1.111   .     S
C1275  H1533   1.111   .     S
C1275  H1534   1.110   .     S
C1275  H1535   1.111   .     S
C1276  H1495   1.083   .     S
C1276  C1317   1.390   .     A
C1277  C1328   1.390   .     A
C1277  H1506   1.083   .     S
C1277  C1735   1.402   .     S
C1278  C1339   1.390   .     A
C1278  H1517   1.083   .     S
C1278  C1736   1.402   .     S
C1279  H1528   1.083   .     S
C1279  C1350   1.390   .     A
C1279  C1737   1.402   .     A
C1280  H1536   1.083   .     S
C1281  C23     1.402   1_565 A
C1281  H1537   1.083   .     S
C1282  H1538   1.083   .     S
C1283  H1539   1.083   .     S
C1284  C1290   1.404   .     A
C1284  H1540   1.083   .     S
C1285  H1541   1.083   .     S
C1285  C1738   1.402   .     S
C1286  H1542   1.083   .     S
C1287  H1543   1.083   .     S
C1287  C25     1.402   1_565 A
C1288  C1306   1.404   .     A
C1288  C1289   1.471   1_554 S
C1289  C1317   1.404   .     A
C1289  C1288   1.471   1_556 S
C1290  C1291   1.471   1_554 S
C1290  C1900   1.404   1_455 S
C1291  C1295   1.404   .     A
C1291  C1290   1.471   1_556 S
C1291  C1911   1.404   1_455 S
C1292  C1293   1.471   .     S
C1292  C1922   1.404   1_455 S
C1293  C1762   1.404   1_455 S
C1294  C1296   1.471   .     S
C1295  H1551   1.083   .     S
C1297  O1700   1.282   .     S
C1298  O1672   1.282   .     S
C1299  O2191   1.282   1_455 A
C1299  O1683   1.282   .     S
C1300  O2266   1.282   1_455 A
C1300  O1620   1.282   .     S
C1301  O1621   1.282   .     A
C1301  O1625   1.282   .     A
C1302  O1622   1.282   .     S
C1302  O1626   1.282   .     S
C1303  O1627   1.282   .     A
C1303  O1623   1.282   .     A
C1304  O1624   1.282   .     S
C1304  O1629   1.282   .     S
C1305  O1630   1.281   .     A
C1305  C1360   1.462   .     S
C1305  O1658   1.281   .     A
C1306  H1562   1.083   .     S
C1307  O1659   1.281   .     A
C1307  O1631   1.281   .     A
C1308  O1632   1.278   .     A
C1308  O1656   1.278   .     A
C1309  O1633   1.279   .     A
C1309  O1657   1.279   .     A
C1310  O1663   1.281   .     A
C1310  O1634   1.281   .     A
C1311  O1664   1.281   .     A
C1311  O1635   1.281   .     A
C1312  C1358   1.453   .     S
C1312  O1636   1.278   .     A
C1312  O1660   1.278   .     A
C1313  O1637   1.279   .     A
C1313  O1662   1.279   .     A
C1313  C1359   1.454   .     S
C1314  O1638   1.281   .     A
C1314  O1649   1.281   .     A
C1315  O1640   1.281   .     A
C1315  O1651   1.281   .     A
C1316  O1641   1.278   .     A
C1316  O1647   1.278   .     A
C1317  H1573   1.083   .     S
C1318  O1642   1.279   .     A
C1318  O1648   1.279   .     A
C1319  O1654   1.281   .     A
C1319  O1643   1.281   .     A
C1320  O1655   1.281   .     A
C1320  O1644   1.281   .     A
C1321  O1645   1.278   .     A
C1321  O1652   1.278   .     A
C1322  O1653   1.279   .     A
C1322  O1646   1.279   .     A
C1323  O1665   1.386   .     S
C1323  C1340   1.394   .     A
C1324  O1666   1.386   .     S
C1324  C1338   1.391   .     A
C1325  O1667   1.384   .     S
C1325  C1337   1.391   .     A
C1326  C1336   1.394   .     A
C1326  O1668   1.386   .     S
C1327  O1669   1.386   .     S
C1327  C1335   1.394   .     A
C1328  H1584   1.083   .     S
C1328  C1862   1.404   .     S
C1329  C1334   1.391   .     A
C1329  O1670   1.386   .     S
C1330  O1671   1.384   .     S
C1330  C1333   1.391   .     A
C1331  O1673   1.386   .     S
C1331  C1332   1.394   .     A
C1332  O1674   1.386   .     S
C1333  O1675   1.386   .     S
C1334  O1676   1.384   .     S
C1335  O1677   1.386   .     S
C1336  O1678   1.386   .     S
C1337  O1679   1.386   .     S
C1337  C1360   1.416   .     A
C1338  C1359   1.407   .     A
C1338  O1680   1.384   .     S
C1339  H1595   1.083   .     S
C1339  C1863   1.404   .     S
C1340  C1358   1.407   .     A
C1340  O1681   1.386   .     S
C1341  O1682   1.384   .     S
C1341  C1357   1.391   .     A
C1341  C1359   1.407   .     A
C1342  C1358   1.407   .     A
C1342  O1684   1.386   .     S
C1342  C1356   1.394   .     A
C1343  O1685   1.386   .     S
C1343  C1355   1.394   .     A
C1344  O1686   1.386   .     S
C1344  C1360   1.416   .     A
C1344  C1354   1.391   .     A
C1345  C1353   1.391   .     A
C1345  O1687   1.384   .     S
C1346  O1688   1.386   .     S
C1346  C1352   1.394   .     A
C1347  O1689   1.386   .     S
C1347  C1351   1.394   .     A
C1348  O1690   1.386   .     S
C1348  C1349   1.391   .     A
C1349  O1691   1.384   .     S
C1350  H1606   1.083   .     S
C1350  C1864   1.404   .     S
C1351  O1692   1.386   .     S
C1352  O1693   1.386   .     S
C1353  O1695   1.386   .     S
C1354  O1696   1.384   .     S
C1355  O1697   1.386   .     S
C1356  O1698   1.386   .     S
C1357  O1699   1.386   .     S
H1369  C1776   1.112   1_455 S
H1400  C1789   1.112   .     S
H1563  C1749   1.112   1_455 S
H1593  C1763   1.112   .     S
O1617  Zn1712  1.947   .     S
O1617  Zn1701  1.947   .     S
O1617  Zn1704  1.947   .     S
O1618  C154    1.282   1_565 A
O1618  Zn1703  1.937   .     S
O1619  Zn1706  1.937   .     S
O1619  C1871   1.282   .     A
O1620  Zn1705  1.937   .     S
O1621  Zn1715  1.937   .     S
O1622  Zn1714  1.937   .     S
O1623  Zn1709  1.937   .     S
O1624  Zn1701  1.937   .     S
O1625  Zn1711  1.937   .     S
O1626  Zn1710  1.937   .     S
O1627  Zn1713  1.937   .     S
O1628  Zn1707  1.947   .     S
O1628  Zn1709  1.947   .     S
O1628  Zn1713  1.947   .     S
O1629  Zn1712  1.937   .     S
O1630  Zn1704  1.940   .     S
O1631  Zn1703  1.940   .     S
O1632  Zn1706  1.940   .     S
O1633  Zn1705  1.940   .     S
O1634  Zn1708  1.940   .     S
O1635  Zn1707  1.940   .     S
O1636  Zn1702  1.940   .     S
O1637  Zn1716  1.940   .     S
O1638  Zn1703  1.940   .     S
O1639  Zn1710  1.947   .     S
O1639  Zn1714  1.947   .     S
O1639  Zn1702  1.947   .     S
O1639  Zn2278  1.947   1_455 S
O1640  Zn1704  1.940   .     S
O1641  Zn1716  1.940   .     S
O1642  Zn1702  1.940   .     S
O1643  Zn1707  1.940   .     S
O1644  Zn1708  1.940   .     S
O1645  Zn1705  1.940   .     S
O1646  Zn1706  1.940   .     S
O1647  Zn2283  1.940   .     S
O1648  Zn1710  1.940   .     S
O1649  Zn569   1.940   1_565 S
O1650  Zn1705  1.947   .     S
O1650  Zn1711  1.947   .     S
O1650  Zn1715  1.947   .     S
O1650  Zn2288  1.947   1_455 S
O1651  Zn1712  1.940   .     S
O1652  Zn1715  1.940   .     S
O1653  Zn2286  1.940   .     S
O1654  Zn1709  1.940   .     S
O1655  Zn557   1.940   1_565 S
O1656  Zn2282  1.940   .     S
O1657  Zn1711  1.940   .     S
O1658  Zn1701  1.940   .     S
O1659  Zn565   1.940   1_565 S
O1660  Zn1714  1.940   .     S
O1661  Zn1708  1.937   .     S
O1661  C153    1.282   1_565 A
O1662  Zn2287  1.940   .     S
O1663  Zn568   1.940   1_565 S
O1664  Zn1713  1.940   .     S
O1672  Zn1707  1.937   .     S
O1683  Zn1702  1.937   .     S
O1694  C1872   1.282   .     A
O1694  Zn1716  1.937   .     S
O1700  Zn1704  1.937   .     S
Zn1703 O484    1.947   1_565 S
Zn1706 O2211   1.947   .     S
Zn1708 O473    1.947   1_565 S
Zn1710 O2228   1.940   1_455 S
Zn1711 O2219   1.940   1_455 S
Zn1714 O2225   1.940   1_455 S
Zn1715 O2234   1.940   1_455 S
Zn1716 O2222   1.947   .     S
C1717  C1795   1.390   .     A
C1717  H1933   1.083   .     S
C1717  C716    1.404   1_565 S
C1718  H1934   1.083   .     S
C1718  C1865   1.404   .     A
C1718  C1852   1.390   .     A
C1719  C1879   1.465   .     S
C1719  C1908   1.416   .     A
C1719  C1915   1.416   .     A
C1720  C1907   1.407   .     A
C1720  C1918   1.407   .     A
C1720  C1880   1.453   .     S
C1721  C1917   1.407   .     A
C1721  C1906   1.407   .     A
C1721  C1881   1.454   .     S
C1722  C1882   1.462   .     S
C1722  C1905   1.416   .     A
C1722  C1920   1.416   .     A
C1723  C1919   1.416   .     A
C1723  C1883   1.465   .     S
C1723  C1904   1.416   .     A
C1724  C1923   1.407   .     A
C1724  C1893   1.453   .     S
C1724  C1903   1.407   .     A
C1725  C1902   1.407   .     A
C1725  C1894   1.454   .     S
C1725  C1921   1.407   .     A
C1726  C1901   1.416   .     A
C1726  C1886   1.462   .     S
C1726  C1925   1.416   .     A
C1727  C1887   1.465   .     S
C1727  C1899   1.416   .     A
C1727  C1924   1.416   .     A
C1728  C1888   1.453   .     S
C1728  C1898   1.407   .     A
C1728  C1927   1.407   .     A
C1729  C722    1.404   1_565 A
C1729  H1945   1.083   .     S
C1729  C1853   1.390   .     A
C1730  C1897   1.407   .     A
C1730  C1890   1.454   .     S
C1730  C1926   1.407   .     A
C1731  C1929   1.416   .     A
C1731  C1896   1.416   .     A
C1731  C1891   1.462   .     S
C1732  C1895   1.416   .     A
C1732  C1928   1.416   .     A
C1732  C1892   1.465   .     S
C1733  C1876   1.460   .     S
C1733  C1840   1.402   .     S
C1734  C1875   1.460   .     S
C1734  C1848   1.402   .     A
C1735  C1874   1.460   .     S
C1735  C1817   1.402   .     A
C1736  C1829   1.402   .     A
C1736  C1873   1.460   .     S
C1737  C1872   1.460   .     S
C1737  C1855   1.402   .     S
C1738  C1852   1.402   .     A
C1738  C1871   1.460   .     S
C1739  C1870   1.460   .     S
C1739  C1858   1.402   .     S
C1740  H1956   1.083   .     S
C1740  C1868   1.404   .     A
C1740  C1854   1.390   .     A
C1741  C1869   1.460   .     S
C1741  C1854   1.402   .     S
C1742  H2117   1.117   .     S
C1742  C1743   1.532   .     S
C1742  O2237   1.419   .     S
C1742  H2116   1.110   .     S
C1743  H2118   1.111   .     S
C1743  H2119   1.108   .     S
C1743  C1744   1.526   .     S
C1744  H2122   1.110   .     S
C1744  H2121   1.110   .     S
C1744  H2120   1.111   .     S
C1745  C1746   1.533   .     S
C1745  H2125   1.117   .     S
C1745  H2124   1.110   .     S
C1745  O2238   1.419   .     S
C1746  H2127   1.110   .     S
C1746  C1747   1.526   .     S
C1746  H2126   1.111   .     S
C1747  H2128   1.111   .     S
C1747  H2130   1.111   .     S
C1747  H2129   1.110   .     S
C1748  H2131   1.115   .     S
C1748  H2132   1.115   .     S
C1748  O2239   1.412   .     S
C1749  H2133   1.111   .     S
C1749  C1750   1.525   .     S
C1749  C1176   1.527   1_655 S
C1749  H1563   1.112   1_655 S
C1750  H2136   1.111   .     S
C1750  H2137   1.110   .     S
C1750  H2138   1.110   .     S
C1751  C1864   1.404   .     A
C1751  H1967   1.083   .     S
C1751  C1855   1.390   .     A
C1752  H2140   1.115   .     S
C1752  O2240   1.416   .     S
C1752  C1753   1.532   .     S
C1752  H2139   1.111   .     S
C1753  C1754   1.526   .     S
C1753  H2142   1.111   .     S
C1753  H2141   1.112   .     S
C1754  H2144   1.110   .     S
C1754  H2143   1.111   .     S
C1754  H2146   1.111   .     S
C1755  C1756   1.532   .     S
C1755  H2148   1.117   .     S
C1755  O2241   1.419   .     S
C1755  H2147   1.110   .     S
C1756  H2149   1.111   .     S
C1756  H2150   1.108   .     S
C1756  C1757   1.526   .     S
C1757  H2153   1.110   .     S
C1757  H2151   1.111   .     S
C1757  H2152   1.110   .     S
C1758  H2155   1.117   .     S
C1758  O2242   1.419   .     S
C1758  C1759   1.533   .     S
C1758  H2154   1.110   .     S
C1759  C1760   1.526   .     S
C1759  H2158   1.110   .     S
C1759  H2157   1.111   .     S
C1760  H2161   1.111   .     S
C1760  H2160   1.110   .     S
C1760  H2159   1.111   .     S
C1761  H2162   1.115   .     S
C1761  O2243   1.412   .     S
C1761  H2163   1.115   .     S
C1761  C1191   1.527   1_655 S
C1762  C1857   1.390   .     A
C1762  H1978   1.083   .     S
C1762  C1293   1.404   1_655 S
C1763  C1764   1.526   .     S
C1763  H2164   1.111   .     S
C1764  H2166   1.111   .     S
C1764  H2168   1.110   .     S
C1764  H2169   1.109   .     S
C1765  H2171   1.115   .     S
C1765  C1766   1.532   .     S
C1765  O2245   1.416   .     S
C1765  H2170   1.111   .     S
C1766  H2173   1.111   .     S
C1766  H2172   1.112   .     S
C1766  C1767   1.526   .     S
C1767  H2176   1.111   .     S
C1767  H2174   1.111   .     S
C1767  H2175   1.110   .     S
C1768  H2179   1.117   .     S
C1768  C1769   1.532   .     S
C1768  H2177   1.110   .     S
C1768  O2246   1.419   .     S
C1769  H2181   1.108   .     S
C1769  C1770   1.526   .     S
C1769  H2180   1.112   .     S
C1770  H2182   1.111   .     S
C1770  H2183   1.110   .     S
C1770  H2184   1.110   .     S
C1771  H2185   1.110   .     S
C1771  C1772   1.533   .     S
C1771  H2186   1.117   .     S
C1771  O2247   1.419   .     S
C1772  H2188   1.110   .     S
C1772  C1774   1.526   .     S
C1772  H2187   1.111   .     S
C1773  H1989   1.083   .     S
C1773  C1858   1.390   .     A
C1773  C1866   1.404   .     S
C1774  H1937   1.111   .     S
C1774  H1936   1.110   .     S
C1774  H1935   1.111   .     S
C1775  H1938   1.115   .     S
C1775  O2248   1.412   .     S
C1775  H1939   1.115   .     S
C1776  C1777   1.525   .     S
C1776  H1940   1.111   .     S
C1776  C1203   1.527   1_655 S
C1776  H1369   1.112   1_655 S
C1777  H1943   1.110   .     S
C1777  H1942   1.111   .     S
C1777  H1944   1.109   .     S
C1778  H1946   1.111   .     S
C1778  C1779   1.532   .     S
C1778  O2249   1.416   .     S
C1778  H1947   1.115   .     S
C1779  C1780   1.526   .     S
C1779  H1949   1.111   .     S
C1779  H1948   1.112   .     S
C1780  H1951   1.110   .     S
C1780  H1950   1.111   .     S
C1780  H1952   1.111   .     S
C1781  H1954   1.117   .     S
C1781  H1953   1.110   .     S
C1781  O2250   1.419   .     S
C1781  C1782   1.532   .     S
C1782  C1783   1.526   .     S
C1782  H1957   1.108   .     S
C1782  H1955   1.111   .     S
C1783  H1960   1.109   .     S
C1783  H1958   1.111   .     S
C1783  H1959   1.110   .     S
C1784  C1859   1.390   .     A
C1784  H2000   1.083   .     S
C1784  C724    1.404   1_565 S
C1785  H1961   1.110   .     S
C1785  C1786   1.533   .     S
C1785  H1962   1.117   .     S
C1785  O2251   1.419   .     S
C1786  H1963   1.111   .     S
C1786  C1787   1.526   .     S
C1786  H1964   1.110   .     S
C1787  H1965   1.111   .     S
C1787  H1968   1.111   .     S
C1787  H1966   1.110   .     S
C1788  H1969   1.115   .     S
C1788  H1970   1.115   .     S
C1788  O2252   1.412   .     S
C1788  C1217   1.527   1_655 S
C1789  H1971   1.111   .     S
C1789  C1790   1.525   .     S
C1790  H1974   1.110   .     S
C1790  H1975   1.109   .     S
C1790  H1973   1.111   .     S
C1791  H1977   1.115   .     S
C1791  O2253   1.416   .     S
C1791  C1792   1.532   .     S
C1791  H1976   1.111   .     S
C1792  C1793   1.526   .     S
C1792  H1980   1.111   .     S
C1792  H1979   1.112   .     S
C1793  H1981   1.111   .     S
C1793  H1982   1.110   .     S
C1793  H1983   1.111   .     S
C1794  H1984   1.115   .     S
C1794  C1796   1.527   .     S
C1794  H1985   1.115   .     S
C1794  O2254   1.412   .     S
C1795  H2011   1.083   .     S
C1795  C589    1.402   1_565 A
C1796  H1987   1.112   .     S
C1796  H1986   1.111   .     S
C1796  C1797   1.525   .     S
C1797  H1990   1.110   .     S
C1797  H1988   1.111   .     S
C1797  H1991   1.109   .     S
C1798  O2256   1.416   .     S
C1798  C1799   1.532   .     S
C1798  H1992   1.111   .     S
C1798  H1993   1.115   .     S
C1799  H1995   1.111   .     S
C1799  C1800   1.526   .     S
C1799  H1994   1.112   .     S
C1800  H1997   1.110   .     S
C1800  H1996   1.111   .     S
C1800  H1998   1.111   .     S
C1801  H1999   1.110   .     S
C1801  C1802   1.532   .     S
C1801  O2257   1.419   .     S
C1801  H2001   1.117   .     S
C1802  H2002   1.112   .     S
C1802  H2003   1.108   .     S
C1802  C1803   1.526   .     S
C1803  H2006   1.110   .     S
C1803  H2004   1.111   .     S
C1803  H2005   1.110   .     S
C1804  H2008   1.117   .     S
C1804  C1805   1.533   .     S
C1804  O2258   1.419   .     S
C1804  H2007   1.110   .     S
C1805  H2010   1.110   .     S
C1805  C1807   1.526   .     S
C1805  H2009   1.111   .     S
C1806  C1828   1.390   .     A
C1806  H2022   1.083   .     S
C1806  C590    1.402   1_565 S
C1807  H2012   1.111   .     S
C1807  H2014   1.111   .     S
C1807  H2013   1.110   .     S
C1808  O2259   1.412   .     S
C1808  H2015   1.115   .     S
C1808  C1809   1.527   .     S
C1808  H2016   1.115   .     S
C1809  H2018   1.112   .     S
C1809  C1810   1.525   .     S
C1809  H2017   1.111   .     S
C1810  H2019   1.111   .     S
C1810  H2021   1.109   .     S
C1810  H2020   1.110   .     S
C1811  H2023   1.111   .     S
C1811  H2024   1.115   .     S
C1811  O2260   1.416   .     S
C1811  C1812   1.532   .     S
C1812  H2026   1.111   .     S
C1812  H2025   1.112   .     S
C1812  C1813   1.526   .     S
C1813  H2028   1.110   .     S
C1813  H2029   1.111   .     S
C1813  H2027   1.111   .     S
C1814  H2030   1.110   .     S
C1814  C1815   1.532   .     S
C1814  O2261   1.419   .     S
C1814  H2031   1.117   .     S
C1815  H2032   1.112   .     S
C1815  H2034   1.108   .     S
C1815  C1816   1.526   .     S
C1816  H2037   1.110   .     S
C1816  H2035   1.111   .     S
C1816  H2036   1.110   .     S
C1817  H2033   1.083   .     S
C1817  C1856   1.390   .     A
C1818  O2262   1.419   .     S
C1818  H2039   1.117   .     S
C1818  C1819   1.533   .     S
C1818  H2038   1.110   .     S
C1819  H2040   1.111   .     S
C1819  H2041   1.110   .     S
C1819  C1820   1.526   .     S
C1820  H2046   1.111   .     S
C1820  H2043   1.110   .     S
C1820  H2042   1.111   .     S
C1821  H2047   1.115   .     S
C1821  O2263   1.412   .     S
C1821  H2048   1.115   .     S
C1821  C1822   1.527   .     S
C1822  H2050   1.112   .     S
C1822  C1823   1.525   .     S
C1822  H2049   1.111   .     S
C1823  H2052   1.110   .     S
C1823  H2053   1.110   .     S
C1823  H2051   1.111   .     S
C1824  C1825   1.532   .     S
C1824  H2055   1.115   .     S
C1824  O2264   1.416   .     S
C1824  H2054   1.111   .     S
C1825  H2057   1.112   .     S
C1825  C1826   1.526   .     S
C1825  H2058   1.111   .     S
C1826  H2061   1.111   .     S
C1826  H2059   1.111   .     S
C1826  H2060   1.110   .     S
C1827  H2062   1.110   .     S
C1827  H2063   1.117   .     S
C1827  C1830   1.532   .     S
C1827  O2265   1.419   .     S
C1828  H2044   1.083   .     S
C1828  C717    1.404   1_565 S
C1829  C1867   1.390   .     A
C1829  H2045   1.083   .     S
C1830  C1831   1.526   .     S
C1830  H2065   1.108   .     S
C1830  H2064   1.112   .     S
C1831  H2068   1.110   .     S
C1831  H2066   1.111   .     S
C1831  H2069   1.110   .     S
C1832  H2071   1.117   .     S
C1832  H2070   1.110   .     S
C1832  O2267   1.419   .     S
C1832  C1833   1.533   .     S
C1833  H2073   1.110   .     S
C1833  H2072   1.111   .     S
C1833  C1834   1.526   .     S
C1834  H2076   1.111   .     S
C1834  H2074   1.111   .     S
C1834  H2075   1.110   .     S
C1835  H2079   1.115   .     S
C1835  H2077   1.115   .     S
C1835  C1836   1.527   .     S
C1835  O2268   1.412   .     S
C1836  H2080   1.111   .     S
C1836  H2081   1.112   .     S
C1836  C1837   1.525   .     S
C1837  H2082   1.111   .     S
C1837  H2084   1.110   .     S
C1837  H2083   1.110   .     S
C1838  O2269   1.416   .     S
C1838  H2085   1.111   .     S
C1838  H2086   1.115   .     S
C1838  C1839   1.532   .     S
C1839  H2088   1.111   .     S
C1839  C1841   1.526   .     S
C1839  H2087   1.112   .     S
C1840  H2056   1.083   .     S
C1840  C1878   1.390   .     A
C1841  H2091   1.110   .     S
C1841  H2090   1.111   .     S
C1841  H2092   1.111   .     S
C1842  C1843   1.532   .     S
C1842  H2094   1.117   .     S
C1842  O2270   1.419   .     S
C1842  H2093   1.110   .     S
C1843  C1844   1.526   .     S
C1843  H2096   1.108   .     S
C1843  H2095   1.112   .     S
C1844  H2097   1.111   .     S
C1844  H2099   1.109   .     S
C1844  H2098   1.110   .     S
C1845  H2102   1.117   .     S
C1845  C1846   1.533   .     S
C1845  H2101   1.110   .     S
C1845  O2271   1.419   .     S
C1846  H2104   1.110   .     S
C1846  C1847   1.526   .     S
C1846  H2103   1.111   .     S
C1847  H2105   1.111   .     S
C1847  H2106   1.110   .     S
C1847  H2107   1.111   .     S
C1848  H2067   1.083   .     S
C1848  C1889   1.390   .     A
C1849  C1900   1.390   .     A
C1849  H2078   1.083   .     S
C1849  C1163   1.402   1_655 S
C1850  C1911   1.390   .     A
C1850  H2089   1.083   .     S
C1850  C1164   1.402   1_655 S
C1851  H2100   1.083   .     S
C1851  C1922   1.390   .     A
C1851  C1165   1.402   1_655 A
C1852  H2108   1.083   .     S
C1853  C595    1.402   1_565 A
C1853  H2109   1.083   .     S
C1854  H2110   1.083   .     S
C1855  H2111   1.083   .     S
C1856  C1862   1.404   .     A
C1856  H2112   1.083   .     S
C1857  H2113   1.083   .     S
C1857  C1166   1.402   1_655 S
C1858  H2114   1.083   .     S
C1859  H2115   1.083   .     S
C1859  C597    1.402   1_565 A
C1860  C1878   1.404   .     A
C1860  C1861   1.471   1_554 S
C1861  C1889   1.404   .     A
C1861  C1860   1.471   1_556 S
C1862  C1863   1.471   1_554 S
C1863  C1867   1.404   .     A
C1863  C1862   1.471   1_556 S
C1864  C1865   1.471   .     S
C1866  C1868   1.471   .     S
C1867  H2123   1.083   .     S
C1869  O2272   1.282   .     S
C1870  O2244   1.282   .     S
C1871  O2255   1.282   .     S
C1872  O2192   1.282   .     S
C1873  O2193   1.282   .     A
C1873  O2197   1.282   .     A
C1874  O2194   1.282   .     S
C1874  O2198   1.282   .     S
C1875  O2199   1.282   .     A
C1875  O2195   1.282   .     A
C1876  O2196   1.282   .     S
C1876  O2201   1.282   .     S
C1877  O2202   1.281   .     A
C1877  C1932   1.462   .     S
C1877  O2230   1.281   .     A
C1878  H2134   1.083   .     S
C1879  O2231   1.281   .     A
C1879  O2203   1.281   .     A
C1880  O2204   1.278   .     A
C1880  O2228   1.278   .     A
C1881  O2205   1.279   .     A
C1881  O2229   1.279   .     A
C1882  O2235   1.281   .     A
C1882  O2206   1.281   .     A
C1883  O2236   1.281   .     A
C1883  O2207   1.281   .     A
C1884  C1930   1.453   .     S
C1884  O2208   1.278   .     A
C1884  O2232   1.278   .     A
C1885  O2209   1.279   .     A
C1885  O2234   1.279   .     A
C1885  C1931   1.454   .     S
C1886  O2210   1.281   .     A
C1886  O2221   1.281   .     A
C1887  O2212   1.281   .     A
C1887  O2223   1.281   .     A
C1888  O2213   1.278   .     A
C1888  O2219   1.278   .     A
C1889  H2145   1.083   .     S
C1890  O2214   1.279   .     A
C1890  O2220   1.279   .     A
C1891  O2226   1.281   .     A
C1891  O2215   1.281   .     A
C1892  O2227   1.281   .     A
C1892  O2216   1.281   .     A
C1893  O2217   1.278   .     A
C1893  O2224   1.278   .     A
C1894  O2225   1.279   .     A
C1894  O2218   1.279   .     A
C1895  O2237   1.386   .     S
C1895  C1912   1.394   .     A
C1896  O2238   1.386   .     S
C1896  C1910   1.391   .     A
C1897  O2239   1.384   .     S
C1897  C1909   1.391   .     A
C1898  C1908   1.394   .     A
C1898  O2240   1.386   .     S
C1899  O2241   1.386   .     S
C1899  C1907   1.394   .     A
C1900  H2156   1.083   .     S
C1900  C1290   1.404   1_655 S
C1901  C1906   1.391   .     A
C1901  O2242   1.386   .     S
C1902  O2243   1.384   .     S
C1902  C1905   1.391   .     A
C1903  O2245   1.386   .     S
C1903  C1904   1.394   .     A
C1904  O2246   1.386   .     S
C1905  O2247   1.386   .     S
C1906  O2248   1.384   .     S
C1907  O2249   1.386   .     S
C1908  O2250   1.386   .     S
C1909  O2251   1.386   .     S
C1909  C1932   1.416   .     A
C1910  C1931   1.407   .     A
C1910  O2252   1.384   .     S
C1911  H2167   1.083   .     S
C1911  C1291   1.404   1_655 S
C1912  C1930   1.407   .     A
C1912  O2253   1.386   .     S
C1913  O2254   1.384   .     S
C1913  C1929   1.391   .     A
C1913  C1931   1.407   .     A
C1914  C1930   1.407   .     A
C1914  O2256   1.386   .     S
C1914  C1928   1.394   .     A
C1915  O2257   1.386   .     S
C1915  C1927   1.394   .     A
C1916  O2258   1.386   .     S
C1916  C1932   1.416   .     A
C1916  C1926   1.391   .     A
C1917  C1925   1.391   .     A
C1917  O2259   1.384   .     S
C1918  O2260   1.386   .     S
C1918  C1924   1.394   .     A
C1919  O2261   1.386   .     S
C1919  C1923   1.394   .     A
C1920  O2262   1.386   .     S
C1920  C1921   1.391   .     A
C1921  O2263   1.384   .     S
C1922  H2178   1.083   .     S
C1922  C1292   1.404   1_655 S
C1923  O2264   1.386   .     S
C1924  O2265   1.386   .     S
C1925  O2267   1.386   .     S
C1926  O2268   1.384   .     S
C1927  O2269   1.386   .     S
C1928  O2270   1.386   .     S
C1929  O2271   1.386   .     S
H1972  C1217   1.112   1_655 S
H2165  C1191   1.112   1_655 S
O2189  Zn2284  1.947   .     S
O2189  Zn2273  1.947   .     S
O2189  Zn2276  1.947   .     S
O2190  C726    1.282   1_565 A
O2190  Zn2275  1.937   .     S
O2191  Zn2278  1.937   .     S
O2191  C1299   1.282   1_655 A
O2192  Zn2277  1.937   .     S
O2193  Zn2287  1.937   .     S
O2194  Zn2286  1.937   .     S
O2195  Zn2281  1.937   .     S
O2196  Zn2273  1.937   .     S
O2197  Zn2283  1.937   .     S
O2198  Zn2282  1.937   .     S
O2199  Zn2285  1.937   .     S
O2200  Zn2279  1.947   .     S
O2200  Zn2281  1.947   .     S
O2200  Zn2285  1.947   .     S
O2201  Zn2284  1.937   .     S
O2202  Zn2276  1.940   .     S
O2203  Zn2275  1.940   .     S
O2204  Zn2278  1.940   .     S
O2205  Zn2277  1.940   .     S
O2206  Zn2280  1.940   .     S
O2207  Zn2279  1.940   .     S
O2208  Zn2274  1.940   .     S
O2209  Zn2288  1.940   .     S
O2210  Zn2275  1.940   .     S
O2211  Zn2282  1.947   .     S
O2211  Zn2286  1.947   .     S
O2211  Zn2274  1.947   .     S
O2212  Zn2276  1.940   .     S
O2213  Zn2288  1.940   .     S
O2214  Zn2274  1.940   .     S
O2215  Zn2279  1.940   .     S
O2216  Zn2280  1.940   .     S
O2217  Zn2277  1.940   .     S
O2218  Zn2278  1.940   .     S
O2219  Zn1711  1.940   1_655 S
O2220  Zn2282  1.940   .     S
O2221  Zn1141  1.940   1_565 S
O2222  Zn2277  1.947   .     S
O2222  Zn2283  1.947   .     S
O2222  Zn2287  1.947   .     S
O2223  Zn2284  1.940   .     S
O2224  Zn2287  1.940   .     S
O2225  Zn1714  1.940   1_655 S
O2226  Zn2281  1.940   .     S
O2227  Zn1129  1.940   1_565 S
O2228  Zn1710  1.940   1_655 S
O2229  Zn2283  1.940   .     S
O2230  Zn2273  1.940   .     S
O2231  Zn1137  1.940   1_565 S
O2232  Zn2286  1.940   .     S
O2233  Zn2280  1.937   .     S
O2233  C725    1.282   1_565 A
O2234  Zn1715  1.940   1_655 S
O2235  Zn1140  1.940   1_565 S
O2236  Zn2285  1.940   .     S
O2244  Zn2279  1.937   .     S
O2255  Zn2274  1.937   .     S
O2266  C1300   1.282   1_655 A
O2266  Zn2288  1.937   .     S
O2272  Zn2276  1.937   .     S
Zn2275 O1056   1.947   1_565 S
Zn2278 O1639   1.947   1_655 S
Zn2280 O1045   1.947   1_565 S
Zn2288 O1650   1.947   1_655 S
