data_str_m1_o1_o2_pcu_sym.55
_audit_creation_date              2020-01-03
_audit_creation_method            'Materials Studio'
_symmetry_space_group_name_H-M    'P1'
_symmetry_Int_Tables_number       1
_symmetry_cell_setting            triclinic
loop_
_symmetry_equiv_pos_as_xyz
  x,y,z
_cell_length_a                    36.5051
_cell_length_b                    36.5051
_cell_length_c                    34.5775
_cell_angle_alpha                 90.0000
_cell_angle_beta                  90.0000
_cell_angle_gamma                 90.0000
loop_
_atom_site_label
_atom_site_type_symbol
_atom_site_fract_x
_atom_site_fract_y
_atom_site_fract_z
_atom_site_U_iso_or_equiv
_atom_site_adp_type
_atom_site_occupancy
C1     C     0.21866   0.48900   0.04181   0.00000  Uiso   1.00
C2     C     0.28134   0.48900   0.95819   0.00000  Uiso   1.00
C3     C     0.48900   0.21866   0.04181   0.00000  Uiso   1.00
C4     C     0.48900   0.28134   0.95819   0.00000  Uiso   1.00
C5     C     0.28134   0.01100   0.04181   0.00000  Uiso   1.00
C6     C     0.21866   0.01100   0.95819   0.00000  Uiso   1.00
C7     C     0.01100   0.28134   0.04181   0.00000  Uiso   1.00
C8     C     0.01100   0.21866   0.95819   0.00000  Uiso   1.00
C9     C     0.46866   0.23900   0.54181   0.00000  Uiso   1.00
C10    C     0.03134   0.23900   0.45819   0.00000  Uiso   1.00
C11    C     0.23900   0.46866   0.54181   0.00000  Uiso   1.00
C12    C     0.23900   0.03134   0.45819   0.00000  Uiso   1.00
C13    C     0.03134   0.26100   0.54182   0.00000  Uiso   1.00
C14    C     0.46866   0.26100   0.45818   0.00000  Uiso   1.00
C15    C     0.26100   0.03134   0.54182   0.00000  Uiso   1.00
C16    C     0.26100   0.46866   0.45818   0.00000  Uiso   1.00
C17    C     0.21858   0.48924   0.08206   0.00000  Uiso   1.00
C18    C     0.28142   0.48924   0.91794   0.00000  Uiso   1.00
C19    C     0.48924   0.21858   0.08206   0.00000  Uiso   1.00
C20    C     0.48924   0.28142   0.91794   0.00000  Uiso   1.00
C21    C     0.28142   0.01076   0.08206   0.00000  Uiso   1.00
C22    C     0.21858   0.01076   0.91794   0.00000  Uiso   1.00
C23    C     0.01076   0.28142   0.08206   0.00000  Uiso   1.00
C24    C     0.01076   0.21858   0.91794   0.00000  Uiso   1.00
C25    C     0.46858   0.23924   0.58206   0.00000  Uiso   1.00
C26    C     0.03142   0.23924   0.41794   0.00000  Uiso   1.00
C27    C     0.23924   0.46858   0.58206   0.00000  Uiso   1.00
C28    C     0.23924   0.03142   0.41794   0.00000  Uiso   1.00
C29    C     0.03142   0.26076   0.58206   0.00000  Uiso   1.00
C30    C     0.46858   0.26076   0.41794   0.00000  Uiso   1.00
C31    C     0.26076   0.03142   0.58206   0.00000  Uiso   1.00
C32    C     0.26076   0.46858   0.41794   0.00000  Uiso   1.00
C33    C     0.25000   0.00000   0.02132   0.00000  Uiso   1.00
C34    C     0.25000   0.00000   0.97868   0.00000  Uiso   1.00
C35    C    -0.00000   0.25000   0.02132   0.00000  Uiso   1.00
C36    C    -0.00000   0.25000   0.97868   0.00000  Uiso   1.00
C37    C     0.00000   0.25000   0.52132   0.00000  Uiso   1.00
C38    C    -0.00000   0.25000   0.47868   0.00000  Uiso   1.00
C39    C     0.25000   0.00000   0.52132   0.00000  Uiso   1.00
C40    C     0.25000   0.00000   0.47868   0.00000  Uiso   1.00
C41    C     0.25000   0.00000   0.35525   0.00000  Uiso   1.00
C42    C     0.25000   0.00000   0.64475   0.00000  Uiso   1.00
C43    C     0.00000   0.25000   0.35525   0.00000  Uiso   1.00
C44    C     0.00000   0.25000   0.64475   0.00000  Uiso   1.00
C45    C    -0.00000   0.25000   0.85525   0.00000  Uiso   1.00
C46    C     0.00000   0.25000   0.14475   0.00000  Uiso   1.00
C47    C     0.25000   0.00000   0.85525   0.00000  Uiso   1.00
C48    C     0.25000   0.00000   0.14475   0.00000  Uiso   1.00
C49    C     0.17997   0.07003   0.25001   0.00000  Uiso   1.00
C50    C     0.32002   0.42997   0.75001   0.00000  Uiso   1.00
C51    C     0.42997   0.17998   0.24999   0.00000  Uiso   1.00
C52    C     0.07002   0.32003   0.74999   0.00000  Uiso   1.00
C53    C     0.32003   0.42998   0.25001   0.00000  Uiso   1.00
C54    C     0.17997   0.07003   0.75001   0.00000  Uiso   1.00
C55    C     0.07003   0.32002   0.24999   0.00000  Uiso   1.00
C56    C     0.42997   0.17997   0.74999   0.00000  Uiso   1.00
C57    C     0.17997   0.42998   0.74999   0.00000  Uiso   1.00
C58    C     0.32002   0.07003   0.24999   0.00000  Uiso   1.00
C59    C     0.42997   0.32003   0.75001   0.00000  Uiso   1.00
C60    C     0.07002   0.17997   0.25001   0.00000  Uiso   1.00
C61    C     0.32003   0.07003   0.74999   0.00000  Uiso   1.00
C62    C     0.17997   0.42997   0.24999   0.00000  Uiso   1.00
C63    C     0.07003   0.17998   0.75001   0.00000  Uiso   1.00
C64    C     0.42997   0.32003   0.25001   0.00000  Uiso   1.00
C65    C     0.14756   0.37958   0.21713   0.00000  Uiso   1.00
C66    C     0.35241   0.12046   0.78281   0.00000  Uiso   1.00
C67    C     0.12046   0.14759   0.21719   0.00000  Uiso   1.00
C68    C     0.37958   0.35244   0.78287   0.00000  Uiso   1.00
C69    C     0.35244   0.12042   0.21713   0.00000  Uiso   1.00
C70    C     0.14759   0.37954   0.78281   0.00000  Uiso   1.00
C71    C     0.37954   0.35241   0.21719   0.00000  Uiso   1.00
C72    C     0.12042   0.14756   0.78287   0.00000  Uiso   1.00
C73    C     0.14756   0.12042   0.78287   0.00000  Uiso   1.00
C74    C     0.35241   0.37954   0.21719   0.00000  Uiso   1.00
C75    C     0.12046   0.35241   0.78281   0.00000  Uiso   1.00
C76    C     0.37958   0.14756   0.21713   0.00000  Uiso   1.00
C77    C     0.35244   0.37958   0.78287   0.00000  Uiso   1.00
C78    C     0.14759   0.12046   0.21719   0.00000  Uiso   1.00
C79    C     0.37954   0.14759   0.78281   0.00000  Uiso   1.00
C80    C     0.12042   0.35244   0.21713   0.00000  Uiso   1.00
C81    C     0.39756   0.12958   0.71713   0.00000  Uiso   1.00
C82    C     0.10241   0.37046   0.28281   0.00000  Uiso   1.00
C83    C     0.37046   0.39759   0.71719   0.00000  Uiso   1.00
C84    C     0.12958   0.10244   0.28287   0.00000  Uiso   1.00
C85    C     0.10244   0.37042   0.71713   0.00000  Uiso   1.00
C86    C     0.39759   0.12954   0.28281   0.00000  Uiso   1.00
C87    C     0.12954   0.10241   0.71719   0.00000  Uiso   1.00
C88    C     0.37042   0.39756   0.28287   0.00000  Uiso   1.00
C89    C     0.39756   0.37042   0.28287   0.00000  Uiso   1.00
C90    C     0.10241   0.12954   0.71719   0.00000  Uiso   1.00
C91    C     0.37046   0.10241   0.28281   0.00000  Uiso   1.00
C92    C     0.12958   0.39756   0.71713   0.00000  Uiso   1.00
C93    C     0.10244   0.12958   0.28287   0.00000  Uiso   1.00
C94    C     0.39759   0.37046   0.71719   0.00000  Uiso   1.00
C95    C     0.12954   0.39759   0.28281   0.00000  Uiso   1.00
C96    C     0.37042   0.10244   0.71713   0.00000  Uiso   1.00
C97    C     0.09809   0.34809   0.24998   0.00000  Uiso   1.00
C98    C     0.40191   0.15191   0.74998   0.00000  Uiso   1.00
C99    C     0.15191   0.09809   0.25002   0.00000  Uiso   1.00
C100   C     0.34809   0.40191   0.75002   0.00000  Uiso   1.00
C101   C     0.40191   0.15191   0.24998   0.00000  Uiso   1.00
C102   C     0.09809   0.34809   0.74998   0.00000  Uiso   1.00
C103   C     0.34809   0.40191   0.25002   0.00000  Uiso   1.00
C104   C     0.15191   0.09809   0.75002   0.00000  Uiso   1.00
C105   C     0.09809   0.15191   0.75002   0.00000  Uiso   1.00
C106   C     0.40191   0.34809   0.25002   0.00000  Uiso   1.00
C107   C     0.15191   0.40191   0.74998   0.00000  Uiso   1.00
C108   C     0.34809   0.09809   0.24998   0.00000  Uiso   1.00
C109   C     0.40191   0.34809   0.75002   0.00000  Uiso   1.00
C110   C     0.09809   0.15191   0.25002   0.00000  Uiso   1.00
C111   C     0.34809   0.09809   0.74998   0.00000  Uiso   1.00
C112   C     0.15191   0.40191   0.24998   0.00000  Uiso   1.00
C113   C     0.25000   0.00000   0.10242   0.00000  Uiso   1.00
C114   C     0.25000   0.00000   0.89758   0.00000  Uiso   1.00
C115   C     0.00000   0.25000   0.10242   0.00000  Uiso   1.00
C116   C     0.00000   0.25000   0.89758   0.00000  Uiso   1.00
C117   C    -0.00000   0.25000   0.60242   0.00000  Uiso   1.00
C118   C     0.00000   0.25000   0.39758   0.00000  Uiso   1.00
C119   C     0.25000   0.00000   0.60242   0.00000  Uiso   1.00
C120   C     0.25000   0.00000   0.39758   0.00000  Uiso   1.00
H121   H     0.19434   0.47976   0.02677   0.00000  Uiso   1.00
H122   H     0.30566   0.47976   0.97323   0.00000  Uiso   1.00
H123   H     0.47976   0.19434   0.02677   0.00000  Uiso   1.00
H124   H     0.47976   0.30566   0.97323   0.00000  Uiso   1.00
H125   H     0.30566   0.02024   0.02677   0.00000  Uiso   1.00
H126   H     0.19434   0.02024   0.97323   0.00000  Uiso   1.00
H127   H     0.02024   0.30566   0.02677   0.00000  Uiso   1.00
H128   H     0.02024   0.19434   0.97323   0.00000  Uiso   1.00
H129   H     0.44434   0.22976   0.52677   0.00000  Uiso   1.00
H130   H     0.05566   0.22976   0.47323   0.00000  Uiso   1.00
H131   H     0.22976   0.44434   0.52677   0.00000  Uiso   1.00
H132   H     0.22976   0.05566   0.47323   0.00000  Uiso   1.00
H133   H     0.05566   0.27024   0.52677   0.00000  Uiso   1.00
H134   H     0.44434   0.27024   0.47323   0.00000  Uiso   1.00
H135   H     0.27024   0.05566   0.52677   0.00000  Uiso   1.00
H136   H     0.27024   0.44434   0.47323   0.00000  Uiso   1.00
H137   H     0.19413   0.48052   0.09723   0.00000  Uiso   1.00
H138   H     0.30587   0.48052   0.90277   0.00000  Uiso   1.00
H139   H     0.48052   0.19413   0.09723   0.00000  Uiso   1.00
H140   H     0.48052   0.30587   0.90277   0.00000  Uiso   1.00
H141   H     0.30587   0.01948   0.09723   0.00000  Uiso   1.00
H142   H     0.19413   0.01948   0.90277   0.00000  Uiso   1.00
H143   H     0.01948   0.30587   0.09723   0.00000  Uiso   1.00
H144   H     0.01948   0.19413   0.90277   0.00000  Uiso   1.00
H145   H     0.44413   0.23052   0.59723   0.00000  Uiso   1.00
H146   H     0.05587   0.23052   0.40277   0.00000  Uiso   1.00
H147   H     0.23052   0.44413   0.59723   0.00000  Uiso   1.00
H148   H     0.23052   0.05587   0.40277   0.00000  Uiso   1.00
H149   H     0.05587   0.26948   0.59724   0.00000  Uiso   1.00
H150   H     0.44413   0.26948   0.40276   0.00000  Uiso   1.00
H151   H     0.26948   0.05587   0.59724   0.00000  Uiso   1.00
H152   H     0.26948   0.44413   0.40276   0.00000  Uiso   1.00
O153   O     0.25000   0.00000   0.25000   0.00000  Uiso   1.00
O154   O     0.25000   0.00000   0.75000   0.00000  Uiso   1.00
O155   O    -0.00000   0.25000   0.25000   0.00000  Uiso   1.00
O156   O    -0.00000   0.25000   0.75000   0.00000  Uiso   1.00
O157   O     0.25000   0.46964   0.33683   0.00000  Uiso   1.00
O158   O     0.25000   0.03036   0.66317   0.00000  Uiso   1.00
O159   O     0.03036   0.25000   0.33683   0.00000  Uiso   1.00
O160   O     0.46964   0.25000   0.66317   0.00000  Uiso   1.00
O161   O     0.25000   0.03036   0.33683   0.00000  Uiso   1.00
O162   O     0.25000   0.46964   0.66317   0.00000  Uiso   1.00
O163   O     0.46964   0.25000   0.33683   0.00000  Uiso   1.00
O164   O     0.03036   0.25000   0.66317   0.00000  Uiso   1.00
O165   O     0.00000   0.21964   0.83683   0.00000  Uiso   1.00
O166   O    -0.00000   0.28036   0.16317   0.00000  Uiso   1.00
O167   O     0.28036   0.00000   0.83683   0.00000  Uiso   1.00
O168   O     0.21964   0.00000   0.16317   0.00000  Uiso   1.00
O169   O     0.00000   0.28036   0.83683   0.00000  Uiso   1.00
O170   O     0.00000   0.21964   0.16317   0.00000  Uiso   1.00
O171   O     0.21964   0.00000   0.83683   0.00000  Uiso   1.00
O172   O     0.28036   0.00000   0.16317   0.00000  Uiso   1.00
O173   O     0.20725   0.07307   0.27282   0.00000  Uiso   1.00
O174   O     0.29274   0.42693   0.72718   0.00000  Uiso   1.00
O175   O     0.42693   0.20726   0.27282   0.00000  Uiso   1.00
O176   O     0.07307   0.29274   0.72718   0.00000  Uiso   1.00
O177   O     0.29274   0.42693   0.27282   0.00000  Uiso   1.00
O178   O     0.20725   0.07307   0.72718   0.00000  Uiso   1.00
O179   O     0.07307   0.29274   0.27282   0.00000  Uiso   1.00
O180   O     0.42693   0.20726   0.72718   0.00000  Uiso   1.00
O181   O     0.20725   0.42693   0.72718   0.00000  Uiso   1.00
O182   O     0.29274   0.07307   0.27282   0.00000  Uiso   1.00
O183   O     0.42693   0.29275   0.72718   0.00000  Uiso   1.00
O184   O     0.07307   0.20726   0.27282   0.00000  Uiso   1.00
O185   O     0.29274   0.07307   0.72718   0.00000  Uiso   1.00
O186   O     0.20725   0.42693   0.27282   0.00000  Uiso   1.00
O187   O     0.07307   0.20726   0.72718   0.00000  Uiso   1.00
O188   O     0.42693   0.29275   0.27282   0.00000  Uiso   1.00
O189   O     0.45725   0.32307   0.77282   0.00000  Uiso   1.00
O190   O     0.04274   0.17693   0.22718   0.00000  Uiso   1.00
O191   O     0.17693   0.45726   0.77282   0.00000  Uiso   1.00
O192   O     0.32307   0.04275   0.22718   0.00000  Uiso   1.00
O193   O     0.04274   0.17693   0.77282   0.00000  Uiso   1.00
O194   O     0.45725   0.32307   0.22718   0.00000  Uiso   1.00
O195   O     0.32307   0.04275   0.77282   0.00000  Uiso   1.00
O196   O     0.17693   0.45726   0.22718   0.00000  Uiso   1.00
O197   O     0.45725   0.17693   0.22718   0.00000  Uiso   1.00
O198   O     0.04274   0.32307   0.77282   0.00000  Uiso   1.00
O199   O     0.17693   0.04275   0.22718   0.00000  Uiso   1.00
O200   O     0.32307   0.45726   0.77282   0.00000  Uiso   1.00
O201   O     0.04274   0.32307   0.22718   0.00000  Uiso   1.00
O202   O     0.45725   0.17693   0.77282   0.00000  Uiso   1.00
O203   O     0.32307   0.45726   0.22718   0.00000  Uiso   1.00
O204   O     0.17693   0.04275   0.77282   0.00000  Uiso   1.00
Zn205  Zn    0.20660   0.00000   0.21760   0.00000  Uiso   1.00
Zn206  Zn    0.29340   0.00000   0.78240   0.00000  Uiso   1.00
Zn207  Zn    0.00000   0.20660   0.21760   0.00000  Uiso   1.00
Zn208  Zn   -0.00000   0.29340   0.78240   0.00000  Uiso   1.00
Zn209  Zn    0.29340   0.00000   0.21760   0.00000  Uiso   1.00
Zn210  Zn    0.20660   0.00000   0.78240   0.00000  Uiso   1.00
Zn211  Zn    0.00000   0.29340   0.21760   0.00000  Uiso   1.00
Zn212  Zn   -0.00000   0.20660   0.78240   0.00000  Uiso   1.00
Zn213  Zn    0.45660   0.25000   0.71760   0.00000  Uiso   1.00
Zn214  Zn    0.04340   0.25000   0.28240   0.00000  Uiso   1.00
Zn215  Zn    0.25000   0.45660   0.71760   0.00000  Uiso   1.00
Zn216  Zn    0.25000   0.04340   0.28240   0.00000  Uiso   1.00
Zn217  Zn    0.04340   0.25000   0.71760   0.00000  Uiso   1.00
Zn218  Zn    0.45660   0.25000   0.28240   0.00000  Uiso   1.00
Zn219  Zn    0.25000   0.04340   0.71760   0.00000  Uiso   1.00
Zn220  Zn    0.25000   0.45660   0.28240   0.00000  Uiso   1.00
I221   I     0.18332   0.38622   0.16841   0.00000  Uiso   1.00
I222   I     0.31655   0.11392   0.83147   0.00000  Uiso   1.00
I223   I     0.11392   0.18345   0.16853   0.00000  Uiso   1.00
I224   I     0.38622   0.31668   0.83159   0.00000  Uiso   1.00
I225   I     0.31668   0.11378   0.16841   0.00000  Uiso   1.00
I226   I     0.18345   0.38608   0.83147   0.00000  Uiso   1.00
I227   I     0.38608   0.31655   0.16853   0.00000  Uiso   1.00
I228   I     0.11378   0.18332   0.83159   0.00000  Uiso   1.00
I229   I     0.18332   0.11378   0.83159   0.00000  Uiso   1.00
I230   I     0.31655   0.38608   0.16853   0.00000  Uiso   1.00
I231   I     0.11392   0.31655   0.83147   0.00000  Uiso   1.00
I232   I     0.38622   0.18332   0.16841   0.00000  Uiso   1.00
I233   I     0.31668   0.38622   0.83159   0.00000  Uiso   1.00
I234   I     0.18345   0.11392   0.16853   0.00000  Uiso   1.00
I235   I     0.38608   0.18345   0.83147   0.00000  Uiso   1.00
I236   I     0.11378   0.31668   0.16841   0.00000  Uiso   1.00
I237   I     0.43332   0.13622   0.66841   0.00000  Uiso   1.00
I238   I     0.06655   0.36392   0.33147   0.00000  Uiso   1.00
I239   I     0.36392   0.43345   0.66853   0.00000  Uiso   1.00
I240   I     0.13622   0.06668   0.33159   0.00000  Uiso   1.00
I241   I     0.06668   0.36378   0.66841   0.00000  Uiso   1.00
I242   I     0.43345   0.13608   0.33147   0.00000  Uiso   1.00
I243   I     0.13608   0.06655   0.66853   0.00000  Uiso   1.00
I244   I     0.36378   0.43332   0.33159   0.00000  Uiso   1.00
I245   I     0.43332   0.36378   0.33159   0.00000  Uiso   1.00
I246   I     0.06655   0.13608   0.66853   0.00000  Uiso   1.00
I247   I     0.36392   0.06655   0.33147   0.00000  Uiso   1.00
I248   I     0.13622   0.43332   0.66841   0.00000  Uiso   1.00
I249   I     0.06668   0.13622   0.33159   0.00000  Uiso   1.00
I250   I     0.43345   0.36392   0.66853   0.00000  Uiso   1.00
I251   I     0.13608   0.43345   0.33147   0.00000  Uiso   1.00
I252   I     0.36378   0.06668   0.66841   0.00000  Uiso   1.00
C253   C     0.71866   0.48900   0.04181   0.00000  Uiso   1.00
C254   C     0.78134   0.48900   0.95819   0.00000  Uiso   1.00
C255   C     0.98900   0.21866   0.04181   0.00000  Uiso   1.00
C256   C     0.98900   0.28134   0.95819   0.00000  Uiso   1.00
C257   C     0.78134   0.01100   0.04181   0.00000  Uiso   1.00
C258   C     0.71866   0.01100   0.95819   0.00000  Uiso   1.00
C259   C     0.51100   0.28134   0.04181   0.00000  Uiso   1.00
C260   C     0.51100   0.21866   0.95819   0.00000  Uiso   1.00
C261   C     0.96866   0.23900   0.54181   0.00000  Uiso   1.00
C262   C     0.53134   0.23900   0.45819   0.00000  Uiso   1.00
C263   C     0.73900   0.46866   0.54181   0.00000  Uiso   1.00
C264   C     0.73900   0.03134   0.45819   0.00000  Uiso   1.00
C265   C     0.53134   0.26100   0.54182   0.00000  Uiso   1.00
C266   C     0.96866   0.26100   0.45818   0.00000  Uiso   1.00
C267   C     0.76100   0.03134   0.54182   0.00000  Uiso   1.00
C268   C     0.76100   0.46866   0.45818   0.00000  Uiso   1.00
C269   C     0.71858   0.48924   0.08206   0.00000  Uiso   1.00
C270   C     0.78142   0.48924   0.91794   0.00000  Uiso   1.00
C271   C     0.98924   0.21858   0.08206   0.00000  Uiso   1.00
C272   C     0.98924   0.28142   0.91794   0.00000  Uiso   1.00
C273   C     0.78142   0.01076   0.08206   0.00000  Uiso   1.00
C274   C     0.71858   0.01076   0.91794   0.00000  Uiso   1.00
C275   C     0.51076   0.28142   0.08206   0.00000  Uiso   1.00
C276   C     0.51076   0.21858   0.91794   0.00000  Uiso   1.00
C277   C     0.96858   0.23924   0.58206   0.00000  Uiso   1.00
C278   C     0.53142   0.23924   0.41794   0.00000  Uiso   1.00
C279   C     0.73924   0.46858   0.58206   0.00000  Uiso   1.00
C280   C     0.73924   0.03142   0.41794   0.00000  Uiso   1.00
C281   C     0.53142   0.26076   0.58206   0.00000  Uiso   1.00
C282   C     0.96858   0.26076   0.41794   0.00000  Uiso   1.00
C283   C     0.76076   0.03142   0.58206   0.00000  Uiso   1.00
C284   C     0.76076   0.46858   0.41794   0.00000  Uiso   1.00
C285   C     0.75000   0.00000   0.02132   0.00000  Uiso   1.00
C286   C     0.75000   0.00000   0.97868   0.00000  Uiso   1.00
C287   C     0.50000   0.25000   0.02132   0.00000  Uiso   1.00
C288   C     0.50000   0.25000   0.97868   0.00000  Uiso   1.00
C289   C     0.50000   0.25000   0.52132   0.00000  Uiso   1.00
C290   C     0.50000   0.25000   0.47868   0.00000  Uiso   1.00
C291   C     0.75000   0.00000   0.52132   0.00000  Uiso   1.00
C292   C     0.75000   0.00000   0.47868   0.00000  Uiso   1.00
C293   C     0.75000   0.00000   0.35525   0.00000  Uiso   1.00
C294   C     0.75000   0.00000   0.64475   0.00000  Uiso   1.00
C295   C     0.50000   0.25000   0.35525   0.00000  Uiso   1.00
C296   C     0.50000   0.25000   0.64475   0.00000  Uiso   1.00
C297   C     0.50000   0.25000   0.85525   0.00000  Uiso   1.00
C298   C     0.50000   0.25000   0.14475   0.00000  Uiso   1.00
C299   C     0.75000   0.00000   0.85525   0.00000  Uiso   1.00
C300   C     0.75000   0.00000   0.14475   0.00000  Uiso   1.00
C301   C     0.67997   0.07003   0.25001   0.00000  Uiso   1.00
C302   C     0.82002   0.42997   0.75001   0.00000  Uiso   1.00
C303   C     0.92997   0.17998   0.24999   0.00000  Uiso   1.00
C304   C     0.57002   0.32003   0.74999   0.00000  Uiso   1.00
C305   C     0.82003   0.42998   0.25001   0.00000  Uiso   1.00
C306   C     0.67997   0.07003   0.75001   0.00000  Uiso   1.00
C307   C     0.57003   0.32002   0.24999   0.00000  Uiso   1.00
C308   C     0.92997   0.17997   0.74999   0.00000  Uiso   1.00
C309   C     0.67997   0.42998   0.74999   0.00000  Uiso   1.00
C310   C     0.82002   0.07003   0.24999   0.00000  Uiso   1.00
C311   C     0.92997   0.32003   0.75001   0.00000  Uiso   1.00
C312   C     0.57002   0.17997   0.25001   0.00000  Uiso   1.00
C313   C     0.82003   0.07003   0.74999   0.00000  Uiso   1.00
C314   C     0.67997   0.42997   0.24999   0.00000  Uiso   1.00
C315   C     0.57003   0.17998   0.75001   0.00000  Uiso   1.00
C316   C     0.92997   0.32003   0.25001   0.00000  Uiso   1.00
C317   C     0.64756   0.37958   0.21713   0.00000  Uiso   1.00
C318   C     0.85241   0.12046   0.78281   0.00000  Uiso   1.00
C319   C     0.62046   0.14759   0.21719   0.00000  Uiso   1.00
C320   C     0.87958   0.35244   0.78287   0.00000  Uiso   1.00
C321   C     0.85244   0.12042   0.21713   0.00000  Uiso   1.00
C322   C     0.64759   0.37954   0.78281   0.00000  Uiso   1.00
C323   C     0.87954   0.35241   0.21719   0.00000  Uiso   1.00
C324   C     0.62042   0.14756   0.78287   0.00000  Uiso   1.00
C325   C     0.64756   0.12042   0.78287   0.00000  Uiso   1.00
C326   C     0.85241   0.37954   0.21719   0.00000  Uiso   1.00
C327   C     0.62046   0.35241   0.78281   0.00000  Uiso   1.00
C328   C     0.87958   0.14756   0.21713   0.00000  Uiso   1.00
C329   C     0.85244   0.37958   0.78287   0.00000  Uiso   1.00
C330   C     0.64759   0.12046   0.21719   0.00000  Uiso   1.00
C331   C     0.87954   0.14759   0.78281   0.00000  Uiso   1.00
C332   C     0.62042   0.35244   0.21713   0.00000  Uiso   1.00
C333   C     0.89756   0.12958   0.71713   0.00000  Uiso   1.00
C334   C     0.60241   0.37046   0.28281   0.00000  Uiso   1.00
C335   C     0.87046   0.39759   0.71719   0.00000  Uiso   1.00
C336   C     0.62958   0.10244   0.28287   0.00000  Uiso   1.00
C337   C     0.60244   0.37042   0.71713   0.00000  Uiso   1.00
C338   C     0.89759   0.12954   0.28281   0.00000  Uiso   1.00
C339   C     0.62954   0.10241   0.71719   0.00000  Uiso   1.00
C340   C     0.87042   0.39756   0.28287   0.00000  Uiso   1.00
C341   C     0.89756   0.37042   0.28287   0.00000  Uiso   1.00
C342   C     0.60241   0.12954   0.71719   0.00000  Uiso   1.00
C343   C     0.87046   0.10241   0.28281   0.00000  Uiso   1.00
C344   C     0.62958   0.39756   0.71713   0.00000  Uiso   1.00
C345   C     0.60244   0.12958   0.28287   0.00000  Uiso   1.00
C346   C     0.89759   0.37046   0.71719   0.00000  Uiso   1.00
C347   C     0.62954   0.39759   0.28281   0.00000  Uiso   1.00
C348   C     0.87042   0.10244   0.71713   0.00000  Uiso   1.00
C349   C     0.59809   0.34809   0.24998   0.00000  Uiso   1.00
C350   C     0.90191   0.15191   0.74998   0.00000  Uiso   1.00
C351   C     0.65191   0.09809   0.25002   0.00000  Uiso   1.00
C352   C     0.84809   0.40191   0.75002   0.00000  Uiso   1.00
C353   C     0.90191   0.15191   0.24998   0.00000  Uiso   1.00
C354   C     0.59809   0.34809   0.74998   0.00000  Uiso   1.00
C355   C     0.84809   0.40191   0.25002   0.00000  Uiso   1.00
C356   C     0.65191   0.09809   0.75002   0.00000  Uiso   1.00
C357   C     0.59809   0.15191   0.75002   0.00000  Uiso   1.00
C358   C     0.90191   0.34809   0.25002   0.00000  Uiso   1.00
C359   C     0.65191   0.40191   0.74998   0.00000  Uiso   1.00
C360   C     0.84809   0.09809   0.24998   0.00000  Uiso   1.00
C361   C     0.90191   0.34809   0.75002   0.00000  Uiso   1.00
C362   C     0.59809   0.15191   0.25002   0.00000  Uiso   1.00
C363   C     0.84809   0.09809   0.74998   0.00000  Uiso   1.00
C364   C     0.65191   0.40191   0.24998   0.00000  Uiso   1.00
C365   C     0.75000   0.00000   0.10242   0.00000  Uiso   1.00
C366   C     0.75000   0.00000   0.89758   0.00000  Uiso   1.00
C367   C     0.50000   0.25000   0.10242   0.00000  Uiso   1.00
C368   C     0.50000   0.25000   0.89758   0.00000  Uiso   1.00
C369   C     0.50000   0.25000   0.60242   0.00000  Uiso   1.00
C370   C     0.50000   0.25000   0.39758   0.00000  Uiso   1.00
C371   C     0.75000   0.00000   0.60242   0.00000  Uiso   1.00
C372   C     0.75000   0.00000   0.39758   0.00000  Uiso   1.00
H373   H     0.69434   0.47976   0.02677   0.00000  Uiso   1.00
H374   H     0.80566   0.47976   0.97323   0.00000  Uiso   1.00
H375   H     0.97976   0.19434   0.02677   0.00000  Uiso   1.00
H376   H     0.97976   0.30566   0.97323   0.00000  Uiso   1.00
H377   H     0.80566   0.02024   0.02677   0.00000  Uiso   1.00
H378   H     0.69434   0.02024   0.97323   0.00000  Uiso   1.00
H379   H     0.52024   0.30566   0.02677   0.00000  Uiso   1.00
H380   H     0.52024   0.19434   0.97323   0.00000  Uiso   1.00
H381   H     0.94434   0.22976   0.52677   0.00000  Uiso   1.00
H382   H     0.55566   0.22976   0.47323   0.00000  Uiso   1.00
H383   H     0.72976   0.44434   0.52677   0.00000  Uiso   1.00
H384   H     0.72976   0.05566   0.47323   0.00000  Uiso   1.00
H385   H     0.55566   0.27024   0.52677   0.00000  Uiso   1.00
H386   H     0.94434   0.27024   0.47323   0.00000  Uiso   1.00
H387   H     0.77024   0.05566   0.52677   0.00000  Uiso   1.00
H388   H     0.77024   0.44434   0.47323   0.00000  Uiso   1.00
H389   H     0.69413   0.48052   0.09723   0.00000  Uiso   1.00
H390   H     0.80587   0.48052   0.90277   0.00000  Uiso   1.00
H391   H     0.98052   0.19413   0.09723   0.00000  Uiso   1.00
H392   H     0.98052   0.30587   0.90277   0.00000  Uiso   1.00
H393   H     0.80587   0.01948   0.09723   0.00000  Uiso   1.00
H394   H     0.69413   0.01948   0.90277   0.00000  Uiso   1.00
H395   H     0.51948   0.30587   0.09723   0.00000  Uiso   1.00
H396   H     0.51948   0.19413   0.90277   0.00000  Uiso   1.00
H397   H     0.94413   0.23052   0.59723   0.00000  Uiso   1.00
H398   H     0.55587   0.23052   0.40277   0.00000  Uiso   1.00
H399   H     0.73052   0.44413   0.59723   0.00000  Uiso   1.00
H400   H     0.73052   0.05587   0.40277   0.00000  Uiso   1.00
H401   H     0.55587   0.26948   0.59724   0.00000  Uiso   1.00
H402   H     0.94413   0.26948   0.40276   0.00000  Uiso   1.00
H403   H     0.76948   0.05587   0.59724   0.00000  Uiso   1.00
H404   H     0.76948   0.44413   0.40276   0.00000  Uiso   1.00
O405   O     0.75000   0.00000   0.25000   0.00000  Uiso   1.00
O406   O     0.75000   0.00000   0.75000   0.00000  Uiso   1.00
O407   O     0.50000   0.25000   0.25000   0.00000  Uiso   1.00
O408   O     0.50000   0.25000   0.75000   0.00000  Uiso   1.00
O409   O     0.75000   0.46964   0.33683   0.00000  Uiso   1.00
O410   O     0.75000   0.03036   0.66317   0.00000  Uiso   1.00
O411   O     0.53036   0.25000   0.33683   0.00000  Uiso   1.00
O412   O     0.96964   0.25000   0.66317   0.00000  Uiso   1.00
O413   O     0.75000   0.03036   0.33683   0.00000  Uiso   1.00
O414   O     0.75000   0.46964   0.66317   0.00000  Uiso   1.00
O415   O     0.96964   0.25000   0.33683   0.00000  Uiso   1.00
O416   O     0.53036   0.25000   0.66317   0.00000  Uiso   1.00
O417   O     0.50000   0.21964   0.83683   0.00000  Uiso   1.00
O418   O     0.50000   0.28036   0.16317   0.00000  Uiso   1.00
O419   O     0.78036   0.00000   0.83683   0.00000  Uiso   1.00
O420   O     0.71964   0.00000   0.16317   0.00000  Uiso   1.00
O421   O     0.50000   0.28036   0.83683   0.00000  Uiso   1.00
O422   O     0.50000   0.21964   0.16317   0.00000  Uiso   1.00
O423   O     0.71964   0.00000   0.83683   0.00000  Uiso   1.00
O424   O     0.78036   0.00000   0.16317   0.00000  Uiso   1.00
O425   O     0.70725   0.07307   0.27282   0.00000  Uiso   1.00
O426   O     0.79274   0.42693   0.72718   0.00000  Uiso   1.00
O427   O     0.92693   0.20726   0.27282   0.00000  Uiso   1.00
O428   O     0.57307   0.29274   0.72718   0.00000  Uiso   1.00
O429   O     0.79274   0.42693   0.27282   0.00000  Uiso   1.00
O430   O     0.70725   0.07307   0.72718   0.00000  Uiso   1.00
O431   O     0.57307   0.29274   0.27282   0.00000  Uiso   1.00
O432   O     0.92693   0.20726   0.72718   0.00000  Uiso   1.00
O433   O     0.70725   0.42693   0.72718   0.00000  Uiso   1.00
O434   O     0.79274   0.07307   0.27282   0.00000  Uiso   1.00
O435   O     0.92693   0.29275   0.72718   0.00000  Uiso   1.00
O436   O     0.57307   0.20726   0.27282   0.00000  Uiso   1.00
O437   O     0.79274   0.07307   0.72718   0.00000  Uiso   1.00
O438   O     0.70725   0.42693   0.27282   0.00000  Uiso   1.00
O439   O     0.57307   0.20726   0.72718   0.00000  Uiso   1.00
O440   O     0.92693   0.29275   0.27282   0.00000  Uiso   1.00
O441   O     0.95725   0.32307   0.77282   0.00000  Uiso   1.00
O442   O     0.54274   0.17693   0.22718   0.00000  Uiso   1.00
O443   O     0.67693   0.45726   0.77282   0.00000  Uiso   1.00
O444   O     0.82307   0.04275   0.22718   0.00000  Uiso   1.00
O445   O     0.54274   0.17693   0.77282   0.00000  Uiso   1.00
O446   O     0.95725   0.32307   0.22718   0.00000  Uiso   1.00
O447   O     0.82307   0.04275   0.77282   0.00000  Uiso   1.00
O448   O     0.67693   0.45726   0.22718   0.00000  Uiso   1.00
O449   O     0.95725   0.17693   0.22718   0.00000  Uiso   1.00
O450   O     0.54274   0.32307   0.77282   0.00000  Uiso   1.00
O451   O     0.67693   0.04275   0.22718   0.00000  Uiso   1.00
O452   O     0.82307   0.45726   0.77282   0.00000  Uiso   1.00
O453   O     0.54274   0.32307   0.22718   0.00000  Uiso   1.00
O454   O     0.95725   0.17693   0.77282   0.00000  Uiso   1.00
O455   O     0.82307   0.45726   0.22718   0.00000  Uiso   1.00
O456   O     0.67693   0.04275   0.77282   0.00000  Uiso   1.00
Zn457  Zn    0.70660   0.00000   0.21760   0.00000  Uiso   1.00
Zn458  Zn    0.79340   0.00000   0.78240   0.00000  Uiso   1.00
Zn459  Zn    0.50000   0.20660   0.21760   0.00000  Uiso   1.00
Zn460  Zn    0.50000   0.29340   0.78240   0.00000  Uiso   1.00
Zn461  Zn    0.79340   0.00000   0.21760   0.00000  Uiso   1.00
Zn462  Zn    0.70660   0.00000   0.78240   0.00000  Uiso   1.00
Zn463  Zn    0.50000   0.29340   0.21760   0.00000  Uiso   1.00
Zn464  Zn    0.50000   0.20660   0.78240   0.00000  Uiso   1.00
Zn465  Zn    0.95660   0.25000   0.71760   0.00000  Uiso   1.00
Zn466  Zn    0.54340   0.25000   0.28240   0.00000  Uiso   1.00
Zn467  Zn    0.75000   0.45660   0.71760   0.00000  Uiso   1.00
Zn468  Zn    0.75000   0.04340   0.28240   0.00000  Uiso   1.00
Zn469  Zn    0.54340   0.25000   0.71760   0.00000  Uiso   1.00
Zn470  Zn    0.95660   0.25000   0.28240   0.00000  Uiso   1.00
Zn471  Zn    0.75000   0.04340   0.71760   0.00000  Uiso   1.00
Zn472  Zn    0.75000   0.45660   0.28240   0.00000  Uiso   1.00
I473   I     0.68332   0.38622   0.16841   0.00000  Uiso   1.00
I474   I     0.81655   0.11392   0.83147   0.00000  Uiso   1.00
I475   I     0.61392   0.18345   0.16853   0.00000  Uiso   1.00
I476   I     0.88622   0.31668   0.83159   0.00000  Uiso   1.00
I477   I     0.81668   0.11378   0.16841   0.00000  Uiso   1.00
I478   I     0.68345   0.38608   0.83147   0.00000  Uiso   1.00
I479   I     0.88608   0.31655   0.16853   0.00000  Uiso   1.00
I480   I     0.61378   0.18332   0.83159   0.00000  Uiso   1.00
I481   I     0.68332   0.11378   0.83159   0.00000  Uiso   1.00
I482   I     0.81655   0.38608   0.16853   0.00000  Uiso   1.00
I483   I     0.61392   0.31655   0.83147   0.00000  Uiso   1.00
I484   I     0.88622   0.18332   0.16841   0.00000  Uiso   1.00
I485   I     0.81668   0.38622   0.83159   0.00000  Uiso   1.00
I486   I     0.68345   0.11392   0.16853   0.00000  Uiso   1.00
I487   I     0.88608   0.18345   0.83147   0.00000  Uiso   1.00
I488   I     0.61378   0.31668   0.16841   0.00000  Uiso   1.00
I489   I     0.93332   0.13622   0.66841   0.00000  Uiso   1.00
I490   I     0.56655   0.36392   0.33147   0.00000  Uiso   1.00
I491   I     0.86392   0.43345   0.66853   0.00000  Uiso   1.00
I492   I     0.63622   0.06668   0.33159   0.00000  Uiso   1.00
I493   I     0.56668   0.36378   0.66841   0.00000  Uiso   1.00
I494   I     0.93345   0.13608   0.33147   0.00000  Uiso   1.00
I495   I     0.63608   0.06655   0.66853   0.00000  Uiso   1.00
I496   I     0.86378   0.43332   0.33159   0.00000  Uiso   1.00
I497   I     0.93332   0.36378   0.33159   0.00000  Uiso   1.00
I498   I     0.56655   0.13608   0.66853   0.00000  Uiso   1.00
I499   I     0.86392   0.06655   0.33147   0.00000  Uiso   1.00
I500   I     0.63622   0.43332   0.66841   0.00000  Uiso   1.00
I501   I     0.56668   0.13622   0.33159   0.00000  Uiso   1.00
I502   I     0.93345   0.36392   0.66853   0.00000  Uiso   1.00
I503   I     0.63608   0.43345   0.33147   0.00000  Uiso   1.00
I504   I     0.86378   0.06668   0.66841   0.00000  Uiso   1.00
C505   C     0.21866   0.98900   0.04181   0.00000  Uiso   1.00
C506   C     0.28134   0.98900   0.95819   0.00000  Uiso   1.00
C507   C     0.48900   0.71866   0.04181   0.00000  Uiso   1.00
C508   C     0.48900   0.78134   0.95819   0.00000  Uiso   1.00
C509   C     0.28134   0.51100   0.04181   0.00000  Uiso   1.00
C510   C     0.21866   0.51100   0.95819   0.00000  Uiso   1.00
C511   C     0.01100   0.78134   0.04181   0.00000  Uiso   1.00
C512   C     0.01100   0.71866   0.95819   0.00000  Uiso   1.00
C513   C     0.46866   0.73900   0.54181   0.00000  Uiso   1.00
C514   C     0.03134   0.73900   0.45819   0.00000  Uiso   1.00
C515   C     0.23900   0.96866   0.54181   0.00000  Uiso   1.00
C516   C     0.23900   0.53134   0.45819   0.00000  Uiso   1.00
C517   C     0.03134   0.76100   0.54182   0.00000  Uiso   1.00
C518   C     0.46866   0.76100   0.45818   0.00000  Uiso   1.00
C519   C     0.26100   0.53134   0.54182   0.00000  Uiso   1.00
C520   C     0.26100   0.96866   0.45818   0.00000  Uiso   1.00
C521   C     0.21858   0.98924   0.08206   0.00000  Uiso   1.00
C522   C     0.28142   0.98924   0.91794   0.00000  Uiso   1.00
C523   C     0.48924   0.71858   0.08206   0.00000  Uiso   1.00
C524   C     0.48924   0.78142   0.91794   0.00000  Uiso   1.00
C525   C     0.28142   0.51076   0.08206   0.00000  Uiso   1.00
C526   C     0.21858   0.51076   0.91794   0.00000  Uiso   1.00
C527   C     0.01076   0.78142   0.08206   0.00000  Uiso   1.00
C528   C     0.01076   0.71858   0.91794   0.00000  Uiso   1.00
C529   C     0.46858   0.73924   0.58206   0.00000  Uiso   1.00
C530   C     0.03142   0.73924   0.41794   0.00000  Uiso   1.00
C531   C     0.23924   0.96858   0.58206   0.00000  Uiso   1.00
C532   C     0.23924   0.53142   0.41794   0.00000  Uiso   1.00
C533   C     0.03142   0.76076   0.58206   0.00000  Uiso   1.00
C534   C     0.46858   0.76076   0.41794   0.00000  Uiso   1.00
C535   C     0.26076   0.53142   0.58206   0.00000  Uiso   1.00
C536   C     0.26076   0.96858   0.41794   0.00000  Uiso   1.00
C537   C     0.25000   0.50000   0.02132   0.00000  Uiso   1.00
C538   C     0.25000   0.50000   0.97868   0.00000  Uiso   1.00
C539   C    -0.00000   0.75000   0.02132   0.00000  Uiso   1.00
C540   C    -0.00000   0.75000   0.97868   0.00000  Uiso   1.00
C541   C     0.00000   0.75000   0.52132   0.00000  Uiso   1.00
C542   C    -0.00000   0.75000   0.47868   0.00000  Uiso   1.00
C543   C     0.25000   0.50000   0.52132   0.00000  Uiso   1.00
C544   C     0.25000   0.50000   0.47868   0.00000  Uiso   1.00
C545   C     0.25000   0.50000   0.35525   0.00000  Uiso   1.00
C546   C     0.25000   0.50000   0.64475   0.00000  Uiso   1.00
C547   C     0.00000   0.75000   0.35525   0.00000  Uiso   1.00
C548   C     0.00000   0.75000   0.64475   0.00000  Uiso   1.00
C549   C    -0.00000   0.75000   0.85525   0.00000  Uiso   1.00
C550   C     0.00000   0.75000   0.14475   0.00000  Uiso   1.00
C551   C     0.25000   0.50000   0.85525   0.00000  Uiso   1.00
C552   C     0.25000   0.50000   0.14475   0.00000  Uiso   1.00
C553   C     0.17997   0.57003   0.25001   0.00000  Uiso   1.00
C554   C     0.32002   0.92997   0.75001   0.00000  Uiso   1.00
C555   C     0.42997   0.67998   0.24999   0.00000  Uiso   1.00
C556   C     0.07002   0.82003   0.74999   0.00000  Uiso   1.00
C557   C     0.32003   0.92998   0.25001   0.00000  Uiso   1.00
C558   C     0.17997   0.57003   0.75001   0.00000  Uiso   1.00
C559   C     0.07003   0.82002   0.24999   0.00000  Uiso   1.00
C560   C     0.42997   0.67997   0.74999   0.00000  Uiso   1.00
C561   C     0.17997   0.92998   0.74999   0.00000  Uiso   1.00
C562   C     0.32002   0.57003   0.24999   0.00000  Uiso   1.00
C563   C     0.42997   0.82003   0.75001   0.00000  Uiso   1.00
C564   C     0.07002   0.67997   0.25001   0.00000  Uiso   1.00
C565   C     0.32003   0.57003   0.74999   0.00000  Uiso   1.00
C566   C     0.17997   0.92997   0.24999   0.00000  Uiso   1.00
C567   C     0.07003   0.67998   0.75001   0.00000  Uiso   1.00
C568   C     0.42997   0.82003   0.25001   0.00000  Uiso   1.00
C569   C     0.14756   0.87958   0.21713   0.00000  Uiso   1.00
C570   C     0.35241   0.62046   0.78281   0.00000  Uiso   1.00
C571   C     0.12046   0.64759   0.21719   0.00000  Uiso   1.00
C572   C     0.37958   0.85244   0.78287   0.00000  Uiso   1.00
C573   C     0.35244   0.62042   0.21713   0.00000  Uiso   1.00
C574   C     0.14759   0.87954   0.78281   0.00000  Uiso   1.00
C575   C     0.37954   0.85241   0.21719   0.00000  Uiso   1.00
C576   C     0.12042   0.64756   0.78287   0.00000  Uiso   1.00
C577   C     0.14756   0.62042   0.78287   0.00000  Uiso   1.00
C578   C     0.35241   0.87954   0.21719   0.00000  Uiso   1.00
C579   C     0.12046   0.85241   0.78281   0.00000  Uiso   1.00
C580   C     0.37958   0.64756   0.21713   0.00000  Uiso   1.00
C581   C     0.35244   0.87958   0.78287   0.00000  Uiso   1.00
C582   C     0.14759   0.62046   0.21719   0.00000  Uiso   1.00
C583   C     0.37954   0.64759   0.78281   0.00000  Uiso   1.00
C584   C     0.12042   0.85244   0.21713   0.00000  Uiso   1.00
C585   C     0.39756   0.62958   0.71713   0.00000  Uiso   1.00
C586   C     0.10241   0.87046   0.28281   0.00000  Uiso   1.00
C587   C     0.37046   0.89759   0.71719   0.00000  Uiso   1.00
C588   C     0.12958   0.60244   0.28287   0.00000  Uiso   1.00
C589   C     0.10244   0.87042   0.71713   0.00000  Uiso   1.00
C590   C     0.39759   0.62954   0.28281   0.00000  Uiso   1.00
C591   C     0.12954   0.60241   0.71719   0.00000  Uiso   1.00
C592   C     0.37042   0.89756   0.28287   0.00000  Uiso   1.00
C593   C     0.39756   0.87042   0.28287   0.00000  Uiso   1.00
C594   C     0.10241   0.62954   0.71719   0.00000  Uiso   1.00
C595   C     0.37046   0.60241   0.28281   0.00000  Uiso   1.00
C596   C     0.12958   0.89756   0.71713   0.00000  Uiso   1.00
C597   C     0.10244   0.62958   0.28287   0.00000  Uiso   1.00
C598   C     0.39759   0.87046   0.71719   0.00000  Uiso   1.00
C599   C     0.12954   0.89759   0.28281   0.00000  Uiso   1.00
C600   C     0.37042   0.60244   0.71713   0.00000  Uiso   1.00
C601   C     0.09809   0.84809   0.24998   0.00000  Uiso   1.00
C602   C     0.40191   0.65191   0.74998   0.00000  Uiso   1.00
C603   C     0.15191   0.59809   0.25002   0.00000  Uiso   1.00
C604   C     0.34809   0.90191   0.75002   0.00000  Uiso   1.00
C605   C     0.40191   0.65191   0.24998   0.00000  Uiso   1.00
C606   C     0.09809   0.84809   0.74998   0.00000  Uiso   1.00
C607   C     0.34809   0.90191   0.25002   0.00000  Uiso   1.00
C608   C     0.15191   0.59809   0.75002   0.00000  Uiso   1.00
C609   C     0.09809   0.65191   0.75002   0.00000  Uiso   1.00
C610   C     0.40191   0.84809   0.25002   0.00000  Uiso   1.00
C611   C     0.15191   0.90191   0.74998   0.00000  Uiso   1.00
C612   C     0.34809   0.59809   0.24998   0.00000  Uiso   1.00
C613   C     0.40191   0.84809   0.75002   0.00000  Uiso   1.00
C614   C     0.09809   0.65191   0.25002   0.00000  Uiso   1.00
C615   C     0.34809   0.59809   0.74998   0.00000  Uiso   1.00
C616   C     0.15191   0.90191   0.24998   0.00000  Uiso   1.00
C617   C     0.25000   0.50000   0.10242   0.00000  Uiso   1.00
C618   C     0.25000   0.50000   0.89758   0.00000  Uiso   1.00
C619   C     0.00000   0.75000   0.10242   0.00000  Uiso   1.00
C620   C     0.00000   0.75000   0.89758   0.00000  Uiso   1.00
C621   C    -0.00000   0.75000   0.60242   0.00000  Uiso   1.00
C622   C     0.00000   0.75000   0.39758   0.00000  Uiso   1.00
C623   C     0.25000   0.50000   0.60242   0.00000  Uiso   1.00
C624   C     0.25000   0.50000   0.39758   0.00000  Uiso   1.00
H625   H     0.19434   0.97976   0.02677   0.00000  Uiso   1.00
H626   H     0.30566   0.97976   0.97323   0.00000  Uiso   1.00
H627   H     0.47976   0.69434   0.02677   0.00000  Uiso   1.00
H628   H     0.47976   0.80566   0.97323   0.00000  Uiso   1.00
H629   H     0.30566   0.52024   0.02677   0.00000  Uiso   1.00
H630   H     0.19434   0.52024   0.97323   0.00000  Uiso   1.00
H631   H     0.02024   0.80566   0.02677   0.00000  Uiso   1.00
H632   H     0.02024   0.69434   0.97323   0.00000  Uiso   1.00
H633   H     0.44434   0.72976   0.52677   0.00000  Uiso   1.00
H634   H     0.05566   0.72976   0.47323   0.00000  Uiso   1.00
H635   H     0.22976   0.94434   0.52677   0.00000  Uiso   1.00
H636   H     0.22976   0.55566   0.47323   0.00000  Uiso   1.00
H637   H     0.05566   0.77024   0.52677   0.00000  Uiso   1.00
H638   H     0.44434   0.77024   0.47323   0.00000  Uiso   1.00
H639   H     0.27024   0.55566   0.52677   0.00000  Uiso   1.00
H640   H     0.27024   0.94434   0.47323   0.00000  Uiso   1.00
H641   H     0.19413   0.98052   0.09723   0.00000  Uiso   1.00
H642   H     0.30587   0.98052   0.90277   0.00000  Uiso   1.00
H643   H     0.48052   0.69413   0.09723   0.00000  Uiso   1.00
H644   H     0.48052   0.80587   0.90277   0.00000  Uiso   1.00
H645   H     0.30587   0.51948   0.09723   0.00000  Uiso   1.00
H646   H     0.19413   0.51948   0.90277   0.00000  Uiso   1.00
H647   H     0.01948   0.80587   0.09723   0.00000  Uiso   1.00
H648   H     0.01948   0.69413   0.90277   0.00000  Uiso   1.00
H649   H     0.44413   0.73052   0.59723   0.00000  Uiso   1.00
H650   H     0.05587   0.73052   0.40277   0.00000  Uiso   1.00
H651   H     0.23052   0.94413   0.59723   0.00000  Uiso   1.00
H652   H     0.23052   0.55587   0.40277   0.00000  Uiso   1.00
H653   H     0.05587   0.76948   0.59724   0.00000  Uiso   1.00
H654   H     0.44413   0.76948   0.40276   0.00000  Uiso   1.00
H655   H     0.26948   0.55587   0.59724   0.00000  Uiso   1.00
H656   H     0.26948   0.94413   0.40276   0.00000  Uiso   1.00
O657   O     0.25000   0.50000   0.25000   0.00000  Uiso   1.00
O658   O     0.25000   0.50000   0.75000   0.00000  Uiso   1.00
O659   O    -0.00000   0.75000   0.25000   0.00000  Uiso   1.00
O660   O    -0.00000   0.75000   0.75000   0.00000  Uiso   1.00
O661   O     0.25000   0.96964   0.33683   0.00000  Uiso   1.00
O662   O     0.25000   0.53036   0.66317   0.00000  Uiso   1.00
O663   O     0.03036   0.75000   0.33683   0.00000  Uiso   1.00
O664   O     0.46964   0.75000   0.66317   0.00000  Uiso   1.00
O665   O     0.25000   0.53036   0.33683   0.00000  Uiso   1.00
O666   O     0.25000   0.96964   0.66317   0.00000  Uiso   1.00
O667   O     0.46964   0.75000   0.33683   0.00000  Uiso   1.00
O668   O     0.03036   0.75000   0.66317   0.00000  Uiso   1.00
O669   O     0.00000   0.71964   0.83683   0.00000  Uiso   1.00
O670   O    -0.00000   0.78036   0.16317   0.00000  Uiso   1.00
O671   O     0.28036   0.50000   0.83683   0.00000  Uiso   1.00
O672   O     0.21964   0.50000   0.16317   0.00000  Uiso   1.00
O673   O     0.00000   0.78036   0.83683   0.00000  Uiso   1.00
O674   O     0.00000   0.71964   0.16317   0.00000  Uiso   1.00
O675   O     0.21964   0.50000   0.83683   0.00000  Uiso   1.00
O676   O     0.28036   0.50000   0.16317   0.00000  Uiso   1.00
O677   O     0.20725   0.57307   0.27282   0.00000  Uiso   1.00
O678   O     0.29274   0.92693   0.72718   0.00000  Uiso   1.00
O679   O     0.42693   0.70726   0.27282   0.00000  Uiso   1.00
O680   O     0.07307   0.79274   0.72718   0.00000  Uiso   1.00
O681   O     0.29274   0.92693   0.27282   0.00000  Uiso   1.00
O682   O     0.20725   0.57307   0.72718   0.00000  Uiso   1.00
O683   O     0.07307   0.79274   0.27282   0.00000  Uiso   1.00
O684   O     0.42693   0.70726   0.72718   0.00000  Uiso   1.00
O685   O     0.20725   0.92693   0.72718   0.00000  Uiso   1.00
O686   O     0.29274   0.57307   0.27282   0.00000  Uiso   1.00
O687   O     0.42693   0.79275   0.72718   0.00000  Uiso   1.00
O688   O     0.07307   0.70726   0.27282   0.00000  Uiso   1.00
O689   O     0.29274   0.57307   0.72718   0.00000  Uiso   1.00
O690   O     0.20725   0.92693   0.27282   0.00000  Uiso   1.00
O691   O     0.07307   0.70726   0.72718   0.00000  Uiso   1.00
O692   O     0.42693   0.79275   0.27282   0.00000  Uiso   1.00
O693   O     0.45725   0.82307   0.77282   0.00000  Uiso   1.00
O694   O     0.04274   0.67693   0.22718   0.00000  Uiso   1.00
O695   O     0.17693   0.95726   0.77282   0.00000  Uiso   1.00
O696   O     0.32307   0.54275   0.22718   0.00000  Uiso   1.00
O697   O     0.04274   0.67693   0.77282   0.00000  Uiso   1.00
O698   O     0.45725   0.82307   0.22718   0.00000  Uiso   1.00
O699   O     0.32307   0.54275   0.77282   0.00000  Uiso   1.00
O700   O     0.17693   0.95726   0.22718   0.00000  Uiso   1.00
O701   O     0.45725   0.67693   0.22718   0.00000  Uiso   1.00
O702   O     0.04274   0.82307   0.77282   0.00000  Uiso   1.00
O703   O     0.17693   0.54275   0.22718   0.00000  Uiso   1.00
O704   O     0.32307   0.95726   0.77282   0.00000  Uiso   1.00
O705   O     0.04274   0.82307   0.22718   0.00000  Uiso   1.00
O706   O     0.45725   0.67693   0.77282   0.00000  Uiso   1.00
O707   O     0.32307   0.95726   0.22718   0.00000  Uiso   1.00
O708   O     0.17693   0.54275   0.77282   0.00000  Uiso   1.00
Zn709  Zn    0.20660   0.50000   0.21760   0.00000  Uiso   1.00
Zn710  Zn    0.29340   0.50000   0.78240   0.00000  Uiso   1.00
Zn711  Zn    0.00000   0.70660   0.21760   0.00000  Uiso   1.00
Zn712  Zn   -0.00000   0.79340   0.78240   0.00000  Uiso   1.00
Zn713  Zn    0.29340   0.50000   0.21760   0.00000  Uiso   1.00
Zn714  Zn    0.20660   0.50000   0.78240   0.00000  Uiso   1.00
Zn715  Zn    0.00000   0.79340   0.21760   0.00000  Uiso   1.00
Zn716  Zn   -0.00000   0.70660   0.78240   0.00000  Uiso   1.00
Zn717  Zn    0.45660   0.75000   0.71760   0.00000  Uiso   1.00
Zn718  Zn    0.04340   0.75000   0.28240   0.00000  Uiso   1.00
Zn719  Zn    0.25000   0.95660   0.71760   0.00000  Uiso   1.00
Zn720  Zn    0.25000   0.54340   0.28240   0.00000  Uiso   1.00
Zn721  Zn    0.04340   0.75000   0.71760   0.00000  Uiso   1.00
Zn722  Zn    0.45660   0.75000   0.28240   0.00000  Uiso   1.00
Zn723  Zn    0.25000   0.54340   0.71760   0.00000  Uiso   1.00
Zn724  Zn    0.25000   0.95660   0.28240   0.00000  Uiso   1.00
I725   I     0.18332   0.88622   0.16841   0.00000  Uiso   1.00
I726   I     0.31655   0.61392   0.83147   0.00000  Uiso   1.00
I727   I     0.11392   0.68345   0.16853   0.00000  Uiso   1.00
I728   I     0.38622   0.81668   0.83159   0.00000  Uiso   1.00
I729   I     0.31668   0.61378   0.16841   0.00000  Uiso   1.00
I730   I     0.18345   0.88608   0.83147   0.00000  Uiso   1.00
I731   I     0.38608   0.81655   0.16853   0.00000  Uiso   1.00
I732   I     0.11378   0.68332   0.83159   0.00000  Uiso   1.00
I733   I     0.18332   0.61378   0.83159   0.00000  Uiso   1.00
I734   I     0.31655   0.88608   0.16853   0.00000  Uiso   1.00
I735   I     0.11392   0.81655   0.83147   0.00000  Uiso   1.00
I736   I     0.38622   0.68332   0.16841   0.00000  Uiso   1.00
I737   I     0.31668   0.88622   0.83159   0.00000  Uiso   1.00
I738   I     0.18345   0.61392   0.16853   0.00000  Uiso   1.00
I739   I     0.38608   0.68345   0.83147   0.00000  Uiso   1.00
I740   I     0.11378   0.81668   0.16841   0.00000  Uiso   1.00
I741   I     0.43332   0.63622   0.66841   0.00000  Uiso   1.00
I742   I     0.06655   0.86392   0.33147   0.00000  Uiso   1.00
I743   I     0.36392   0.93345   0.66853   0.00000  Uiso   1.00
I744   I     0.13622   0.56668   0.33159   0.00000  Uiso   1.00
I745   I     0.06668   0.86378   0.66841   0.00000  Uiso   1.00
I746   I     0.43345   0.63608   0.33147   0.00000  Uiso   1.00
I747   I     0.13608   0.56655   0.66853   0.00000  Uiso   1.00
I748   I     0.36378   0.93332   0.33159   0.00000  Uiso   1.00
I749   I     0.43332   0.86378   0.33159   0.00000  Uiso   1.00
I750   I     0.06655   0.63608   0.66853   0.00000  Uiso   1.00
I751   I     0.36392   0.56655   0.33147   0.00000  Uiso   1.00
I752   I     0.13622   0.93332   0.66841   0.00000  Uiso   1.00
I753   I     0.06668   0.63622   0.33159   0.00000  Uiso   1.00
I754   I     0.43345   0.86392   0.66853   0.00000  Uiso   1.00
I755   I     0.13608   0.93345   0.33147   0.00000  Uiso   1.00
I756   I     0.36378   0.56668   0.66841   0.00000  Uiso   1.00
C757   C     0.71866   0.98900   0.04181   0.00000  Uiso   1.00
C758   C     0.78134   0.98900   0.95819   0.00000  Uiso   1.00
C759   C     0.98900   0.71866   0.04181   0.00000  Uiso   1.00
C760   C     0.98900   0.78134   0.95819   0.00000  Uiso   1.00
C761   C     0.78134   0.51100   0.04181   0.00000  Uiso   1.00
C762   C     0.71866   0.51100   0.95819   0.00000  Uiso   1.00
C763   C     0.51100   0.78134   0.04181   0.00000  Uiso   1.00
C764   C     0.51100   0.71866   0.95819   0.00000  Uiso   1.00
C765   C     0.96866   0.73900   0.54181   0.00000  Uiso   1.00
C766   C     0.53134   0.73900   0.45819   0.00000  Uiso   1.00
C767   C     0.73900   0.96866   0.54181   0.00000  Uiso   1.00
C768   C     0.73900   0.53134   0.45819   0.00000  Uiso   1.00
C769   C     0.53134   0.76100   0.54182   0.00000  Uiso   1.00
C770   C     0.96866   0.76100   0.45818   0.00000  Uiso   1.00
C771   C     0.76100   0.53134   0.54182   0.00000  Uiso   1.00
C772   C     0.76100   0.96866   0.45818   0.00000  Uiso   1.00
C773   C     0.71858   0.98924   0.08206   0.00000  Uiso   1.00
C774   C     0.78142   0.98924   0.91794   0.00000  Uiso   1.00
C775   C     0.98924   0.71858   0.08206   0.00000  Uiso   1.00
C776   C     0.98924   0.78142   0.91794   0.00000  Uiso   1.00
C777   C     0.78142   0.51076   0.08206   0.00000  Uiso   1.00
C778   C     0.71858   0.51076   0.91794   0.00000  Uiso   1.00
C779   C     0.51076   0.78142   0.08206   0.00000  Uiso   1.00
C780   C     0.51076   0.71858   0.91794   0.00000  Uiso   1.00
C781   C     0.96858   0.73924   0.58206   0.00000  Uiso   1.00
C782   C     0.53142   0.73924   0.41794   0.00000  Uiso   1.00
C783   C     0.73924   0.96858   0.58206   0.00000  Uiso   1.00
C784   C     0.73924   0.53142   0.41794   0.00000  Uiso   1.00
C785   C     0.53142   0.76076   0.58206   0.00000  Uiso   1.00
C786   C     0.96858   0.76076   0.41794   0.00000  Uiso   1.00
C787   C     0.76076   0.53142   0.58206   0.00000  Uiso   1.00
C788   C     0.76076   0.96858   0.41794   0.00000  Uiso   1.00
C789   C     0.75000   0.50000   0.02132   0.00000  Uiso   1.00
C790   C     0.75000   0.50000   0.97868   0.00000  Uiso   1.00
C791   C     0.50000   0.75000   0.02132   0.00000  Uiso   1.00
C792   C     0.50000   0.75000   0.97868   0.00000  Uiso   1.00
C793   C     0.50000   0.75000   0.52132   0.00000  Uiso   1.00
C794   C     0.50000   0.75000   0.47868   0.00000  Uiso   1.00
C795   C     0.75000   0.50000   0.52132   0.00000  Uiso   1.00
C796   C     0.75000   0.50000   0.47868   0.00000  Uiso   1.00
C797   C     0.75000   0.50000   0.35525   0.00000  Uiso   1.00
C798   C     0.75000   0.50000   0.64475   0.00000  Uiso   1.00
C799   C     0.50000   0.75000   0.35525   0.00000  Uiso   1.00
C800   C     0.50000   0.75000   0.64475   0.00000  Uiso   1.00
C801   C     0.50000   0.75000   0.85525   0.00000  Uiso   1.00
C802   C     0.50000   0.75000   0.14475   0.00000  Uiso   1.00
C803   C     0.75000   0.50000   0.85525   0.00000  Uiso   1.00
C804   C     0.75000   0.50000   0.14475   0.00000  Uiso   1.00
C805   C     0.67997   0.57003   0.25001   0.00000  Uiso   1.00
C806   C     0.82002   0.92997   0.75001   0.00000  Uiso   1.00
C807   C     0.92997   0.67998   0.24999   0.00000  Uiso   1.00
C808   C     0.57002   0.82003   0.74999   0.00000  Uiso   1.00
C809   C     0.82003   0.92998   0.25001   0.00000  Uiso   1.00
C810   C     0.67997   0.57003   0.75001   0.00000  Uiso   1.00
C811   C     0.57003   0.82002   0.24999   0.00000  Uiso   1.00
C812   C     0.92997   0.67997   0.74999   0.00000  Uiso   1.00
C813   C     0.67997   0.92998   0.74999   0.00000  Uiso   1.00
C814   C     0.82002   0.57003   0.24999   0.00000  Uiso   1.00
C815   C     0.92997   0.82003   0.75001   0.00000  Uiso   1.00
C816   C     0.57002   0.67997   0.25001   0.00000  Uiso   1.00
C817   C     0.82003   0.57003   0.74999   0.00000  Uiso   1.00
C818   C     0.67997   0.92997   0.24999   0.00000  Uiso   1.00
C819   C     0.57003   0.67998   0.75001   0.00000  Uiso   1.00
C820   C     0.92997   0.82003   0.25001   0.00000  Uiso   1.00
C821   C     0.64756   0.87958   0.21713   0.00000  Uiso   1.00
C822   C     0.85241   0.62046   0.78281   0.00000  Uiso   1.00
C823   C     0.62046   0.64759   0.21719   0.00000  Uiso   1.00
C824   C     0.87958   0.85244   0.78287   0.00000  Uiso   1.00
C825   C     0.85244   0.62042   0.21713   0.00000  Uiso   1.00
C826   C     0.64759   0.87954   0.78281   0.00000  Uiso   1.00
C827   C     0.87954   0.85241   0.21719   0.00000  Uiso   1.00
C828   C     0.62042   0.64756   0.78287   0.00000  Uiso   1.00
C829   C     0.64756   0.62042   0.78287   0.00000  Uiso   1.00
C830   C     0.85241   0.87954   0.21719   0.00000  Uiso   1.00
C831   C     0.62046   0.85241   0.78281   0.00000  Uiso   1.00
C832   C     0.87958   0.64756   0.21713   0.00000  Uiso   1.00
C833   C     0.85244   0.87958   0.78287   0.00000  Uiso   1.00
C834   C     0.64759   0.62046   0.21719   0.00000  Uiso   1.00
C835   C     0.87954   0.64759   0.78281   0.00000  Uiso   1.00
C836   C     0.62042   0.85244   0.21713   0.00000  Uiso   1.00
C837   C     0.89756   0.62958   0.71713   0.00000  Uiso   1.00
C838   C     0.60241   0.87046   0.28281   0.00000  Uiso   1.00
C839   C     0.87046   0.89759   0.71719   0.00000  Uiso   1.00
C840   C     0.62958   0.60244   0.28287   0.00000  Uiso   1.00
C841   C     0.60244   0.87042   0.71713   0.00000  Uiso   1.00
C842   C     0.89759   0.62954   0.28281   0.00000  Uiso   1.00
C843   C     0.62954   0.60241   0.71719   0.00000  Uiso   1.00
C844   C     0.87042   0.89756   0.28287   0.00000  Uiso   1.00
C845   C     0.89756   0.87042   0.28287   0.00000  Uiso   1.00
C846   C     0.60241   0.62954   0.71719   0.00000  Uiso   1.00
C847   C     0.87046   0.60241   0.28281   0.00000  Uiso   1.00
C848   C     0.62958   0.89756   0.71713   0.00000  Uiso   1.00
C849   C     0.60244   0.62958   0.28287   0.00000  Uiso   1.00
C850   C     0.89759   0.87046   0.71719   0.00000  Uiso   1.00
C851   C     0.62954   0.89759   0.28281   0.00000  Uiso   1.00
C852   C     0.87042   0.60244   0.71713   0.00000  Uiso   1.00
C853   C     0.59809   0.84809   0.24998   0.00000  Uiso   1.00
C854   C     0.90191   0.65191   0.74998   0.00000  Uiso   1.00
C855   C     0.65191   0.59809   0.25002   0.00000  Uiso   1.00
C856   C     0.84809   0.90191   0.75002   0.00000  Uiso   1.00
C857   C     0.90191   0.65191   0.24998   0.00000  Uiso   1.00
C858   C     0.59809   0.84809   0.74998   0.00000  Uiso   1.00
C859   C     0.84809   0.90191   0.25002   0.00000  Uiso   1.00
C860   C     0.65191   0.59809   0.75002   0.00000  Uiso   1.00
C861   C     0.59809   0.65191   0.75002   0.00000  Uiso   1.00
C862   C     0.90191   0.84809   0.25002   0.00000  Uiso   1.00
C863   C     0.65191   0.90191   0.74998   0.00000  Uiso   1.00
C864   C     0.84809   0.59809   0.24998   0.00000  Uiso   1.00
C865   C     0.90191   0.84809   0.75002   0.00000  Uiso   1.00
C866   C     0.59809   0.65191   0.25002   0.00000  Uiso   1.00
C867   C     0.84809   0.59809   0.74998   0.00000  Uiso   1.00
C868   C     0.65191   0.90191   0.24998   0.00000  Uiso   1.00
C869   C     0.75000   0.50000   0.10242   0.00000  Uiso   1.00
C870   C     0.75000   0.50000   0.89758   0.00000  Uiso   1.00
C871   C     0.50000   0.75000   0.10242   0.00000  Uiso   1.00
C872   C     0.50000   0.75000   0.89758   0.00000  Uiso   1.00
C873   C     0.50000   0.75000   0.60242   0.00000  Uiso   1.00
C874   C     0.50000   0.75000   0.39758   0.00000  Uiso   1.00
C875   C     0.75000   0.50000   0.60242   0.00000  Uiso   1.00
C876   C     0.75000   0.50000   0.39758   0.00000  Uiso   1.00
H877   H     0.69434   0.97976   0.02677   0.00000  Uiso   1.00
H878   H     0.80566   0.97976   0.97323   0.00000  Uiso   1.00
H879   H     0.97976   0.69434   0.02677   0.00000  Uiso   1.00
H880   H     0.97976   0.80566   0.97323   0.00000  Uiso   1.00
H881   H     0.80566   0.52024   0.02677   0.00000  Uiso   1.00
H882   H     0.69434   0.52024   0.97323   0.00000  Uiso   1.00
H883   H     0.52024   0.80566   0.02677   0.00000  Uiso   1.00
H884   H     0.52024   0.69434   0.97323   0.00000  Uiso   1.00
H885   H     0.94434   0.72976   0.52677   0.00000  Uiso   1.00
H886   H     0.55566   0.72976   0.47323   0.00000  Uiso   1.00
H887   H     0.72976   0.94434   0.52677   0.00000  Uiso   1.00
H888   H     0.72976   0.55566   0.47323   0.00000  Uiso   1.00
H889   H     0.55566   0.77024   0.52677   0.00000  Uiso   1.00
H890   H     0.94434   0.77024   0.47323   0.00000  Uiso   1.00
H891   H     0.77024   0.55566   0.52677   0.00000  Uiso   1.00
H892   H     0.77024   0.94434   0.47323   0.00000  Uiso   1.00
H893   H     0.69413   0.98052   0.09723   0.00000  Uiso   1.00
H894   H     0.80587   0.98052   0.90277   0.00000  Uiso   1.00
H895   H     0.98052   0.69413   0.09723   0.00000  Uiso   1.00
H896   H     0.98052   0.80587   0.90277   0.00000  Uiso   1.00
H897   H     0.80587   0.51948   0.09723   0.00000  Uiso   1.00
H898   H     0.69413   0.51948   0.90277   0.00000  Uiso   1.00
H899   H     0.51948   0.80587   0.09723   0.00000  Uiso   1.00
H900   H     0.51948   0.69413   0.90277   0.00000  Uiso   1.00
H901   H     0.94413   0.73052   0.59723   0.00000  Uiso   1.00
H902   H     0.55587   0.73052   0.40277   0.00000  Uiso   1.00
H903   H     0.73052   0.94413   0.59723   0.00000  Uiso   1.00
H904   H     0.73052   0.55587   0.40277   0.00000  Uiso   1.00
H905   H     0.55587   0.76948   0.59724   0.00000  Uiso   1.00
H906   H     0.94413   0.76948   0.40276   0.00000  Uiso   1.00
H907   H     0.76948   0.55587   0.59724   0.00000  Uiso   1.00
H908   H     0.76948   0.94413   0.40276   0.00000  Uiso   1.00
O909   O     0.75000   0.50000   0.25000   0.00000  Uiso   1.00
O910   O     0.75000   0.50000   0.75000   0.00000  Uiso   1.00
O911   O     0.50000   0.75000   0.25000   0.00000  Uiso   1.00
O912   O     0.50000   0.75000   0.75000   0.00000  Uiso   1.00
O913   O     0.75000   0.96964   0.33683   0.00000  Uiso   1.00
O914   O     0.75000   0.53036   0.66317   0.00000  Uiso   1.00
O915   O     0.53036   0.75000   0.33683   0.00000  Uiso   1.00
O916   O     0.96964   0.75000   0.66317   0.00000  Uiso   1.00
O917   O     0.75000   0.53036   0.33683   0.00000  Uiso   1.00
O918   O     0.75000   0.96964   0.66317   0.00000  Uiso   1.00
O919   O     0.96964   0.75000   0.33683   0.00000  Uiso   1.00
O920   O     0.53036   0.75000   0.66317   0.00000  Uiso   1.00
O921   O     0.50000   0.71964   0.83683   0.00000  Uiso   1.00
O922   O     0.50000   0.78036   0.16317   0.00000  Uiso   1.00
O923   O     0.78036   0.50000   0.83683   0.00000  Uiso   1.00
O924   O     0.71964   0.50000   0.16317   0.00000  Uiso   1.00
O925   O     0.50000   0.78036   0.83683   0.00000  Uiso   1.00
O926   O     0.50000   0.71964   0.16317   0.00000  Uiso   1.00
O927   O     0.71964   0.50000   0.83683   0.00000  Uiso   1.00
O928   O     0.78036   0.50000   0.16317   0.00000  Uiso   1.00
O929   O     0.70725   0.57307   0.27282   0.00000  Uiso   1.00
O930   O     0.79274   0.92693   0.72718   0.00000  Uiso   1.00
O931   O     0.92693   0.70726   0.27282   0.00000  Uiso   1.00
O932   O     0.57307   0.79274   0.72718   0.00000  Uiso   1.00
O933   O     0.79274   0.92693   0.27282   0.00000  Uiso   1.00
O934   O     0.70725   0.57307   0.72718   0.00000  Uiso   1.00
O935   O     0.57307   0.79274   0.27282   0.00000  Uiso   1.00
O936   O     0.92693   0.70726   0.72718   0.00000  Uiso   1.00
O937   O     0.70725   0.92693   0.72718   0.00000  Uiso   1.00
O938   O     0.79274   0.57307   0.27282   0.00000  Uiso   1.00
O939   O     0.92693   0.79275   0.72718   0.00000  Uiso   1.00
O940   O     0.57307   0.70726   0.27282   0.00000  Uiso   1.00
O941   O     0.79274   0.57307   0.72718   0.00000  Uiso   1.00
O942   O     0.70725   0.92693   0.27282   0.00000  Uiso   1.00
O943   O     0.57307   0.70726   0.72718   0.00000  Uiso   1.00
O944   O     0.92693   0.79275   0.27282   0.00000  Uiso   1.00
O945   O     0.95725   0.82307   0.77282   0.00000  Uiso   1.00
O946   O     0.54274   0.67693   0.22718   0.00000  Uiso   1.00
O947   O     0.67693   0.95726   0.77282   0.00000  Uiso   1.00
O948   O     0.82307   0.54275   0.22718   0.00000  Uiso   1.00
O949   O     0.54274   0.67693   0.77282   0.00000  Uiso   1.00
O950   O     0.95725   0.82307   0.22718   0.00000  Uiso   1.00
O951   O     0.82307   0.54275   0.77282   0.00000  Uiso   1.00
O952   O     0.67693   0.95726   0.22718   0.00000  Uiso   1.00
O953   O     0.95725   0.67693   0.22718   0.00000  Uiso   1.00
O954   O     0.54274   0.82307   0.77282   0.00000  Uiso   1.00
O955   O     0.67693   0.54275   0.22718   0.00000  Uiso   1.00
O956   O     0.82307   0.95726   0.77282   0.00000  Uiso   1.00
O957   O     0.54274   0.82307   0.22718   0.00000  Uiso   1.00
O958   O     0.95725   0.67693   0.77282   0.00000  Uiso   1.00
O959   O     0.82307   0.95726   0.22718   0.00000  Uiso   1.00
O960   O     0.67693   0.54275   0.77282   0.00000  Uiso   1.00
Zn961  Zn    0.70660   0.50000   0.21760   0.00000  Uiso   1.00
Zn962  Zn    0.79340   0.50000   0.78240   0.00000  Uiso   1.00
Zn963  Zn    0.50000   0.70660   0.21760   0.00000  Uiso   1.00
Zn964  Zn    0.50000   0.79340   0.78240   0.00000  Uiso   1.00
Zn965  Zn    0.79340   0.50000   0.21760   0.00000  Uiso   1.00
Zn966  Zn    0.70660   0.50000   0.78240   0.00000  Uiso   1.00
Zn967  Zn    0.50000   0.79340   0.21760   0.00000  Uiso   1.00
Zn968  Zn    0.50000   0.70660   0.78240   0.00000  Uiso   1.00
Zn969  Zn    0.95660   0.75000   0.71760   0.00000  Uiso   1.00
Zn970  Zn    0.54340   0.75000   0.28240   0.00000  Uiso   1.00
Zn971  Zn    0.75000   0.95660   0.71760   0.00000  Uiso   1.00
Zn972  Zn    0.75000   0.54340   0.28240   0.00000  Uiso   1.00
Zn973  Zn    0.54340   0.75000   0.71760   0.00000  Uiso   1.00
Zn974  Zn    0.95660   0.75000   0.28240   0.00000  Uiso   1.00
Zn975  Zn    0.75000   0.54340   0.71760   0.00000  Uiso   1.00
Zn976  Zn    0.75000   0.95660   0.28240   0.00000  Uiso   1.00
I977   I     0.68332   0.88622   0.16841   0.00000  Uiso   1.00
I978   I     0.81655   0.61392   0.83147   0.00000  Uiso   1.00
I979   I     0.61392   0.68345   0.16853   0.00000  Uiso   1.00
I980   I     0.88622   0.81668   0.83159   0.00000  Uiso   1.00
I981   I     0.81668   0.61378   0.16841   0.00000  Uiso   1.00
I982   I     0.68345   0.88608   0.83147   0.00000  Uiso   1.00
I983   I     0.88608   0.81655   0.16853   0.00000  Uiso   1.00
I984   I     0.61378   0.68332   0.83159   0.00000  Uiso   1.00
I985   I     0.68332   0.61378   0.83159   0.00000  Uiso   1.00
I986   I     0.81655   0.88608   0.16853   0.00000  Uiso   1.00
I987   I     0.61392   0.81655   0.83147   0.00000  Uiso   1.00
I988   I     0.88622   0.68332   0.16841   0.00000  Uiso   1.00
I989   I     0.81668   0.88622   0.83159   0.00000  Uiso   1.00
I990   I     0.68345   0.61392   0.16853   0.00000  Uiso   1.00
I991   I     0.88608   0.68345   0.83147   0.00000  Uiso   1.00
I992   I     0.61378   0.81668   0.16841   0.00000  Uiso   1.00
I993   I     0.93332   0.63622   0.66841   0.00000  Uiso   1.00
I994   I     0.56655   0.86392   0.33147   0.00000  Uiso   1.00
I995   I     0.86392   0.93345   0.66853   0.00000  Uiso   1.00
I996   I     0.63622   0.56668   0.33159   0.00000  Uiso   1.00
I997   I     0.56668   0.86378   0.66841   0.00000  Uiso   1.00
I998   I     0.93345   0.63608   0.33147   0.00000  Uiso   1.00
I999   I     0.63608   0.56655   0.66853   0.00000  Uiso   1.00
I1000  I     0.86378   0.93332   0.33159   0.00000  Uiso   1.00
I1001  I     0.93332   0.86378   0.33159   0.00000  Uiso   1.00
I1002  I     0.56655   0.63608   0.66853   0.00000  Uiso   1.00
I1003  I     0.86392   0.56655   0.33147   0.00000  Uiso   1.00
I1004  I     0.63622   0.93332   0.66841   0.00000  Uiso   1.00
I1005  I     0.56668   0.63622   0.33159   0.00000  Uiso   1.00
I1006  I     0.93345   0.86392   0.66853   0.00000  Uiso   1.00
I1007  I     0.63608   0.93345   0.33147   0.00000  Uiso   1.00
I1008  I     0.86378   0.56668   0.66841   0.00000  Uiso   1.00
loop_
_geom_bond_atom_site_label_1
_geom_bond_atom_site_label_2
_geom_bond_distance
_geom_bond_site_symmetry_2
_ccdc_geom_bond_type
C1     C17     1.392   .     A
C1     H121    1.083   .     S
C1     C537    1.405   .     A
C2     C18     1.392   .     A
C2     C538    1.405   .     A
C2     H122    1.083   .     S
C3     C19     1.392   .     A
C3     H123    1.083   .     S
C3     C287    1.405   .     A
C4     C288    1.405   .     A
C4     H124    1.083   .     S
C4     C20     1.392   .     A
C5     C21     1.392   .     A
C5     H125    1.083   .     S
C5     C33     1.405   .     S
C6     H126    1.083   .     S
C6     C22     1.392   .     A
C6     C34     1.405   .     S
C7     C23     1.392   .     A
C7     H127    1.083   .     S
C7     C35     1.405   .     S
C8     H128    1.083   .     S
C8     C24     1.392   .     A
C8     C36     1.405   .     S
C9     C25     1.392   .     A
C9     H129    1.083   .     S
C9     C289    1.405   .     S
C10    H130    1.083   .     S
C10    C26     1.392   .     A
C10    C38     1.405   .     S
C11    C543    1.405   .     A
C11    C27     1.392   .     A
C11    H131    1.083   .     S
C12    H132    1.083   .     S
C12    C28     1.392   .     A
C12    C40     1.405   .     S
C13    C29     1.392   .     A
C13    C37     1.405   .     A
C13    H133    1.083   .     S
C14    C30     1.392   .     A
C14    H134    1.083   .     S
C14    C290    1.405   .     A
C15    H135    1.083   .     S
C15    C31     1.392   .     A
C15    C39     1.405   .     S
C16    C32     1.392   .     A
C16    C544    1.405   .     A
C16    H136    1.083   .     S
C17    H137    1.083   .     S
C17    C617    1.402   .     S
C18    H138    1.083   .     S
C18    C618    1.402   .     S
C19    H139    1.083   .     S
C19    C367    1.402   .     S
C20    H140    1.083   .     S
C20    C368    1.402   .     S
C21    C113    1.402   .     A
C21    H141    1.083   .     S
C22    H142    1.083   .     S
C22    C114    1.402   .     A
C23    H143    1.083   .     S
C23    C115    1.402   .     A
C24    C116    1.402   .     A
C24    H144    1.083   .     S
C25    C369    1.402   .     A
C25    H145    1.083   .     S
C26    H146    1.083   .     S
C26    C118    1.402   .     A
C27    H147    1.083   .     S
C27    C623    1.402   .     A
C28    H148    1.083   .     S
C28    C120    1.402   .     A
C29    H149    1.083   .     S
C29    C117    1.402   .     S
C30    H150    1.083   .     S
C30    C370    1.402   .     S
C31    H151    1.083   .     S
C31    C119    1.402   .     S
C32    H152    1.083   .     S
C32    C624    1.402   .     S
C33    C505    1.405   1_545 A
C33    C34     1.474   1_554 S
C34    C506    1.405   1_545 A
C34    C33     1.474   1_556 S
C35    C255    1.405   1_455 A
C35    C36     1.474   1_554 S
C36    C256    1.405   1_455 A
C36    C35     1.474   1_556 S
C37    C261    1.405   1_455 S
C37    C38     1.474   .     S
C38    C266    1.405   1_455 A
C39    C40     1.474   .     S
C39    C515    1.405   1_545 A
C40    C520    1.405   1_545 A
C41    O161    1.278   .     A
C41    C120    1.463   .     S
C41    O661    1.278   1_545 S
C42    O158    1.278   .     A
C42    C119    1.463   .     S
C42    O666    1.278   1_545 S
C43    O159    1.278   .     A
C43    C118    1.463   .     S
C43    O415    1.278   1_455 S
C44    O164    1.278   .     A
C44    C117    1.463   .     S
C44    O412    1.278   1_455 S
C45    C116    1.463   .     S
C45    O165    1.278   .     S
C45    O169    1.278   .     S
C46    C115    1.463   .     S
C46    O170    1.278   .     A
C46    O166    1.278   .     S
C47    C114    1.463   .     S
C47    O167    1.278   .     S
C47    O171    1.278   .     S
C48    C113    1.463   .     S
C48    O168    1.278   .     S
C48    O172    1.278   .     S
C49    O173    1.275   .     A
C49    C99     1.449   .     S
C49    O199    1.276   .     A
C50    O200    1.275   .     A
C50    O174    1.276   .     A
C50    C100    1.449   .     S
C51    O197    1.275   .     A
C51    O175    1.276   .     A
C51    C101    1.449   .     S
C52    C102    1.449   .     S
C52    O198    1.276   .     A
C52    O176    1.275   .     A
C53    O203    1.276   .     A
C53    C103    1.449   .     S
C53    O177    1.275   .     A
C54    O204    1.275   .     A
C54    C104    1.449   .     S
C54    O178    1.276   .     A
C55    O201    1.275   .     A
C55    C97     1.449   .     S
C55    O179    1.276   .     A
C56    C98     1.449   .     S
C56    O180    1.275   .     A
C56    O202    1.276   .     A
C57    O191    1.276   .     A
C57    C107    1.449   .     S
C57    O181    1.275   .     A
C58    O182    1.276   .     A
C58    O192    1.275   .     A
C58    C108    1.449   .     S
C59    C109    1.449   .     S
C59    O183    1.276   .     A
C59    O189    1.275   .     A
C60    O184    1.275   .     A
C60    O190    1.276   .     A
C60    C110    1.449   .     S
C61    O195    1.276   .     A
C61    O185    1.275   .     A
C61    C111    1.449   .     S
C62    O196    1.275   .     A
C62    O186    1.276   .     A
C62    C112    1.449   .     S
C63    O193    1.275   .     A
C63    C105    1.449   .     S
C63    O187    1.276   .     A
C64    O194    1.276   .     A
C64    O188    1.275   .     A
C64    C106    1.449   .     S
C65    I221    2.145   .     S
C65    C112    1.407   .     A
C65    C80     1.401   .     A
C66    I222    2.145   .     S
C66    C79     1.401   .     A
C66    C111    1.407   .     A
C67    C110    1.407   .     A
C67    C78     1.401   .     A
C67    I223    2.145   .     S
C68    C77     1.401   .     A
C68    I224    2.145   .     S
C68    C109    1.407   .     A
C69    C76     1.401   .     A
C69    C108    1.407   .     A
C69    I225    2.145   .     S
C70    I226    2.145   .     S
C70    C75     1.401   .     A
C70    C107    1.407   .     A
C71    I227    2.145   .     S
C71    C106    1.407   .     A
C71    C74     1.401   .     A
C72    C73     1.401   .     A
C72    C105    1.407   .     A
C72    I228    2.145   .     S
C73    C104    1.407   .     A
C73    I229    2.145   .     S
C74    I230    2.145   .     S
C74    C103    1.407   .     A
C75    C102    1.407   .     A
C75    I231    2.145   .     S
C76    I232    2.145   .     S
C76    C101    1.407   .     A
C77    I233    2.145   .     S
C77    C100    1.407   .     A
C78    C99     1.407   .     A
C78    I234    2.145   .     S
C79    C98     1.407   .     A
C79    I235    2.145   .     S
C80    C97     1.407   .     A
C80    I236    2.145   .     S
C81    C98     1.407   .     A
C81    I237    2.145   .     S
C81    C96     1.401   .     A
C82    I238    2.145   .     S
C82    C97     1.407   .     A
C82    C95     1.401   .     A
C83    I239    2.145   .     S
C83    C94     1.401   .     A
C83    C100    1.407   .     A
C84    C93     1.401   .     A
C84    C99     1.407   .     A
C84    I240    2.145   .     S
C85    C102    1.407   .     A
C85    C92     1.401   .     A
C85    I241    2.145   .     S
C86    C91     1.401   .     A
C86    I242    2.145   .     S
C86    C101    1.407   .     A
C87    I243    2.145   .     S
C87    C104    1.407   .     A
C87    C90     1.401   .     A
C88    I244    2.145   .     S
C88    C89     1.401   .     A
C88    C103    1.407   .     A
C89    C106    1.407   .     A
C89    I245    2.145   .     S
C90    C105    1.407   .     A
C90    I246    2.145   .     S
C91    I247    2.145   .     S
C91    C108    1.407   .     A
C92    I248    2.145   .     S
C92    C107    1.407   .     A
C93    C110    1.407   .     A
C93    I249    2.145   .     S
C94    I250    2.145   .     S
C94    C109    1.407   .     A
C95    I251    2.145   .     S
C95    C112    1.407   .     A
C96    C111    1.407   .     A
C96    I252    2.145   .     S
C113   C521    1.402   1_545 S
C114   C522    1.402   1_545 S
C115   C271    1.402   1_455 S
C116   C272    1.402   1_455 S
C117   C277    1.402   1_455 A
C118   C282    1.402   1_455 S
C119   C531    1.402   1_545 A
C120   C536    1.402   1_545 S
O153   Zn724   1.940   1_545 S
O153   Zn205   1.940   .     S
O153   Zn209   1.940   .     S
O153   Zn216   1.940   .     S
O154   Zn719   1.940   1_545 S
O154   Zn206   1.940   .     S
O154   Zn210   1.940   .     S
O154   Zn219   1.940   .     S
O155   Zn470   1.940   1_455 S
O155   Zn207   1.940   .     S
O155   Zn211   1.940   .     S
O155   Zn214   1.940   .     S
O156   Zn208   1.940   .     S
O156   Zn212   1.940   .     S
O156   Zn465   1.940   1_455 S
O156   Zn217   1.940   .     S
O157   Zn220   1.941   .     S
O157   C545    1.278   .     S
O158   Zn219   1.941   .     S
O159   Zn214   1.941   .     S
O160   Zn213   1.941   .     S
O160   C296    1.278   .     S
O161   Zn216   1.941   .     S
O162   Zn215   1.941   .     S
O162   C546    1.278   .     S
O163   Zn218   1.941   .     S
O163   C295    1.278   .     S
O164   Zn217   1.941   .     S
O165   Zn212   1.941   .     S
O166   Zn211   1.941   .     S
O167   Zn206   1.941   .     S
O168   Zn205   1.941   .     S
O169   Zn208   1.941   .     S
O170   Zn207   1.941   .     S
O171   Zn210   1.941   .     S
O172   Zn209   1.941   .     S
O173   Zn216   1.928   .     S
O174   Zn215   1.928   .     S
O175   Zn218   1.928   .     S
O176   Zn217   1.928   .     S
O177   Zn220   1.928   .     S
O178   Zn219   1.928   .     S
O179   Zn214   1.928   .     S
O180   Zn213   1.928   .     S
O181   Zn215   1.928   .     S
O182   Zn216   1.928   .     S
O183   Zn213   1.928   .     S
O184   Zn214   1.928   .     S
O185   Zn219   1.928   .     S
O186   Zn220   1.928   .     S
O187   Zn217   1.928   .     S
O188   Zn218   1.928   .     S
O189   Zn460   1.928   .     S
O190   Zn207   1.928   .     S
O191   Zn714   1.928   .     S
O192   Zn209   1.928   .     S
O193   Zn212   1.928   .     S
O194   Zn463   1.928   .     S
O195   Zn206   1.928   .     S
O196   Zn709   1.928   .     S
O197   Zn459   1.928   .     S
O198   Zn208   1.928   .     S
O199   Zn205   1.928   .     S
O200   Zn710   1.928   .     S
O201   Zn211   1.928   .     S
O202   Zn464   1.928   .     S
O203   Zn713   1.928   .     S
O204   Zn210   1.928   .     S
Zn205  O700    1.928   1_545 S
Zn206  O704    1.928   1_545 S
Zn207  O449    1.928   1_455 S
Zn208  O441    1.928   1_455 S
Zn209  O707    1.928   1_545 S
Zn210  O695    1.928   1_545 S
Zn211  O446    1.928   1_455 S
Zn212  O454    1.928   1_455 S
Zn213  O408    1.940   .     S
Zn215  O658    1.940   .     S
Zn218  O407    1.940   .     S
Zn220  O657    1.940   .     S
C253   C269    1.392   .     A
C253   H373    1.083   .     S
C253   C789    1.405   .     A
C254   C270    1.392   .     A
C254   C790    1.405   .     A
C254   H374    1.083   .     S
C255   C271    1.392   .     A
C255   H375    1.083   .     S
C255   C35     1.405   1_655 A
C256   C36     1.405   1_655 A
C256   H376    1.083   .     S
C256   C272    1.392   .     A
C257   C273    1.392   .     A
C257   H377    1.083   .     S
C257   C285    1.405   .     S
C258   H378    1.083   .     S
C258   C274    1.392   .     A
C258   C286    1.405   .     S
C259   C275    1.392   .     A
C259   H379    1.083   .     S
C259   C287    1.405   .     S
C260   H380    1.083   .     S
C260   C276    1.392   .     A
C260   C288    1.405   .     S
C261   C277    1.392   .     A
C261   H381    1.083   .     S
C261   C37     1.405   1_655 S
C262   H382    1.083   .     S
C262   C278    1.392   .     A
C262   C290    1.405   .     S
C263   C795    1.405   .     A
C263   C279    1.392   .     A
C263   H383    1.083   .     S
C264   H384    1.083   .     S
C264   C280    1.392   .     A
C264   C292    1.405   .     S
C265   C281    1.392   .     A
C265   C289    1.405   .     A
C265   H385    1.083   .     S
C266   C282    1.392   .     A
C266   H386    1.083   .     S
C266   C38     1.405   1_655 A
C267   H387    1.083   .     S
C267   C283    1.392   .     A
C267   C291    1.405   .     S
C268   C284    1.392   .     A
C268   C796    1.405   .     A
C268   H388    1.083   .     S
C269   H389    1.083   .     S
C269   C869    1.402   .     S
C270   H390    1.083   .     S
C270   C870    1.402   .     S
C271   H391    1.083   .     S
C271   C115    1.402   1_655 S
C272   H392    1.083   .     S
C272   C116    1.402   1_655 S
C273   C365    1.402   .     A
C273   H393    1.083   .     S
C274   H394    1.083   .     S
C274   C366    1.402   .     A
C275   H395    1.083   .     S
C275   C367    1.402   .     A
C276   C368    1.402   .     A
C276   H396    1.083   .     S
C277   C117    1.402   1_655 A
C277   H397    1.083   .     S
C278   H398    1.083   .     S
C278   C370    1.402   .     A
C279   H399    1.083   .     S
C279   C875    1.402   .     A
C280   H400    1.083   .     S
C280   C372    1.402   .     A
C281   H401    1.083   .     S
C281   C369    1.402   .     S
C282   H402    1.083   .     S
C282   C118    1.402   1_655 S
C283   H403    1.083   .     S
C283   C371    1.402   .     S
C284   H404    1.083   .     S
C284   C876    1.402   .     S
C285   C757    1.405   1_545 A
C285   C286    1.474   1_554 S
C286   C758    1.405   1_545 A
C286   C285    1.474   1_556 S
C287   C288    1.474   1_554 S
C288   C287    1.474   1_556 S
C289   C290    1.474   .     S
C291   C292    1.474   .     S
C291   C767    1.405   1_545 A
C292   C772    1.405   1_545 A
C293   O413    1.278   .     A
C293   C372    1.463   .     S
C293   O913    1.278   1_545 S
C294   O410    1.278   .     A
C294   C371    1.463   .     S
C294   O918    1.278   1_545 S
C295   O411    1.278   .     A
C295   C370    1.463   .     S
C296   O416    1.278   .     A
C296   C369    1.463   .     S
C297   C368    1.463   .     S
C297   O417    1.278   .     S
C297   O421    1.278   .     S
C298   C367    1.463   .     S
C298   O422    1.278   .     A
C298   O418    1.278   .     S
C299   C366    1.463   .     S
C299   O419    1.278   .     S
C299   O423    1.278   .     S
C300   C365    1.463   .     S
C300   O420    1.278   .     S
C300   O424    1.278   .     S
C301   O425    1.275   .     A
C301   C351    1.449   .     S
C301   O451    1.276   .     A
C302   O452    1.275   .     A
C302   O426    1.276   .     A
C302   C352    1.449   .     S
C303   O449    1.275   .     A
C303   O427    1.276   .     A
C303   C353    1.449   .     S
C304   C354    1.449   .     S
C304   O450    1.276   .     A
C304   O428    1.275   .     A
C305   O455    1.276   .     A
C305   C355    1.449   .     S
C305   O429    1.275   .     A
C306   O456    1.275   .     A
C306   C356    1.449   .     S
C306   O430    1.276   .     A
C307   O453    1.275   .     A
C307   C349    1.449   .     S
C307   O431    1.276   .     A
C308   C350    1.449   .     S
C308   O432    1.275   .     A
C308   O454    1.276   .     A
C309   O443    1.276   .     A
C309   C359    1.449   .     S
C309   O433    1.275   .     A
C310   O434    1.276   .     A
C310   O444    1.275   .     A
C310   C360    1.449   .     S
C311   C361    1.449   .     S
C311   O435    1.276   .     A
C311   O441    1.275   .     A
C312   O436    1.275   .     A
C312   O442    1.276   .     A
C312   C362    1.449   .     S
C313   O447    1.276   .     A
C313   O437    1.275   .     A
C313   C363    1.449   .     S
C314   O448    1.275   .     A
C314   O438    1.276   .     A
C314   C364    1.449   .     S
C315   O445    1.275   .     A
C315   C357    1.449   .     S
C315   O439    1.276   .     A
C316   O446    1.276   .     A
C316   O440    1.275   .     A
C316   C358    1.449   .     S
C317   I473    2.145   .     S
C317   C364    1.407   .     A
C317   C332    1.401   .     A
C318   I474    2.145   .     S
C318   C331    1.401   .     A
C318   C363    1.407   .     A
C319   C362    1.407   .     A
C319   C330    1.401   .     A
C319   I475    2.145   .     S
C320   C329    1.401   .     A
C320   I476    2.145   .     S
C320   C361    1.407   .     A
C321   C328    1.401   .     A
C321   C360    1.407   .     A
C321   I477    2.145   .     S
C322   I478    2.145   .     S
C322   C327    1.401   .     A
C322   C359    1.407   .     A
C323   I479    2.145   .     S
C323   C358    1.407   .     A
C323   C326    1.401   .     A
C324   C325    1.401   .     A
C324   C357    1.407   .     A
C324   I480    2.145   .     S
C325   C356    1.407   .     A
C325   I481    2.145   .     S
C326   I482    2.145   .     S
C326   C355    1.407   .     A
C327   C354    1.407   .     A
C327   I483    2.145   .     S
C328   I484    2.145   .     S
C328   C353    1.407   .     A
C329   I485    2.145   .     S
C329   C352    1.407   .     A
C330   C351    1.407   .     A
C330   I486    2.145   .     S
C331   C350    1.407   .     A
C331   I487    2.145   .     S
C332   C349    1.407   .     A
C332   I488    2.145   .     S
C333   C350    1.407   .     A
C333   I489    2.145   .     S
C333   C348    1.401   .     A
C334   I490    2.145   .     S
C334   C349    1.407   .     A
C334   C347    1.401   .     A
C335   I491    2.145   .     S
C335   C346    1.401   .     A
C335   C352    1.407   .     A
C336   C345    1.401   .     A
C336   C351    1.407   .     A
C336   I492    2.145   .     S
C337   C354    1.407   .     A
C337   C344    1.401   .     A
C337   I493    2.145   .     S
C338   C343    1.401   .     A
C338   I494    2.145   .     S
C338   C353    1.407   .     A
C339   I495    2.145   .     S
C339   C356    1.407   .     A
C339   C342    1.401   .     A
C340   I496    2.145   .     S
C340   C341    1.401   .     A
C340   C355    1.407   .     A
C341   C358    1.407   .     A
C341   I497    2.145   .     S
C342   C357    1.407   .     A
C342   I498    2.145   .     S
C343   I499    2.145   .     S
C343   C360    1.407   .     A
C344   I500    2.145   .     S
C344   C359    1.407   .     A
C345   C362    1.407   .     A
C345   I501    2.145   .     S
C346   I502    2.145   .     S
C346   C361    1.407   .     A
C347   I503    2.145   .     S
C347   C364    1.407   .     A
C348   C363    1.407   .     A
C348   I504    2.145   .     S
C365   C773    1.402   1_545 S
C366   C774    1.402   1_545 S
C371   C783    1.402   1_545 A
C372   C788    1.402   1_545 S
O405   Zn976   1.940   1_545 S
O405   Zn457   1.940   .     S
O405   Zn461   1.940   .     S
O405   Zn468   1.940   .     S
O406   Zn971   1.940   1_545 S
O406   Zn458   1.940   .     S
O406   Zn462   1.940   .     S
O406   Zn471   1.940   .     S
O407   Zn459   1.940   .     S
O407   Zn463   1.940   .     S
O407   Zn466   1.940   .     S
O408   Zn460   1.940   .     S
O408   Zn464   1.940   .     S
O408   Zn469   1.940   .     S
O409   Zn472   1.941   .     S
O409   C797    1.278   .     S
O410   Zn471   1.941   .     S
O411   Zn466   1.941   .     S
O412   Zn465   1.941   .     S
O412   C44     1.278   1_655 S
O413   Zn468   1.941   .     S
O414   Zn467   1.941   .     S
O414   C798    1.278   .     S
O415   Zn470   1.941   .     S
O415   C43     1.278   1_655 S
O416   Zn469   1.941   .     S
O417   Zn464   1.941   .     S
O418   Zn463   1.941   .     S
O419   Zn458   1.941   .     S
O420   Zn457   1.941   .     S
O421   Zn460   1.941   .     S
O422   Zn459   1.941   .     S
O423   Zn462   1.941   .     S
O424   Zn461   1.941   .     S
O425   Zn468   1.928   .     S
O426   Zn467   1.928   .     S
O427   Zn470   1.928   .     S
O428   Zn469   1.928   .     S
O429   Zn472   1.928   .     S
O430   Zn471   1.928   .     S
O431   Zn466   1.928   .     S
O432   Zn465   1.928   .     S
O433   Zn467   1.928   .     S
O434   Zn468   1.928   .     S
O435   Zn465   1.928   .     S
O436   Zn466   1.928   .     S
O437   Zn471   1.928   .     S
O438   Zn472   1.928   .     S
O439   Zn469   1.928   .     S
O440   Zn470   1.928   .     S
O441   Zn208   1.928   1_655 S
O442   Zn459   1.928   .     S
O443   Zn966   1.928   .     S
O444   Zn461   1.928   .     S
O445   Zn464   1.928   .     S
O446   Zn211   1.928   1_655 S
O447   Zn458   1.928   .     S
O448   Zn961   1.928   .     S
O449   Zn207   1.928   1_655 S
O450   Zn460   1.928   .     S
O451   Zn457   1.928   .     S
O452   Zn962   1.928   .     S
O453   Zn463   1.928   .     S
O454   Zn212   1.928   1_655 S
O455   Zn965   1.928   .     S
O456   Zn462   1.928   .     S
Zn457  O952    1.928   1_545 S
Zn458  O956    1.928   1_545 S
Zn461  O959    1.928   1_545 S
Zn462  O947    1.928   1_545 S
Zn465  O156    1.940   1_655 S
Zn467  O910    1.940   .     S
Zn470  O155    1.940   1_655 S
Zn472  O909    1.940   .     S
C505   C521    1.392   .     A
C505   H625    1.083   .     S
C505   C33     1.405   1_565 A
C506   C522    1.392   .     A
C506   C34     1.405   1_565 A
C506   H626    1.083   .     S
C507   C523    1.392   .     A
C507   H627    1.083   .     S
C507   C791    1.405   .     A
C508   C792    1.405   .     A
C508   H628    1.083   .     S
C508   C524    1.392   .     A
C509   C525    1.392   .     A
C509   H629    1.083   .     S
C509   C537    1.405   .     S
C510   H630    1.083   .     S
C510   C526    1.392   .     A
C510   C538    1.405   .     S
C511   C527    1.392   .     A
C511   H631    1.083   .     S
C511   C539    1.405   .     S
C512   H632    1.083   .     S
C512   C528    1.392   .     A
C512   C540    1.405   .     S
C513   C529    1.392   .     A
C513   H633    1.083   .     S
C513   C793    1.405   .     S
C514   H634    1.083   .     S
C514   C530    1.392   .     A
C514   C542    1.405   .     S
C515   C39     1.405   1_565 A
C515   C531    1.392   .     A
C515   H635    1.083   .     S
C516   H636    1.083   .     S
C516   C532    1.392   .     A
C516   C544    1.405   .     S
C517   C533    1.392   .     A
C517   C541    1.405   .     A
C517   H637    1.083   .     S
C518   C534    1.392   .     A
C518   H638    1.083   .     S
C518   C794    1.405   .     A
C519   H639    1.083   .     S
C519   C535    1.392   .     A
C519   C543    1.405   .     S
C520   C536    1.392   .     A
C520   C40     1.405   1_565 A
C520   H640    1.083   .     S
C521   H641    1.083   .     S
C521   C113    1.402   1_565 S
C522   H642    1.083   .     S
C522   C114    1.402   1_565 S
C523   H643    1.083   .     S
C523   C871    1.402   .     S
C524   H644    1.083   .     S
C524   C872    1.402   .     S
C525   C617    1.402   .     A
C525   H645    1.083   .     S
C526   H646    1.083   .     S
C526   C618    1.402   .     A
C527   H647    1.083   .     S
C527   C619    1.402   .     A
C528   C620    1.402   .     A
C528   H648    1.083   .     S
C529   C873    1.402   .     A
C529   H649    1.083   .     S
C530   H650    1.083   .     S
C530   C622    1.402   .     A
C531   H651    1.083   .     S
C531   C119    1.402   1_565 A
C532   H652    1.083   .     S
C532   C624    1.402   .     A
C533   H653    1.083   .     S
C533   C621    1.402   .     S
C534   H654    1.083   .     S
C534   C874    1.402   .     S
C535   H655    1.083   .     S
C535   C623    1.402   .     S
C536   H656    1.083   .     S
C536   C120    1.402   1_565 S
C537   C538    1.474   1_554 S
C538   C537    1.474   1_556 S
C539   C759    1.405   1_455 A
C539   C540    1.474   1_554 S
C540   C760    1.405   1_455 A
C540   C539    1.474   1_556 S
C541   C765    1.405   1_455 S
C541   C542    1.474   .     S
C542   C770    1.405   1_455 A
C543   C544    1.474   .     S
C545   O665    1.278   .     A
C545   C624    1.463   .     S
C546   O662    1.278   .     A
C546   C623    1.463   .     S
C547   O663    1.278   .     A
C547   C622    1.463   .     S
C547   O919    1.278   1_455 S
C548   O668    1.278   .     A
C548   C621    1.463   .     S
C548   O916    1.278   1_455 S
C549   C620    1.463   .     S
C549   O669    1.278   .     S
C549   O673    1.278   .     S
C550   C619    1.463   .     S
C550   O674    1.278   .     A
C550   O670    1.278   .     S
C551   C618    1.463   .     S
C551   O671    1.278   .     S
C551   O675    1.278   .     S
C552   C617    1.463   .     S
C552   O672    1.278   .     S
C552   O676    1.278   .     S
C553   O677    1.275   .     A
C553   C603    1.449   .     S
C553   O703    1.276   .     A
C554   O704    1.275   .     A
C554   O678    1.276   .     A
C554   C604    1.449   .     S
C555   O701    1.275   .     A
C555   O679    1.276   .     A
C555   C605    1.449   .     S
C556   C606    1.449   .     S
C556   O702    1.276   .     A
C556   O680    1.275   .     A
C557   O707    1.276   .     A
C557   C607    1.449   .     S
C557   O681    1.275   .     A
C558   O708    1.275   .     A
C558   C608    1.449   .     S
C558   O682    1.276   .     A
C559   O705    1.275   .     A
C559   C601    1.449   .     S
C559   O683    1.276   .     A
C560   C602    1.449   .     S
C560   O684    1.275   .     A
C560   O706    1.276   .     A
C561   O695    1.276   .     A
C561   C611    1.449   .     S
C561   O685    1.275   .     A
C562   O686    1.276   .     A
C562   O696    1.275   .     A
C562   C612    1.449   .     S
C563   C613    1.449   .     S
C563   O687    1.276   .     A
C563   O693    1.275   .     A
C564   O688    1.275   .     A
C564   O694    1.276   .     A
C564   C614    1.449   .     S
C565   O699    1.276   .     A
C565   O689    1.275   .     A
C565   C615    1.449   .     S
C566   O700    1.275   .     A
C566   O690    1.276   .     A
C566   C616    1.449   .     S
C567   O697    1.275   .     A
C567   C609    1.449   .     S
C567   O691    1.276   .     A
C568   O698    1.276   .     A
C568   O692    1.275   .     A
C568   C610    1.449   .     S
C569   I725    2.145   .     S
C569   C616    1.407   .     A
C569   C584    1.401   .     A
C570   I726    2.145   .     S
C570   C583    1.401   .     A
C570   C615    1.407   .     A
C571   C614    1.407   .     A
C571   C582    1.401   .     A
C571   I727    2.145   .     S
C572   C581    1.401   .     A
C572   I728    2.145   .     S
C572   C613    1.407   .     A
C573   C580    1.401   .     A
C573   C612    1.407   .     A
C573   I729    2.145   .     S
C574   I730    2.145   .     S
C574   C579    1.401   .     A
C574   C611    1.407   .     A
C575   I731    2.145   .     S
C575   C610    1.407   .     A
C575   C578    1.401   .     A
C576   C577    1.401   .     A
C576   C609    1.407   .     A
C576   I732    2.145   .     S
C577   C608    1.407   .     A
C577   I733    2.145   .     S
C578   I734    2.145   .     S
C578   C607    1.407   .     A
C579   C606    1.407   .     A
C579   I735    2.145   .     S
C580   I736    2.145   .     S
C580   C605    1.407   .     A
C581   I737    2.145   .     S
C581   C604    1.407   .     A
C582   C603    1.407   .     A
C582   I738    2.145   .     S
C583   C602    1.407   .     A
C583   I739    2.145   .     S
C584   C601    1.407   .     A
C584   I740    2.145   .     S
C585   C602    1.407   .     A
C585   I741    2.145   .     S
C585   C600    1.401   .     A
C586   I742    2.145   .     S
C586   C601    1.407   .     A
C586   C599    1.401   .     A
C587   I743    2.145   .     S
C587   C598    1.401   .     A
C587   C604    1.407   .     A
C588   C597    1.401   .     A
C588   C603    1.407   .     A
C588   I744    2.145   .     S
C589   C606    1.407   .     A
C589   C596    1.401   .     A
C589   I745    2.145   .     S
C590   C595    1.401   .     A
C590   I746    2.145   .     S
C590   C605    1.407   .     A
C591   I747    2.145   .     S
C591   C608    1.407   .     A
C591   C594    1.401   .     A
C592   I748    2.145   .     S
C592   C593    1.401   .     A
C592   C607    1.407   .     A
C593   C610    1.407   .     A
C593   I749    2.145   .     S
C594   C609    1.407   .     A
C594   I750    2.145   .     S
C595   I751    2.145   .     S
C595   C612    1.407   .     A
C596   I752    2.145   .     S
C596   C611    1.407   .     A
C597   C614    1.407   .     A
C597   I753    2.145   .     S
C598   I754    2.145   .     S
C598   C613    1.407   .     A
C599   I755    2.145   .     S
C599   C616    1.407   .     A
C600   C615    1.407   .     A
C600   I756    2.145   .     S
C619   C775    1.402   1_455 S
C620   C776    1.402   1_455 S
C621   C781    1.402   1_455 A
C622   C786    1.402   1_455 S
O657   Zn709   1.940   .     S
O657   Zn713   1.940   .     S
O657   Zn720   1.940   .     S
O658   Zn710   1.940   .     S
O658   Zn714   1.940   .     S
O658   Zn723   1.940   .     S
O659   Zn974   1.940   1_455 S
O659   Zn711   1.940   .     S
O659   Zn715   1.940   .     S
O659   Zn718   1.940   .     S
O660   Zn712   1.940   .     S
O660   Zn716   1.940   .     S
O660   Zn969   1.940   1_455 S
O660   Zn721   1.940   .     S
O661   Zn724   1.941   .     S
O661   C41     1.278   1_565 S
O662   Zn723   1.941   .     S
O663   Zn718   1.941   .     S
O664   Zn717   1.941   .     S
O664   C800    1.278   .     S
O665   Zn720   1.941   .     S
O666   Zn719   1.941   .     S
O666   C42     1.278   1_565 S
O667   Zn722   1.941   .     S
O667   C799    1.278   .     S
O668   Zn721   1.941   .     S
O669   Zn716   1.941   .     S
O670   Zn715   1.941   .     S
O671   Zn710   1.941   .     S
O672   Zn709   1.941   .     S
O673   Zn712   1.941   .     S
O674   Zn711   1.941   .     S
O675   Zn714   1.941   .     S
O676   Zn713   1.941   .     S
O677   Zn720   1.928   .     S
O678   Zn719   1.928   .     S
O679   Zn722   1.928   .     S
O680   Zn721   1.928   .     S
O681   Zn724   1.928   .     S
O682   Zn723   1.928   .     S
O683   Zn718   1.928   .     S
O684   Zn717   1.928   .     S
O685   Zn719   1.928   .     S
O686   Zn720   1.928   .     S
O687   Zn717   1.928   .     S
O688   Zn718   1.928   .     S
O689   Zn723   1.928   .     S
O690   Zn724   1.928   .     S
O691   Zn721   1.928   .     S
O692   Zn722   1.928   .     S
O693   Zn964   1.928   .     S
O694   Zn711   1.928   .     S
O695   Zn210   1.928   1_565 S
O696   Zn713   1.928   .     S
O697   Zn716   1.928   .     S
O698   Zn967   1.928   .     S
O699   Zn710   1.928   .     S
O700   Zn205   1.928   1_565 S
O701   Zn963   1.928   .     S
O702   Zn712   1.928   .     S
O703   Zn709   1.928   .     S
O704   Zn206   1.928   1_565 S
O705   Zn715   1.928   .     S
O706   Zn968   1.928   .     S
O707   Zn209   1.928   1_565 S
O708   Zn714   1.928   .     S
Zn711  O953    1.928   1_455 S
Zn712  O945    1.928   1_455 S
Zn715  O950    1.928   1_455 S
Zn716  O958    1.928   1_455 S
Zn717  O912    1.940   .     S
Zn719  O154    1.940   1_565 S
Zn722  O911    1.940   .     S
Zn724  O153    1.940   1_565 S
C757   C773    1.392   .     A
C757   H877    1.083   .     S
C757   C285    1.405   1_565 A
C758   C774    1.392   .     A
C758   C286    1.405   1_565 A
C758   H878    1.083   .     S
C759   C775    1.392   .     A
C759   H879    1.083   .     S
C759   C539    1.405   1_655 A
C760   C540    1.405   1_655 A
C760   H880    1.083   .     S
C760   C776    1.392   .     A
C761   C777    1.392   .     A
C761   H881    1.083   .     S
C761   C789    1.405   .     S
C762   H882    1.083   .     S
C762   C778    1.392   .     A
C762   C790    1.405   .     S
C763   C779    1.392   .     A
C763   H883    1.083   .     S
C763   C791    1.405   .     S
C764   H884    1.083   .     S
C764   C780    1.392   .     A
C764   C792    1.405   .     S
C765   C781    1.392   .     A
C765   H885    1.083   .     S
C765   C541    1.405   1_655 S
C766   H886    1.083   .     S
C766   C782    1.392   .     A
C766   C794    1.405   .     S
C767   C291    1.405   1_565 A
C767   C783    1.392   .     A
C767   H887    1.083   .     S
C768   H888    1.083   .     S
C768   C784    1.392   .     A
C768   C796    1.405   .     S
C769   C785    1.392   .     A
C769   C793    1.405   .     A
C769   H889    1.083   .     S
C770   C786    1.392   .     A
C770   H890    1.083   .     S
C770   C542    1.405   1_655 A
C771   H891    1.083   .     S
C771   C787    1.392   .     A
C771   C795    1.405   .     S
C772   C788    1.392   .     A
C772   C292    1.405   1_565 A
C772   H892    1.083   .     S
C773   H893    1.083   .     S
C773   C365    1.402   1_565 S
C774   H894    1.083   .     S
C774   C366    1.402   1_565 S
C775   H895    1.083   .     S
C775   C619    1.402   1_655 S
C776   H896    1.083   .     S
C776   C620    1.402   1_655 S
C777   C869    1.402   .     A
C777   H897    1.083   .     S
C778   H898    1.083   .     S
C778   C870    1.402   .     A
C779   H899    1.083   .     S
C779   C871    1.402   .     A
C780   C872    1.402   .     A
C780   H900    1.083   .     S
C781   C621    1.402   1_655 A
C781   H901    1.083   .     S
C782   H902    1.083   .     S
C782   C874    1.402   .     A
C783   H903    1.083   .     S
C783   C371    1.402   1_565 A
C784   H904    1.083   .     S
C784   C876    1.402   .     A
C785   H905    1.083   .     S
C785   C873    1.402   .     S
C786   H906    1.083   .     S
C786   C622    1.402   1_655 S
C787   H907    1.083   .     S
C787   C875    1.402   .     S
C788   H908    1.083   .     S
C788   C372    1.402   1_565 S
C789   C790    1.474   1_554 S
C790   C789    1.474   1_556 S
C791   C792    1.474   1_554 S
C792   C791    1.474   1_556 S
C793   C794    1.474   .     S
C795   C796    1.474   .     S
C797   O917    1.278   .     A
C797   C876    1.463   .     S
C798   O914    1.278   .     A
C798   C875    1.463   .     S
C799   O915    1.278   .     A
C799   C874    1.463   .     S
C800   O920    1.278   .     A
C800   C873    1.463   .     S
C801   C872    1.463   .     S
C801   O921    1.278   .     S
C801   O925    1.278   .     S
C802   C871    1.463   .     S
C802   O926    1.278   .     A
C802   O922    1.278   .     S
C803   C870    1.463   .     S
C803   O923    1.278   .     S
C803   O927    1.278   .     S
C804   C869    1.463   .     S
C804   O924    1.278   .     S
C804   O928    1.278   .     S
C805   O929    1.275   .     A
C805   C855    1.449   .     S
C805   O955    1.276   .     A
C806   O956    1.275   .     A
C806   O930    1.276   .     A
C806   C856    1.449   .     S
C807   O953    1.275   .     A
C807   O931    1.276   .     A
C807   C857    1.449   .     S
C808   C858    1.449   .     S
C808   O954    1.276   .     A
C808   O932    1.275   .     A
C809   O959    1.276   .     A
C809   C859    1.449   .     S
C809   O933    1.275   .     A
C810   O960    1.275   .     A
C810   C860    1.449   .     S
C810   O934    1.276   .     A
C811   O957    1.275   .     A
C811   C853    1.449   .     S
C811   O935    1.276   .     A
C812   C854    1.449   .     S
C812   O936    1.275   .     A
C812   O958    1.276   .     A
C813   O947    1.276   .     A
C813   C863    1.449   .     S
C813   O937    1.275   .     A
C814   O938    1.276   .     A
C814   O948    1.275   .     A
C814   C864    1.449   .     S
C815   C865    1.449   .     S
C815   O939    1.276   .     A
C815   O945    1.275   .     A
C816   O940    1.275   .     A
C816   O946    1.276   .     A
C816   C866    1.449   .     S
C817   O951    1.276   .     A
C817   O941    1.275   .     A
C817   C867    1.449   .     S
C818   O952    1.275   .     A
C818   O942    1.276   .     A
C818   C868    1.449   .     S
C819   O949    1.275   .     A
C819   C861    1.449   .     S
C819   O943    1.276   .     A
C820   O950    1.276   .     A
C820   O944    1.275   .     A
C820   C862    1.449   .     S
C821   I977    2.145   .     S
C821   C868    1.407   .     A
C821   C836    1.401   .     A
C822   I978    2.145   .     S
C822   C835    1.401   .     A
C822   C867    1.407   .     A
C823   C866    1.407   .     A
C823   C834    1.401   .     A
C823   I979    2.145   .     S
C824   C833    1.401   .     A
C824   I980    2.145   .     S
C824   C865    1.407   .     A
C825   C832    1.401   .     A
C825   C864    1.407   .     A
C825   I981    2.145   .     S
C826   I982    2.145   .     S
C826   C831    1.401   .     A
C826   C863    1.407   .     A
C827   I983    2.145   .     S
C827   C862    1.407   .     A
C827   C830    1.401   .     A
C828   C829    1.401   .     A
C828   C861    1.407   .     A
C828   I984    2.145   .     S
C829   C860    1.407   .     A
C829   I985    2.145   .     S
C830   I986    2.145   .     S
C830   C859    1.407   .     A
C831   C858    1.407   .     A
C831   I987    2.145   .     S
C832   I988    2.145   .     S
C832   C857    1.407   .     A
C833   I989    2.145   .     S
C833   C856    1.407   .     A
C834   C855    1.407   .     A
C834   I990    2.145   .     S
C835   C854    1.407   .     A
C835   I991    2.145   .     S
C836   C853    1.407   .     A
C836   I992    2.145   .     S
C837   C854    1.407   .     A
C837   I993    2.145   .     S
C837   C852    1.401   .     A
C838   I994    2.145   .     S
C838   C853    1.407   .     A
C838   C851    1.401   .     A
C839   I995    2.145   .     S
C839   C850    1.401   .     A
C839   C856    1.407   .     A
C840   C849    1.401   .     A
C840   C855    1.407   .     A
C840   I996    2.145   .     S
C841   C858    1.407   .     A
C841   C848    1.401   .     A
C841   I997    2.145   .     S
C842   C847    1.401   .     A
C842   I998    2.145   .     S
C842   C857    1.407   .     A
C843   I999    2.145   .     S
C843   C860    1.407   .     A
C843   C846    1.401   .     A
C844   I1000   2.145   .     S
C844   C845    1.401   .     A
C844   C859    1.407   .     A
C845   C862    1.407   .     A
C845   I1001   2.145   .     S
C846   C861    1.407   .     A
C846   I1002   2.145   .     S
C847   I1003   2.145   .     S
C847   C864    1.407   .     A
C848   I1004   2.145   .     S
C848   C863    1.407   .     A
C849   C866    1.407   .     A
C849   I1005   2.145   .     S
C850   I1006   2.145   .     S
C850   C865    1.407   .     A
C851   I1007   2.145   .     S
C851   C868    1.407   .     A
C852   C867    1.407   .     A
C852   I1008   2.145   .     S
O909   Zn961   1.940   .     S
O909   Zn965   1.940   .     S
O909   Zn972   1.940   .     S
O910   Zn962   1.940   .     S
O910   Zn966   1.940   .     S
O910   Zn975   1.940   .     S
O911   Zn963   1.940   .     S
O911   Zn967   1.940   .     S
O911   Zn970   1.940   .     S
O912   Zn964   1.940   .     S
O912   Zn968   1.940   .     S
O912   Zn973   1.940   .     S
O913   Zn976   1.941   .     S
O913   C293    1.278   1_565 S
O914   Zn975   1.941   .     S
O915   Zn970   1.941   .     S
O916   Zn969   1.941   .     S
O916   C548    1.278   1_655 S
O917   Zn972   1.941   .     S
O918   Zn971   1.941   .     S
O918   C294    1.278   1_565 S
O919   Zn974   1.941   .     S
O919   C547    1.278   1_655 S
O920   Zn973   1.941   .     S
O921   Zn968   1.941   .     S
O922   Zn967   1.941   .     S
O923   Zn962   1.941   .     S
O924   Zn961   1.941   .     S
O925   Zn964   1.941   .     S
O926   Zn963   1.941   .     S
O927   Zn966   1.941   .     S
O928   Zn965   1.941   .     S
O929   Zn972   1.928   .     S
O930   Zn971   1.928   .     S
O931   Zn974   1.928   .     S
O932   Zn973   1.928   .     S
O933   Zn976   1.928   .     S
O934   Zn975   1.928   .     S
O935   Zn970   1.928   .     S
O936   Zn969   1.928   .     S
O937   Zn971   1.928   .     S
O938   Zn972   1.928   .     S
O939   Zn969   1.928   .     S
O940   Zn970   1.928   .     S
O941   Zn975   1.928   .     S
O942   Zn976   1.928   .     S
O943   Zn973   1.928   .     S
O944   Zn974   1.928   .     S
O945   Zn712   1.928   1_655 S
O946   Zn963   1.928   .     S
O947   Zn462   1.928   1_565 S
O948   Zn965   1.928   .     S
O949   Zn968   1.928   .     S
O950   Zn715   1.928   1_655 S
O951   Zn962   1.928   .     S
O952   Zn457   1.928   1_565 S
O953   Zn711   1.928   1_655 S
O954   Zn964   1.928   .     S
O955   Zn961   1.928   .     S
O956   Zn458   1.928   1_565 S
O957   Zn967   1.928   .     S
O958   Zn716   1.928   1_655 S
O959   Zn461   1.928   1_565 S
O960   Zn966   1.928   .     S
Zn969  O660    1.940   1_655 S
Zn971  O406    1.940   1_565 S
Zn974  O659    1.940   1_655 S
Zn976  O405    1.940   1_565 S
