data_str_m1_o1_o17_pcu_sym.38
_audit_creation_date              2020-01-03
_audit_creation_method            'Materials Studio'
_symmetry_space_group_name_H-M    'P1'
_symmetry_Int_Tables_number       1
_symmetry_cell_setting            triclinic
loop_
_symmetry_equiv_pos_as_xyz
  x,y,z
_cell_length_a                    36.6888
_cell_length_b                    36.6873
_cell_length_c                    34.3684
_cell_angle_alpha                 89.9940
_cell_angle_beta                  89.9962
_cell_angle_gamma                 89.9941
loop_
_atom_site_label
_atom_site_type_symbol
_atom_site_fract_x
_atom_site_fract_y
_atom_site_fract_z
_atom_site_U_iso_or_equiv
_atom_site_adp_type
_atom_site_occupancy
C1     C     0.03291   0.25404   0.41871   0.00000  Uiso   1.00
C2     C     0.21684   0.00056   0.08128   0.00000  Uiso   1.00
C3     C     0.25048   0.46661   0.54075   0.00000  Uiso   1.00
C4     C     0.03314   0.25410   0.45924   0.00000  Uiso   1.00
C5     C     0.46685   0.24600   0.54076   0.00000  Uiso   1.00
C6     C     0.25058   0.46661   0.45924   0.00000  Uiso   1.00
C7     C     0.24949   0.03339   0.54074   0.00000  Uiso   1.00
C8     C     0.21661   0.00043   0.95926   0.00000  Uiso   1.00
C9     C     0.28339   0.49945   0.04076   0.00000  Uiso   1.00
C10    C     0.00402   0.28315   0.95924   0.00000  Uiso   1.00
C11    C     0.49596   0.21685   0.04076   0.00000  Uiso   1.00
C12    C     0.28339   0.49954   0.95926   0.00000  Uiso   1.00
C13    C     0.49604   0.21708   0.91872   0.00000  Uiso   1.00
C14    C     0.21661   0.00053   0.04076   0.00000  Uiso   1.00
C15    C     0.49598   0.21685   0.95925   0.00000  Uiso   1.00
C16    C     0.00404   0.28315   0.04076   0.00000  Uiso   1.00
C17    C     0.09792   0.34793   0.25000   0.00000  Uiso   1.00
C18    C     0.40177   0.15142   0.74997   0.00000  Uiso   1.00
C19    C     0.15194   0.09806   0.25000   0.00000  Uiso   1.00
C20    C     0.34840   0.40158   0.75000   0.00000  Uiso   1.00
C21    C     0.40207   0.15208   0.25000   0.00000  Uiso   1.00
C22    C     0.09843   0.34842   0.75000   0.00000  Uiso   1.00
C23    C     0.34805   0.40194   0.25000   0.00000  Uiso   1.00
C24    C     0.00399   0.28292   0.08128   0.00000  Uiso   1.00
C25    C     0.15168   0.09848   0.75006   0.00000  Uiso   1.00
C26    C     0.09791   0.15208   0.75010   0.00000  Uiso   1.00
C27    C     0.40173   0.34827   0.25000   0.00000  Uiso   1.00
C28    C     0.15211   0.40211   0.75000   0.00000  Uiso   1.00
C29    C     0.34840   0.09840   0.25000   0.00000  Uiso   1.00
C30    C     0.40210   0.34791   0.75001   0.00000  Uiso   1.00
C31    C     0.09827   0.15173   0.25000   0.00000  Uiso   1.00
C32    C     0.34801   0.09783   0.74985   0.00000  Uiso   1.00
C33    C     0.15159   0.40160   0.25001   0.00000  Uiso   1.00
C34    C    -0.00000   0.25004   0.47961   0.00000  Uiso   1.00
C35    C     0.21684   0.00035   0.91874   0.00000  Uiso   1.00
C36    C    -0.00000   0.25005   0.52039   0.00000  Uiso   1.00
C37    C     0.24999  -0.00000   0.47961   0.00000  Uiso   1.00
C38    C     0.24999  -0.00000   0.52038   0.00000  Uiso   1.00
C39    C     0.25000   0.49998   0.97962   0.00000  Uiso   1.00
C40    C     0.25000   0.49998   0.02040   0.00000  Uiso   1.00
C41    C    -0.00000   0.25000   0.97961   0.00000  Uiso   1.00
C42    C    -0.00000   0.25000   0.02039   0.00000  Uiso   1.00
C43    C     0.28316   0.49942   0.08128   0.00000  Uiso   1.00
C44    C     0.00396   0.28292   0.91871   0.00000  Uiso   1.00
C45    C     0.49601   0.21708   0.08129   0.00000  Uiso   1.00
C46    C    -0.00000   0.25002   0.39840   0.00000  Uiso   1.00
C47    C    -0.00000   0.25003   0.60159   0.00000  Uiso   1.00
C48    C     0.25000  -0.00000   0.39841   0.00000  Uiso   1.00
C49    C     0.46708   0.24605   0.58128   0.00000  Uiso   1.00
C50    C     0.24999   0.00000   0.60158   0.00000  Uiso   1.00
C51    C     0.25000   0.49999   0.89842   0.00000  Uiso   1.00
C52    C     0.25000   0.49999   0.10159   0.00000  Uiso   1.00
C53    C     0.00000   0.25000   0.89841   0.00000  Uiso   1.00
C54    C    -0.00000   0.25000   0.10160   0.00000  Uiso   1.00
C55    C     0.43406   0.24193   0.47972   0.00000  Uiso   1.00
C56    C     0.06593   0.25816   0.52027   0.00000  Uiso   1.00
C57    C     0.24886   0.06642   0.47970   0.00000  Uiso   1.00
C58    C     0.25105   0.43358   0.52028   0.00000  Uiso   1.00
C59    C     0.06593   0.25816   0.47971   0.00000  Uiso   1.00
C60    C     0.25061   0.46684   0.41873   0.00000  Uiso   1.00
C61    C     0.43406   0.24194   0.52029   0.00000  Uiso   1.00
C62    C     0.25112   0.43357   0.47972   0.00000  Uiso   1.00
C63    C     0.24893   0.06642   0.52026   0.00000  Uiso   1.00
C64    C     0.18358   0.00094   0.97974   0.00000  Uiso   1.00
C65    C     0.31642   0.49895   0.02028   0.00000  Uiso   1.00
C66    C     0.00805   0.31594   0.97971   0.00000  Uiso   1.00
C67    C     0.49193   0.18406   0.02029   0.00000  Uiso   1.00
C68    C     0.31642   0.49902   0.97972   0.00000  Uiso   1.00
C69    C     0.18358   0.00101   0.02029   0.00000  Uiso   1.00
C70    C     0.49195   0.18406   0.97973   0.00000  Uiso   1.00
C71    C     0.24957   0.03316   0.58126   0.00000  Uiso   1.00
C72    C     0.00806   0.31594   0.02027   0.00000  Uiso   1.00
C73    C     0.25000  -0.00000   0.35595   0.00000  Uiso   1.00
C74    C     0.25000   0.00000   0.64404   0.00000  Uiso   1.00
C75    C    -0.00000   0.25000   0.35595   0.00000  Uiso   1.00
C76    C     0.00000   0.25001   0.64405   0.00000  Uiso   1.00
C77    C     0.00000   0.25000   0.85595   0.00000  Uiso   1.00
C78    C    -0.00000   0.25000   0.14405   0.00000  Uiso   1.00
C79    C     0.25000  -0.00000   0.85596   0.00000  Uiso   1.00
C80    C     0.25000  -0.00000   0.14405   0.00000  Uiso   1.00
C81    C     0.17998   0.07002   0.25000   0.00000  Uiso   1.00
C82    C     0.46708   0.24601   0.41872   0.00000  Uiso   1.00
C83    C     0.32012   0.42988   0.74999   0.00000  Uiso   1.00
C84    C     0.43003   0.18003   0.25000   0.00000  Uiso   1.00
C85    C     0.07013   0.32013   0.75000   0.00000  Uiso   1.00
C86    C     0.32002   0.42998   0.25000   0.00000  Uiso   1.00
C87    C     0.17989   0.07012   0.75000   0.00000  Uiso   1.00
C88    C     0.06997   0.31997   0.25000   0.00000  Uiso   1.00
C89    C     0.42989   0.17988   0.75004   0.00000  Uiso   1.00
C90    C     0.18007   0.43007   0.75000   0.00000  Uiso   1.00
C91    C     0.32015   0.07015   0.25000   0.00000  Uiso   1.00
C92    C     0.43006   0.31995   0.74999   0.00000  Uiso   1.00
C93    C     0.03292   0.25404   0.58128   0.00000  Uiso   1.00
C94    C     0.07010   0.17990   0.25000   0.00000  Uiso   1.00
C95    C     0.31997   0.06991   0.74995   0.00000  Uiso   1.00
C96    C     0.17985   0.42985   0.25000   0.00000  Uiso   1.00
C97    C     0.06990   0.18001   0.74995   0.00000  Uiso   1.00
C98    C     0.42990   0.32010   0.25000   0.00000  Uiso   1.00
C99    C     0.12205   0.40322   0.22313   0.00000  Uiso   1.00
C100   C     0.35144   0.12103   0.78226   0.00000  Uiso   1.00
C101   C     0.09468   0.12033   0.22606   0.00000  Uiso   1.00
C102   C     0.37881   0.35121   0.78244   0.00000  Uiso   1.00
C103   C     0.37795   0.09679   0.22312   0.00000  Uiso   1.00
C104   C     0.24938   0.03316   0.41872   0.00000  Uiso   1.00
C105   C     0.14814   0.37945   0.78279   0.00000  Uiso   1.00
C106   C     0.40532   0.37967   0.22605   0.00000  Uiso   1.00
C107   C     0.12154   0.14914   0.78230   0.00000  Uiso   1.00
C108   C     0.14424   0.11815   0.78487   0.00000  Uiso   1.00
C109   C     0.37418   0.40054   0.21973   0.00000  Uiso   1.00
C110   C     0.11691   0.35720   0.78522   0.00000  Uiso   1.00
C111   C     0.39849   0.12834   0.21789   0.00000  Uiso   1.00
C112   C     0.35618   0.38223   0.78493   0.00000  Uiso   1.00
C113   C     0.12582   0.09946   0.21973   0.00000  Uiso   1.00
C114   C     0.38267   0.14321   0.78493   0.00000  Uiso   1.00
C115   C     0.25041   0.46685   0.58126   0.00000  Uiso   1.00
C116   C     0.10151   0.37167   0.21789   0.00000  Uiso   1.00
C117   C     0.39391   0.13219   0.71500   0.00000  Uiso   1.00
C118   C     0.12166   0.35151   0.28212   0.00000  Uiso   1.00
C119   C     0.36775   0.39379   0.71508   0.00000  Uiso   1.00
C120   C     0.15054   0.12418   0.28027   0.00000  Uiso   1.00
C121   C     0.10720   0.36692   0.71479   0.00000  Uiso   1.00
C122   C     0.37833   0.14849   0.28211   0.00000  Uiso   1.00
C123   C     0.13197   0.10595   0.71532   0.00000  Uiso   1.00
C124   C     0.34946   0.37581   0.28027   0.00000  Uiso   1.00
C125   C     0.37032   0.34468   0.27394   0.00000  Uiso   1.00
C126   C     0.28315   0.49962   0.91874   0.00000  Uiso   1.00
C127   C     0.10085   0.12834   0.71804   0.00000  Uiso   1.00
C128   C     0.34679   0.12795   0.27688   0.00000  Uiso   1.00
C129   C     0.12945   0.39814   0.71722   0.00000  Uiso   1.00
C130   C     0.12967   0.15532   0.27394   0.00000  Uiso   1.00
C131   C     0.39879   0.37120   0.71758   0.00000  Uiso   1.00
C132   C     0.15320   0.37205   0.27689   0.00000  Uiso   1.00
C133   C     0.37137   0.10111   0.71750   0.00000  Uiso   1.00
C134   C     0.46685   0.24597   0.45924   0.00000  Uiso   1.00
C135   C     0.03314   0.25410   0.54075   0.00000  Uiso   1.00
C136   C     0.24940   0.03339   0.45924   0.00000  Uiso   1.00
H137   H     0.40846   0.23876   0.46437   0.00000  Uiso   1.00
H138   H     0.34222   0.49853   0.03563   0.00000  Uiso   1.00
H139   H     0.01119   0.34155   0.96436   0.00000  Uiso   1.00
H140   H     0.48879   0.15845   0.03565   0.00000  Uiso   1.00
H141   H     0.34222   0.49866   0.96437   0.00000  Uiso   1.00
H142   H     0.15778   0.00143   0.03565   0.00000  Uiso   1.00
H143   H     0.48881   0.15845   0.96438   0.00000  Uiso   1.00
H144   H     0.01120   0.34155   0.03562   0.00000  Uiso   1.00
H145   H     0.09392   0.47113   0.25492   0.00000  Uiso   1.00
H146   H     0.27152   0.13652   0.77568   0.00000  Uiso   1.00
H147   H     0.49664   0.10151   0.23058   0.00000  Uiso   1.00
H148   H     0.09154   0.26131   0.53562   0.00000  Uiso   1.00
H149   H     0.41090   0.26784   0.80792   0.00000  Uiso   1.00
H150   H     0.40608   0.02887   0.25490   0.00000  Uiso   1.00
H151   H     0.22848   0.36494   0.77822   0.00000  Uiso   1.00
H152   H     0.00336   0.39850   0.23058   0.00000  Uiso   1.00
H153   H     0.08953   0.23270   0.80740   0.00000  Uiso   1.00
H154   H     0.15985   0.05120   0.86179   0.00000  Uiso   1.00
H155   H     0.31891   0.42918   0.13653   0.00000  Uiso   1.00
H156   H     0.05837   0.38418   0.83366   0.00000  Uiso   1.00
H157   H     0.42296   0.19028   0.13869   0.00000  Uiso   1.00
H158   H     0.34126   0.44979   0.86141   0.00000  Uiso   1.00
H159   H     0.24840   0.09222   0.46435   0.00000  Uiso   1.00
H160   H     0.18111   0.07084   0.13653   0.00000  Uiso   1.00
H161   H     0.44094   0.11717   0.83434   0.00000  Uiso   1.00
H162   H     0.07704   0.30975   0.13869   0.00000  Uiso   1.00
H163   H     0.36874   0.18927   0.66355   0.00000  Uiso   1.00
H164   H     0.05971   0.32705   0.36131   0.00000  Uiso   1.00
H165   H     0.30010   0.40849   0.63865   0.00000  Uiso   1.00
H166   H     0.17916   0.06889   0.36347   0.00000  Uiso   1.00
H167   H     0.13416   0.30841   0.66631   0.00000  Uiso   1.00
H168   H     0.44025   0.17295   0.36131   0.00000  Uiso   1.00
H169   H     0.19895   0.09069   0.63828   0.00000  Uiso   1.00
H170   H     0.25145   0.40778   0.53564   0.00000  Uiso   1.00
H171   H     0.32082   0.43108   0.36348   0.00000  Uiso   1.00
H172   H     0.35151   0.24663   0.26941   0.00000  Uiso   1.00
H173   H     0.02027   0.11420   0.72546   0.00000  Uiso   1.00
H174   H     0.27888   0.15608   0.24509   0.00000  Uiso   1.00
H175   H     0.11496   0.47850   0.72180   0.00000  Uiso   1.00
H176   H     0.14848   0.25337   0.26942   0.00000  Uiso   1.00
H177   H     0.48249   0.33958   0.69218   0.00000  Uiso   1.00
H178   H     0.22112   0.34391   0.24512   0.00000  Uiso   1.00
H179   H     0.38417   0.02004   0.72307   0.00000  Uiso   1.00
H180   H     0.05836   0.25726   0.40303   0.00000  Uiso   1.00
H181   H     0.09153   0.26132   0.46435   0.00000  Uiso   1.00
H182   H     0.44163   0.24285   0.59696   0.00000  Uiso   1.00
H183   H     0.25112   0.44118   0.40306   0.00000  Uiso   1.00
H184   H     0.24931   0.05881   0.59690   0.00000  Uiso   1.00
H185   H     0.44163   0.24278   0.40304   0.00000  Uiso   1.00
H186   H     0.05837   0.25724   0.59696   0.00000  Uiso   1.00
H187   H     0.24887   0.05881   0.40305   0.00000  Uiso   1.00
H188   H     0.25067   0.44119   0.59692   0.00000  Uiso   1.00
H189   H     0.30881   0.49939   0.90309   0.00000  Uiso   1.00
H190   H     0.19119   0.00103   0.09695   0.00000  Uiso   1.00
H191   H     0.49285   0.19162   0.90305   0.00000  Uiso   1.00
H192   H     0.40846   0.23879   0.53564   0.00000  Uiso   1.00
H193   H     0.00719   0.30838   0.09696   0.00000  Uiso   1.00
H194   H     0.19119   0.00057   0.90309   0.00000  Uiso   1.00
H195   H     0.30881   0.49895   0.09694   0.00000  Uiso   1.00
H196   H     0.00715   0.30837   0.90303   0.00000  Uiso   1.00
H197   H     0.49280   0.19163   0.09697   0.00000  Uiso   1.00
H198   H     0.25158   0.40778   0.46437   0.00000  Uiso   1.00
H199   H     0.24853   0.09222   0.53561   0.00000  Uiso   1.00
H200   H     0.15778   0.00130   0.96438   0.00000  Uiso   1.00
O201   O     0.25000  -0.00000   0.25000   0.00000  Uiso   1.00
O202   O     0.25000   0.46963   0.66245   0.00000  Uiso   1.00
O203   O     0.09007   0.31477   0.16337   0.00000  Uiso   1.00
O204   O     0.45170   0.14897   0.67001   0.00000  Uiso   1.00
O205   O     0.39867   0.12595   0.63484   0.00000  Uiso   1.00
O206   O     0.39560   0.19099   0.66129   0.00000  Uiso   1.00
O207   O     0.12069   0.29667   0.33453   0.00000  Uiso   1.00
O208   O     0.12923   0.35843   0.36004   0.00000  Uiso   1.00
O209   O     0.06473   0.34007   0.33663   0.00000  Uiso   1.00
O210   O     0.35050   0.45173   0.67046   0.00000  Uiso   1.00
O211   O     0.37415   0.39903   0.63498   0.00000  Uiso   1.00
O212   O     0.30919   0.39487   0.66156   0.00000  Uiso   1.00
O213   O     0.46963   0.25000   0.33755   0.00000  Uiso   1.00
O214   O     0.20850   0.12696   0.32855   0.00000  Uiso   1.00
O215   O     0.14856   0.13826   0.35749   0.00000  Uiso   1.00
O216   O     0.16498   0.07188   0.33915   0.00000  Uiso   1.00
O217   O     0.05127   0.34932   0.66757   0.00000  Uiso   1.00
O218   O     0.10591   0.37121   0.63444   0.00000  Uiso   1.00
O219   O     0.10742   0.30678   0.66269   0.00000  Uiso   1.00
O220   O     0.37928   0.20333   0.33452   0.00000  Uiso   1.00
O221   O     0.37073   0.14156   0.36003   0.00000  Uiso   1.00
O222   O     0.43524   0.15992   0.33663   0.00000  Uiso   1.00
O223   O     0.14815   0.04800   0.67035   0.00000  Uiso   1.00
O224   O     0.03036   0.25000   0.66245   0.00000  Uiso   1.00
O225   O     0.12503   0.10134   0.63543   0.00000  Uiso   1.00
O226   O     0.19028   0.10427   0.66140   0.00000  Uiso   1.00
O227   O     0.29148   0.37302   0.32855   0.00000  Uiso   1.00
O228   O     0.35142   0.36171   0.35749   0.00000  Uiso   1.00
O229   O     0.33500   0.42809   0.33915   0.00000  Uiso   1.00
O230   O     0.37272   0.29118   0.32775   0.00000  Uiso   1.00
O231   O     0.31299   0.30466   0.29937   0.00000  Uiso   1.00
O232   O     0.35935   0.26968   0.25694   0.00000  Uiso   1.00
O233   O     0.06931   0.15095   0.65168   0.00000  Uiso   1.00
O234   O     0.06149   0.08640   0.66842   0.00000  Uiso   1.00
O235   O    -0.00000   0.21963   0.83755   0.00000  Uiso   1.00
O236   O     0.02377   0.13391   0.70610   0.00000  Uiso   1.00
O237   O     0.29718   0.12030   0.33423   0.00000  Uiso   1.00
O238   O     0.30940   0.18255   0.31262   0.00000  Uiso   1.00
O239   O     0.27080   0.14158   0.26782   0.00000  Uiso   1.00
O240   O     0.15438   0.42786   0.65084   0.00000  Uiso   1.00
O241   O     0.08921   0.43580   0.66457   0.00000  Uiso   1.00
O242   O     0.13514   0.47479   0.70306   0.00000  Uiso   1.00
O243   O     0.12727   0.20880   0.32775   0.00000  Uiso   1.00
O244   O     0.18700   0.19533   0.29938   0.00000  Uiso   1.00
O245   O     0.14065   0.23032   0.25695   0.00000  Uiso   1.00
O246   O     0.00000   0.28036   0.16245   0.00000  Uiso   1.00
O247   O     0.42772   0.34820   0.64997   0.00000  Uiso   1.00
O248   O     0.43821   0.41220   0.66739   0.00000  Uiso   1.00
O249   O     0.47552   0.36346   0.70338   0.00000  Uiso   1.00
O250   O     0.20279   0.37970   0.33425   0.00000  Uiso   1.00
O251   O     0.19058   0.31745   0.31266   0.00000  Uiso   1.00
O252   O     0.22919   0.35842   0.26784   0.00000  Uiso   1.00
O253   O     0.34805   0.07119   0.65058   0.00000  Uiso   1.00
O254   O     0.41248   0.06190   0.66701   0.00000  Uiso   1.00
O255   O     0.36439   0.02436   0.70400   0.00000  Uiso   1.00
O256   O     0.28036  -0.00000   0.83755   0.00000  Uiso   1.00
O257   O     0.21963  -0.00000   0.16245   0.00000  Uiso   1.00
O258   O     0.00000   0.28036   0.83755   0.00000  Uiso   1.00
O259   O     0.00000   0.21963   0.16245   0.00000  Uiso   1.00
O260   O     0.21963  -0.00000   0.83755   0.00000  Uiso   1.00
O261   O     0.25000  -0.00000   0.75000   0.00000  Uiso   1.00
O262   O     0.28036  -0.00000   0.16245   0.00000  Uiso   1.00
O263   O     0.20724   0.07307   0.27302   0.00000  Uiso   1.00
O264   O     0.29275   0.42692   0.72698   0.00000  Uiso   1.00
O265   O     0.42692   0.20724   0.27302   0.00000  Uiso   1.00
O266   O     0.07307   0.29275   0.72698   0.00000  Uiso   1.00
O267   O     0.29275   0.42692   0.27302   0.00000  Uiso   1.00
O268   O     0.20724   0.07307   0.72698   0.00000  Uiso   1.00
O269   O     0.07307   0.29275   0.27302   0.00000  Uiso   1.00
O270   O     0.42692   0.20724   0.72698   0.00000  Uiso   1.00
O271   O     0.20724   0.42692   0.72698   0.00000  Uiso   1.00
O272   O     0.00000   0.25000   0.25000   0.00000  Uiso   1.00
O273   O     0.29275   0.07307   0.27302   0.00000  Uiso   1.00
O274   O     0.42692   0.29275   0.72698   0.00000  Uiso   1.00
O275   O     0.07307   0.20724   0.27302   0.00000  Uiso   1.00
O276   O     0.29275   0.07307   0.72698   0.00000  Uiso   1.00
O277   O     0.20724   0.42692   0.27302   0.00000  Uiso   1.00
O278   O     0.07307   0.20724   0.72698   0.00000  Uiso   1.00
O279   O     0.42692   0.29275   0.27302   0.00000  Uiso   1.00
O280   O     0.45724   0.32307   0.77302   0.00000  Uiso   1.00
O281   O     0.04275   0.17692   0.22698   0.00000  Uiso   1.00
O282   O     0.17692   0.45724   0.77302   0.00000  Uiso   1.00
O283   O     0.00000   0.25000   0.75000   0.00000  Uiso   1.00
O284   O     0.32307   0.04275   0.22698   0.00000  Uiso   1.00
O285   O     0.04275   0.17692   0.77302   0.00000  Uiso   1.00
O286   O     0.45724   0.32307   0.22698   0.00000  Uiso   1.00
O287   O     0.32307   0.04275   0.77302   0.00000  Uiso   1.00
O288   O     0.17692   0.45724   0.22698   0.00000  Uiso   1.00
O289   O     0.45724   0.17692   0.22698   0.00000  Uiso   1.00
O290   O     0.04275   0.32307   0.77302   0.00000  Uiso   1.00
O291   O     0.17692   0.04275   0.22698   0.00000  Uiso   1.00
O292   O     0.32307   0.45724   0.77302   0.00000  Uiso   1.00
O293   O     0.04275   0.32307   0.22698   0.00000  Uiso   1.00
O294   O     0.25000   0.46963   0.33755   0.00000  Uiso   1.00
O295   O     0.45724   0.17692   0.77302   0.00000  Uiso   1.00
O296   O     0.32307   0.45724   0.22698   0.00000  Uiso   1.00
O297   O     0.17692   0.04275   0.77302   0.00000  Uiso   1.00
O298   O     0.12969   0.45283   0.16577   0.00000  Uiso   1.00
O299   O     0.06745   0.44061   0.18739   0.00000  Uiso   1.00
O300   O     0.10843   0.47921   0.23219   0.00000  Uiso   1.00
O301   O     0.32013   0.09695   0.84815   0.00000  Uiso   1.00
O302   O     0.31333   0.16213   0.83380   0.00000  Uiso   1.00
O303   O     0.27453   0.11648   0.79472   0.00000  Uiso   1.00
O304   O     0.04120   0.12273   0.17225   0.00000  Uiso   1.00
O305   O     0.25000   0.03036   0.66245   0.00000  Uiso   1.00
O306   O     0.05467   0.06300   0.20062   0.00000  Uiso   1.00
O307   O     0.01968   0.10935   0.24305   0.00000  Uiso   1.00
O308   O     0.40174   0.32249   0.85020   0.00000  Uiso   1.00
O309   O     0.33786   0.31166   0.83254   0.00000  Uiso   1.00
O310   O     0.38689   0.27454   0.79682   0.00000  Uiso   1.00
O311   O     0.37030   0.04720   0.16576   0.00000  Uiso   1.00
O312   O     0.43255   0.05941   0.18736   0.00000  Uiso   1.00
O313   O     0.39157   0.02080   0.23217   0.00000  Uiso   1.00
O314   O     0.17784   0.40439   0.84916   0.00000  Uiso   1.00
O315   O     0.18576   0.33921   0.83547   0.00000  Uiso   1.00
O316   O     0.03036   0.25000   0.33755   0.00000  Uiso   1.00
O317   O     0.22478   0.38512   0.79696   0.00000  Uiso   1.00
O318   O     0.45880   0.37728   0.17224   0.00000  Uiso   1.00
O319   O     0.44533   0.43701   0.20061   0.00000  Uiso   1.00
O320   O     0.48031   0.39065   0.24305   0.00000  Uiso   1.00
O321   O     0.09907   0.17832   0.84998   0.00000  Uiso   1.00
O322   O     0.16279   0.18914   0.83167   0.00000  Uiso   1.00
O323   O     0.11341   0.22591   0.79607   0.00000  Uiso   1.00
O324   O     0.20272   0.10129   0.82881   0.00000  Uiso   1.00
O325   O     0.15047   0.12526   0.86481   0.00000  Uiso   1.00
O326   O     0.14599   0.06006   0.83894   0.00000  Uiso   1.00
O327   O     0.46963   0.25000   0.66245   0.00000  Uiso   1.00
O328   O     0.37697   0.45851   0.17144   0.00000  Uiso   1.00
O329   O     0.38828   0.39857   0.14251   0.00000  Uiso   1.00
O330   O     0.32190   0.41499   0.16085   0.00000  Uiso   1.00
O331   O     0.09929   0.30129   0.83248   0.00000  Uiso   1.00
O332   O     0.12116   0.35595   0.86556   0.00000  Uiso   1.00
O333   O     0.05674   0.35744   0.83729   0.00000  Uiso   1.00
O334   O     0.45333   0.12930   0.16548   0.00000  Uiso   1.00
O335   O     0.39157   0.12076   0.13996   0.00000  Uiso   1.00
O336   O     0.40993   0.18527   0.16337   0.00000  Uiso   1.00
O337   O     0.29809   0.39947   0.82932   0.00000  Uiso   1.00
O338   O     0.25000   0.03036   0.33755   0.00000  Uiso   1.00
O339   O     0.35062   0.37573   0.86501   0.00000  Uiso   1.00
O340   O     0.35496   0.44071   0.83854   0.00000  Uiso   1.00
O341   O     0.12304   0.04150   0.17145   0.00000  Uiso   1.00
O342   O     0.11174   0.10145   0.14251   0.00000  Uiso   1.00
O343   O     0.17811   0.08502   0.16085   0.00000  Uiso   1.00
O344   O     0.39915   0.19959   0.83197   0.00000  Uiso   1.00
O345   O     0.37742   0.14488   0.86512   0.00000  Uiso   1.00
O346   O     0.44223   0.14394   0.83783   0.00000  Uiso   1.00
O347   O     0.04667   0.37072   0.16549   0.00000  Uiso   1.00
O348   O     0.10843   0.37928   0.13997   0.00000  Uiso   1.00
S349   S     0.10633   0.44428   0.20053   0.00000  Uiso   1.00
S350   S     0.36631   0.41896   0.17233   0.00000  Uiso   1.00
S351   S     0.09963   0.34221   0.83145   0.00000  Uiso   1.00
S352   S     0.41403   0.14003   0.17021   0.00000  Uiso   1.00
S353   S     0.33901   0.39834   0.83081   0.00000  Uiso   1.00
S354   S     0.13369   0.08106   0.17233   0.00000  Uiso   1.00
S355   S     0.39926   0.15867   0.83125   0.00000  Uiso   1.00
S356   S     0.08597   0.36000   0.17021   0.00000  Uiso   1.00
S357   S     0.41077   0.14835   0.66902   0.00000  Uiso   1.00
S358   S     0.10997   0.33597   0.32980   0.00000  Uiso   1.00
S359   S     0.35158   0.41080   0.66916   0.00000  Uiso   1.00
S360   S     0.31483   0.12457   0.81636   0.00000  Uiso   1.00
S361   S     0.16895   0.11631   0.32767   0.00000  Uiso   1.00
S362   S     0.09219   0.34967   0.66856   0.00000  Uiso   1.00
S363   S     0.39001   0.16402   0.32979   0.00000  Uiso   1.00
S364   S     0.14770   0.08894   0.66929   0.00000  Uiso   1.00
S365   S     0.33104   0.38367   0.32767   0.00000  Uiso   1.00
S366   S     0.35312   0.30198   0.29109   0.00000  Uiso   1.00
S367   S     0.06379   0.12445   0.68450   0.00000  Uiso   1.00
S368   S     0.30573   0.14367   0.29948   0.00000  Uiso   1.00
S369   S     0.12664   0.43416   0.68231   0.00000  Uiso   1.00
S370   S     0.14687   0.19801   0.29109   0.00000  Uiso   1.00
S371   S     0.05199   0.10313   0.20891   0.00000  Uiso   1.00
S372   S     0.43514   0.37405   0.68300   0.00000  Uiso   1.00
S373   S     0.19425   0.35633   0.29950   0.00000  Uiso   1.00
S374   S     0.37451   0.06460   0.68321   0.00000  Uiso   1.00
S375   S     0.37604   0.31490   0.81707   0.00000  Uiso   1.00
S376   S     0.39367   0.05574   0.20051   0.00000  Uiso   1.00
S377   S     0.18413   0.37664   0.81771   0.00000  Uiso   1.00
S378   S     0.44801   0.39688   0.20890   0.00000  Uiso   1.00
S379   S     0.12450   0.18572   0.81657   0.00000  Uiso   1.00
S380   S     0.16181   0.10239   0.83069   0.00000  Uiso   1.00
Zn381  Zn    0.20659  -0.00000   0.21735   0.00000  Uiso   1.00
Zn382  Zn    0.04340   0.25000   0.28265   0.00000  Uiso   1.00
Zn383  Zn    0.25000   0.45659   0.71735   0.00000  Uiso   1.00
Zn384  Zn    0.25000   0.04340   0.28265   0.00000  Uiso   1.00
Zn385  Zn    0.04340   0.25000   0.71735   0.00000  Uiso   1.00
Zn386  Zn    0.45659   0.25000   0.28265   0.00000  Uiso   1.00
Zn387  Zn    0.25000   0.04340   0.71735   0.00000  Uiso   1.00
Zn388  Zn    0.25000   0.45659   0.28265   0.00000  Uiso   1.00
Zn389  Zn    0.29340  -0.00000   0.78265   0.00000  Uiso   1.00
Zn390  Zn    0.00000   0.20659   0.21735   0.00000  Uiso   1.00
Zn391  Zn   -0.00000   0.29340   0.78265   0.00000  Uiso   1.00
Zn392  Zn    0.29340  -0.00000   0.21735   0.00000  Uiso   1.00
Zn393  Zn    0.20659  -0.00000   0.78265   0.00000  Uiso   1.00
Zn394  Zn    0.00000   0.29340   0.21735   0.00000  Uiso   1.00
Zn395  Zn   -0.00000   0.20659   0.78265   0.00000  Uiso   1.00
Zn396  Zn    0.45659   0.25000   0.71735   0.00000  Uiso   1.00
C397   C     0.53291   0.25404   0.41871   0.00000  Uiso   1.00
C398   C     0.71684   0.00056   0.08128   0.00000  Uiso   1.00
C399   C     0.75048   0.46661   0.54075   0.00000  Uiso   1.00
C400   C     0.53314   0.25410   0.45924   0.00000  Uiso   1.00
C401   C     0.96685   0.24600   0.54076   0.00000  Uiso   1.00
C402   C     0.75058   0.46661   0.45924   0.00000  Uiso   1.00
C403   C     0.74949   0.03339   0.54074   0.00000  Uiso   1.00
C404   C     0.71661   0.00043   0.95926   0.00000  Uiso   1.00
C405   C     0.78339   0.49945   0.04076   0.00000  Uiso   1.00
C406   C     0.50402   0.28315   0.95924   0.00000  Uiso   1.00
C407   C     0.99596   0.21685   0.04076   0.00000  Uiso   1.00
C408   C     0.78339   0.49954   0.95926   0.00000  Uiso   1.00
C409   C     0.99604   0.21708   0.91872   0.00000  Uiso   1.00
C410   C     0.71661   0.00053   0.04076   0.00000  Uiso   1.00
C411   C     0.99598   0.21685   0.95925   0.00000  Uiso   1.00
C412   C     0.50404   0.28315   0.04076   0.00000  Uiso   1.00
C413   C     0.59792   0.34793   0.25000   0.00000  Uiso   1.00
C414   C     0.90177   0.15142   0.74997   0.00000  Uiso   1.00
C415   C     0.65194   0.09806   0.25000   0.00000  Uiso   1.00
C416   C     0.84840   0.40158   0.75000   0.00000  Uiso   1.00
C417   C     0.90207   0.15208   0.25000   0.00000  Uiso   1.00
C418   C     0.59843   0.34842   0.75000   0.00000  Uiso   1.00
C419   C     0.84805   0.40194   0.25000   0.00000  Uiso   1.00
C420   C     0.50399   0.28292   0.08128   0.00000  Uiso   1.00
C421   C     0.65168   0.09848   0.75006   0.00000  Uiso   1.00
C422   C     0.59791   0.15208   0.75010   0.00000  Uiso   1.00
C423   C     0.90173   0.34827   0.25000   0.00000  Uiso   1.00
C424   C     0.65211   0.40211   0.75000   0.00000  Uiso   1.00
C425   C     0.84840   0.09840   0.25000   0.00000  Uiso   1.00
C426   C     0.90210   0.34791   0.75001   0.00000  Uiso   1.00
C427   C     0.59827   0.15173   0.25000   0.00000  Uiso   1.00
C428   C     0.84801   0.09783   0.74985   0.00000  Uiso   1.00
C429   C     0.65159   0.40160   0.25001   0.00000  Uiso   1.00
C430   C     0.50000   0.25004   0.47961   0.00000  Uiso   1.00
C431   C     0.71684   0.00035   0.91874   0.00000  Uiso   1.00
C432   C     0.50000   0.25005   0.52039   0.00000  Uiso   1.00
C433   C     0.74999  -0.00000   0.47961   0.00000  Uiso   1.00
C434   C     0.74999  -0.00000   0.52038   0.00000  Uiso   1.00
C435   C     0.75000   0.49998   0.97962   0.00000  Uiso   1.00
C436   C     0.75000   0.49998   0.02040   0.00000  Uiso   1.00
C437   C     0.50000   0.25000   0.97961   0.00000  Uiso   1.00
C438   C     0.50000   0.25000   0.02039   0.00000  Uiso   1.00
C439   C     0.78316   0.49942   0.08128   0.00000  Uiso   1.00
C440   C     0.50396   0.28292   0.91871   0.00000  Uiso   1.00
C441   C     0.99601   0.21708   0.08129   0.00000  Uiso   1.00
C442   C     0.50000   0.25002   0.39840   0.00000  Uiso   1.00
C443   C     0.50000   0.25003   0.60159   0.00000  Uiso   1.00
C444   C     0.75000  -0.00000   0.39841   0.00000  Uiso   1.00
C445   C     0.96708   0.24605   0.58128   0.00000  Uiso   1.00
C446   C     0.74999   0.00000   0.60158   0.00000  Uiso   1.00
C447   C     0.75000   0.49999   0.89842   0.00000  Uiso   1.00
C448   C     0.75000   0.49999   0.10159   0.00000  Uiso   1.00
C449   C     0.50000   0.25000   0.89841   0.00000  Uiso   1.00
C450   C     0.50000   0.25000   0.10160   0.00000  Uiso   1.00
C451   C     0.93406   0.24193   0.47972   0.00000  Uiso   1.00
C452   C     0.56593   0.25816   0.52027   0.00000  Uiso   1.00
C453   C     0.74886   0.06642   0.47970   0.00000  Uiso   1.00
C454   C     0.75105   0.43358   0.52028   0.00000  Uiso   1.00
C455   C     0.56593   0.25816   0.47971   0.00000  Uiso   1.00
C456   C     0.75061   0.46684   0.41873   0.00000  Uiso   1.00
C457   C     0.93406   0.24194   0.52029   0.00000  Uiso   1.00
C458   C     0.75112   0.43357   0.47972   0.00000  Uiso   1.00
C459   C     0.74893   0.06642   0.52026   0.00000  Uiso   1.00
C460   C     0.68358   0.00094   0.97974   0.00000  Uiso   1.00
C461   C     0.81642   0.49895   0.02028   0.00000  Uiso   1.00
C462   C     0.50805   0.31594   0.97971   0.00000  Uiso   1.00
C463   C     0.99193   0.18406   0.02029   0.00000  Uiso   1.00
C464   C     0.81642   0.49902   0.97972   0.00000  Uiso   1.00
C465   C     0.68358   0.00101   0.02029   0.00000  Uiso   1.00
C466   C     0.99195   0.18406   0.97973   0.00000  Uiso   1.00
C467   C     0.74957   0.03316   0.58126   0.00000  Uiso   1.00
C468   C     0.50806   0.31594   0.02027   0.00000  Uiso   1.00
C469   C     0.75000  -0.00000   0.35595   0.00000  Uiso   1.00
C470   C     0.75000   0.00000   0.64404   0.00000  Uiso   1.00
C471   C     0.50000   0.25000   0.35595   0.00000  Uiso   1.00
C472   C     0.50000   0.25001   0.64405   0.00000  Uiso   1.00
C473   C     0.50000   0.25000   0.85595   0.00000  Uiso   1.00
C474   C     0.50000   0.25000   0.14405   0.00000  Uiso   1.00
C475   C     0.75000  -0.00000   0.85596   0.00000  Uiso   1.00
C476   C     0.75000  -0.00000   0.14405   0.00000  Uiso   1.00
C477   C     0.67998   0.07002   0.25000   0.00000  Uiso   1.00
C478   C     0.96708   0.24601   0.41872   0.00000  Uiso   1.00
C479   C     0.82012   0.42988   0.74999   0.00000  Uiso   1.00
C480   C     0.93003   0.18003   0.25000   0.00000  Uiso   1.00
C481   C     0.57013   0.32013   0.75000   0.00000  Uiso   1.00
C482   C     0.82002   0.42998   0.25000   0.00000  Uiso   1.00
C483   C     0.67989   0.07012   0.75000   0.00000  Uiso   1.00
C484   C     0.56997   0.31997   0.25000   0.00000  Uiso   1.00
C485   C     0.92989   0.17988   0.75004   0.00000  Uiso   1.00
C486   C     0.68007   0.43007   0.75000   0.00000  Uiso   1.00
C487   C     0.82015   0.07015   0.25000   0.00000  Uiso   1.00
C488   C     0.93006   0.31995   0.74999   0.00000  Uiso   1.00
C489   C     0.53292   0.25404   0.58128   0.00000  Uiso   1.00
C490   C     0.57010   0.17990   0.25000   0.00000  Uiso   1.00
C491   C     0.81997   0.06991   0.74995   0.00000  Uiso   1.00
C492   C     0.67985   0.42985   0.25000   0.00000  Uiso   1.00
C493   C     0.56990   0.18001   0.74995   0.00000  Uiso   1.00
C494   C     0.92990   0.32010   0.25000   0.00000  Uiso   1.00
C495   C     0.62205   0.40322   0.22313   0.00000  Uiso   1.00
C496   C     0.85144   0.12103   0.78226   0.00000  Uiso   1.00
C497   C     0.59468   0.12033   0.22606   0.00000  Uiso   1.00
C498   C     0.87881   0.35121   0.78244   0.00000  Uiso   1.00
C499   C     0.87795   0.09679   0.22312   0.00000  Uiso   1.00
C500   C     0.74938   0.03316   0.41872   0.00000  Uiso   1.00
C501   C     0.64814   0.37945   0.78279   0.00000  Uiso   1.00
C502   C     0.90532   0.37967   0.22605   0.00000  Uiso   1.00
C503   C     0.62154   0.14914   0.78230   0.00000  Uiso   1.00
C504   C     0.64424   0.11815   0.78487   0.00000  Uiso   1.00
C505   C     0.87418   0.40054   0.21973   0.00000  Uiso   1.00
C506   C     0.61691   0.35720   0.78522   0.00000  Uiso   1.00
C507   C     0.89849   0.12834   0.21789   0.00000  Uiso   1.00
C508   C     0.85618   0.38223   0.78493   0.00000  Uiso   1.00
C509   C     0.62582   0.09946   0.21973   0.00000  Uiso   1.00
C510   C     0.88267   0.14321   0.78493   0.00000  Uiso   1.00
C511   C     0.75041   0.46685   0.58126   0.00000  Uiso   1.00
C512   C     0.60151   0.37167   0.21789   0.00000  Uiso   1.00
C513   C     0.89391   0.13219   0.71500   0.00000  Uiso   1.00
C514   C     0.62166   0.35151   0.28212   0.00000  Uiso   1.00
C515   C     0.86775   0.39379   0.71508   0.00000  Uiso   1.00
C516   C     0.65054   0.12418   0.28027   0.00000  Uiso   1.00
C517   C     0.60720   0.36692   0.71479   0.00000  Uiso   1.00
C518   C     0.87833   0.14849   0.28211   0.00000  Uiso   1.00
C519   C     0.63197   0.10595   0.71532   0.00000  Uiso   1.00
C520   C     0.84946   0.37581   0.28027   0.00000  Uiso   1.00
C521   C     0.87032   0.34468   0.27394   0.00000  Uiso   1.00
C522   C     0.78315   0.49962   0.91874   0.00000  Uiso   1.00
C523   C     0.60085   0.12834   0.71804   0.00000  Uiso   1.00
C524   C     0.84679   0.12795   0.27688   0.00000  Uiso   1.00
C525   C     0.62945   0.39814   0.71722   0.00000  Uiso   1.00
C526   C     0.62967   0.15532   0.27394   0.00000  Uiso   1.00
C527   C     0.89879   0.37120   0.71758   0.00000  Uiso   1.00
C528   C     0.65320   0.37205   0.27689   0.00000  Uiso   1.00
C529   C     0.87137   0.10111   0.71750   0.00000  Uiso   1.00
C530   C     0.96685   0.24597   0.45924   0.00000  Uiso   1.00
C531   C     0.53314   0.25410   0.54075   0.00000  Uiso   1.00
C532   C     0.74940   0.03339   0.45924   0.00000  Uiso   1.00
H533   H     0.90846   0.23876   0.46437   0.00000  Uiso   1.00
H534   H     0.84222   0.49853   0.03563   0.00000  Uiso   1.00
H535   H     0.51119   0.34155   0.96436   0.00000  Uiso   1.00
H536   H     0.98879   0.15845   0.03565   0.00000  Uiso   1.00
H537   H     0.84222   0.49866   0.96437   0.00000  Uiso   1.00
H538   H     0.65778   0.00143   0.03565   0.00000  Uiso   1.00
H539   H     0.98881   0.15845   0.96438   0.00000  Uiso   1.00
H540   H     0.51120   0.34155   0.03562   0.00000  Uiso   1.00
H541   H     0.59392   0.47113   0.25492   0.00000  Uiso   1.00
H542   H     0.77152   0.13652   0.77568   0.00000  Uiso   1.00
H543   H     0.99664   0.10151   0.23058   0.00000  Uiso   1.00
H544   H     0.59154   0.26131   0.53562   0.00000  Uiso   1.00
H545   H     0.91090   0.26784   0.80792   0.00000  Uiso   1.00
H546   H     0.90608   0.02887   0.25490   0.00000  Uiso   1.00
H547   H     0.72848   0.36494   0.77822   0.00000  Uiso   1.00
H548   H     0.50336   0.39850   0.23058   0.00000  Uiso   1.00
H549   H     0.58953   0.23270   0.80740   0.00000  Uiso   1.00
H550   H     0.65985   0.05120   0.86179   0.00000  Uiso   1.00
H551   H     0.81891   0.42918   0.13653   0.00000  Uiso   1.00
H552   H     0.55837   0.38418   0.83366   0.00000  Uiso   1.00
H553   H     0.92296   0.19028   0.13869   0.00000  Uiso   1.00
H554   H     0.84126   0.44979   0.86141   0.00000  Uiso   1.00
H555   H     0.74840   0.09222   0.46435   0.00000  Uiso   1.00
H556   H     0.68111   0.07084   0.13653   0.00000  Uiso   1.00
H557   H     0.94094   0.11717   0.83434   0.00000  Uiso   1.00
H558   H     0.57704   0.30975   0.13869   0.00000  Uiso   1.00
H559   H     0.86874   0.18927   0.66355   0.00000  Uiso   1.00
H560   H     0.55971   0.32705   0.36131   0.00000  Uiso   1.00
H561   H     0.80010   0.40849   0.63865   0.00000  Uiso   1.00
H562   H     0.67916   0.06889   0.36347   0.00000  Uiso   1.00
H563   H     0.63416   0.30841   0.66631   0.00000  Uiso   1.00
H564   H     0.94025   0.17295   0.36131   0.00000  Uiso   1.00
H565   H     0.69895   0.09069   0.63828   0.00000  Uiso   1.00
H566   H     0.75145   0.40778   0.53564   0.00000  Uiso   1.00
H567   H     0.82082   0.43108   0.36348   0.00000  Uiso   1.00
H568   H     0.85151   0.24663   0.26941   0.00000  Uiso   1.00
H569   H     0.52027   0.11420   0.72546   0.00000  Uiso   1.00
H570   H     0.77888   0.15608   0.24509   0.00000  Uiso   1.00
H571   H     0.61496   0.47850   0.72180   0.00000  Uiso   1.00
H572   H     0.64848   0.25337   0.26942   0.00000  Uiso   1.00
H573   H     0.98249   0.33958   0.69218   0.00000  Uiso   1.00
H574   H     0.72112   0.34391   0.24512   0.00000  Uiso   1.00
H575   H     0.88417   0.02004   0.72307   0.00000  Uiso   1.00
H576   H     0.55836   0.25726   0.40303   0.00000  Uiso   1.00
H577   H     0.59153   0.26132   0.46435   0.00000  Uiso   1.00
H578   H     0.94163   0.24285   0.59696   0.00000  Uiso   1.00
H579   H     0.75112   0.44118   0.40306   0.00000  Uiso   1.00
H580   H     0.74931   0.05881   0.59690   0.00000  Uiso   1.00
H581   H     0.94163   0.24278   0.40304   0.00000  Uiso   1.00
H582   H     0.55837   0.25724   0.59696   0.00000  Uiso   1.00
H583   H     0.74887   0.05881   0.40305   0.00000  Uiso   1.00
H584   H     0.75067   0.44119   0.59692   0.00000  Uiso   1.00
H585   H     0.80881   0.49939   0.90309   0.00000  Uiso   1.00
H586   H     0.69119   0.00103   0.09695   0.00000  Uiso   1.00
H587   H     0.99285   0.19162   0.90305   0.00000  Uiso   1.00
H588   H     0.90846   0.23879   0.53564   0.00000  Uiso   1.00
H589   H     0.50719   0.30838   0.09696   0.00000  Uiso   1.00
H590   H     0.69119   0.00057   0.90309   0.00000  Uiso   1.00
H591   H     0.80881   0.49895   0.09694   0.00000  Uiso   1.00
H592   H     0.50715   0.30837   0.90303   0.00000  Uiso   1.00
H593   H     0.99280   0.19163   0.09697   0.00000  Uiso   1.00
H594   H     0.75158   0.40778   0.46437   0.00000  Uiso   1.00
H595   H     0.74853   0.09222   0.53561   0.00000  Uiso   1.00
H596   H     0.65778   0.00130   0.96438   0.00000  Uiso   1.00
O597   O     0.75000  -0.00000   0.25000   0.00000  Uiso   1.00
O598   O     0.75000   0.46963   0.66245   0.00000  Uiso   1.00
O599   O     0.59007   0.31477   0.16337   0.00000  Uiso   1.00
O600   O     0.95170   0.14897   0.67001   0.00000  Uiso   1.00
O601   O     0.89867   0.12595   0.63484   0.00000  Uiso   1.00
O602   O     0.89560   0.19099   0.66129   0.00000  Uiso   1.00
O603   O     0.62069   0.29667   0.33453   0.00000  Uiso   1.00
O604   O     0.62923   0.35843   0.36004   0.00000  Uiso   1.00
O605   O     0.56473   0.34007   0.33663   0.00000  Uiso   1.00
O606   O     0.85050   0.45173   0.67046   0.00000  Uiso   1.00
O607   O     0.87415   0.39903   0.63498   0.00000  Uiso   1.00
O608   O     0.80919   0.39487   0.66156   0.00000  Uiso   1.00
O609   O     0.96963   0.25000   0.33755   0.00000  Uiso   1.00
O610   O     0.70850   0.12696   0.32855   0.00000  Uiso   1.00
O611   O     0.64856   0.13826   0.35749   0.00000  Uiso   1.00
O612   O     0.66498   0.07188   0.33915   0.00000  Uiso   1.00
O613   O     0.55127   0.34932   0.66757   0.00000  Uiso   1.00
O614   O     0.60591   0.37121   0.63444   0.00000  Uiso   1.00
O615   O     0.60742   0.30678   0.66269   0.00000  Uiso   1.00
O616   O     0.87928   0.20333   0.33452   0.00000  Uiso   1.00
O617   O     0.87073   0.14156   0.36003   0.00000  Uiso   1.00
O618   O     0.93524   0.15992   0.33663   0.00000  Uiso   1.00
O619   O     0.64815   0.04800   0.67035   0.00000  Uiso   1.00
O620   O     0.53036   0.25000   0.66245   0.00000  Uiso   1.00
O621   O     0.62503   0.10134   0.63543   0.00000  Uiso   1.00
O622   O     0.69028   0.10427   0.66140   0.00000  Uiso   1.00
O623   O     0.79148   0.37302   0.32855   0.00000  Uiso   1.00
O624   O     0.85142   0.36171   0.35749   0.00000  Uiso   1.00
O625   O     0.83500   0.42809   0.33915   0.00000  Uiso   1.00
O626   O     0.87272   0.29118   0.32775   0.00000  Uiso   1.00
O627   O     0.81299   0.30466   0.29937   0.00000  Uiso   1.00
O628   O     0.85935   0.26968   0.25694   0.00000  Uiso   1.00
O629   O     0.56931   0.15095   0.65168   0.00000  Uiso   1.00
O630   O     0.56149   0.08640   0.66842   0.00000  Uiso   1.00
O631   O     0.50000   0.21963   0.83755   0.00000  Uiso   1.00
O632   O     0.52377   0.13391   0.70610   0.00000  Uiso   1.00
O633   O     0.79718   0.12030   0.33423   0.00000  Uiso   1.00
O634   O     0.80940   0.18255   0.31262   0.00000  Uiso   1.00
O635   O     0.77080   0.14158   0.26782   0.00000  Uiso   1.00
O636   O     0.65438   0.42786   0.65084   0.00000  Uiso   1.00
O637   O     0.58921   0.43580   0.66457   0.00000  Uiso   1.00
O638   O     0.63514   0.47479   0.70306   0.00000  Uiso   1.00
O639   O     0.62727   0.20880   0.32775   0.00000  Uiso   1.00
O640   O     0.68700   0.19533   0.29938   0.00000  Uiso   1.00
O641   O     0.64065   0.23032   0.25695   0.00000  Uiso   1.00
O642   O     0.50000   0.28036   0.16245   0.00000  Uiso   1.00
O643   O     0.92772   0.34820   0.64997   0.00000  Uiso   1.00
O644   O     0.93821   0.41220   0.66739   0.00000  Uiso   1.00
O645   O     0.97552   0.36346   0.70338   0.00000  Uiso   1.00
O646   O     0.70279   0.37970   0.33425   0.00000  Uiso   1.00
O647   O     0.69058   0.31745   0.31266   0.00000  Uiso   1.00
O648   O     0.72919   0.35842   0.26784   0.00000  Uiso   1.00
O649   O     0.84805   0.07119   0.65058   0.00000  Uiso   1.00
O650   O     0.91248   0.06190   0.66701   0.00000  Uiso   1.00
O651   O     0.86439   0.02436   0.70400   0.00000  Uiso   1.00
O652   O     0.78036  -0.00000   0.83755   0.00000  Uiso   1.00
O653   O     0.71963  -0.00000   0.16245   0.00000  Uiso   1.00
O654   O     0.50000   0.28036   0.83755   0.00000  Uiso   1.00
O655   O     0.50000   0.21963   0.16245   0.00000  Uiso   1.00
O656   O     0.71963  -0.00000   0.83755   0.00000  Uiso   1.00
O657   O     0.75000  -0.00000   0.75000   0.00000  Uiso   1.00
O658   O     0.78036  -0.00000   0.16245   0.00000  Uiso   1.00
O659   O     0.70724   0.07307   0.27302   0.00000  Uiso   1.00
O660   O     0.79275   0.42692   0.72698   0.00000  Uiso   1.00
O661   O     0.92692   0.20724   0.27302   0.00000  Uiso   1.00
O662   O     0.57307   0.29275   0.72698   0.00000  Uiso   1.00
O663   O     0.79275   0.42692   0.27302   0.00000  Uiso   1.00
O664   O     0.70724   0.07307   0.72698   0.00000  Uiso   1.00
O665   O     0.57307   0.29275   0.27302   0.00000  Uiso   1.00
O666   O     0.92692   0.20724   0.72698   0.00000  Uiso   1.00
O667   O     0.70724   0.42692   0.72698   0.00000  Uiso   1.00
O668   O     0.50000   0.25000   0.25000   0.00000  Uiso   1.00
O669   O     0.79275   0.07307   0.27302   0.00000  Uiso   1.00
O670   O     0.92692   0.29275   0.72698   0.00000  Uiso   1.00
O671   O     0.57307   0.20724   0.27302   0.00000  Uiso   1.00
O672   O     0.79275   0.07307   0.72698   0.00000  Uiso   1.00
O673   O     0.70724   0.42692   0.27302   0.00000  Uiso   1.00
O674   O     0.57307   0.20724   0.72698   0.00000  Uiso   1.00
O675   O     0.92692   0.29275   0.27302   0.00000  Uiso   1.00
O676   O     0.95724   0.32307   0.77302   0.00000  Uiso   1.00
O677   O     0.54275   0.17692   0.22698   0.00000  Uiso   1.00
O678   O     0.67692   0.45724   0.77302   0.00000  Uiso   1.00
O679   O     0.50000   0.25000   0.75000   0.00000  Uiso   1.00
O680   O     0.82307   0.04275   0.22698   0.00000  Uiso   1.00
O681   O     0.54275   0.17692   0.77302   0.00000  Uiso   1.00
O682   O     0.95724   0.32307   0.22698   0.00000  Uiso   1.00
O683   O     0.82307   0.04275   0.77302   0.00000  Uiso   1.00
O684   O     0.67692   0.45724   0.22698   0.00000  Uiso   1.00
O685   O     0.95724   0.17692   0.22698   0.00000  Uiso   1.00
O686   O     0.54275   0.32307   0.77302   0.00000  Uiso   1.00
O687   O     0.67692   0.04275   0.22698   0.00000  Uiso   1.00
O688   O     0.82307   0.45724   0.77302   0.00000  Uiso   1.00
O689   O     0.54275   0.32307   0.22698   0.00000  Uiso   1.00
O690   O     0.75000   0.46963   0.33755   0.00000  Uiso   1.00
O691   O     0.95724   0.17692   0.77302   0.00000  Uiso   1.00
O692   O     0.82307   0.45724   0.22698   0.00000  Uiso   1.00
O693   O     0.67692   0.04275   0.77302   0.00000  Uiso   1.00
O694   O     0.62969   0.45283   0.16577   0.00000  Uiso   1.00
O695   O     0.56745   0.44061   0.18739   0.00000  Uiso   1.00
O696   O     0.60843   0.47921   0.23219   0.00000  Uiso   1.00
O697   O     0.82013   0.09695   0.84815   0.00000  Uiso   1.00
O698   O     0.81333   0.16213   0.83380   0.00000  Uiso   1.00
O699   O     0.77453   0.11648   0.79472   0.00000  Uiso   1.00
O700   O     0.54120   0.12273   0.17225   0.00000  Uiso   1.00
O701   O     0.75000   0.03036   0.66245   0.00000  Uiso   1.00
O702   O     0.55467   0.06300   0.20062   0.00000  Uiso   1.00
O703   O     0.51968   0.10935   0.24305   0.00000  Uiso   1.00
O704   O     0.90174   0.32249   0.85020   0.00000  Uiso   1.00
O705   O     0.83786   0.31166   0.83254   0.00000  Uiso   1.00
O706   O     0.88689   0.27454   0.79682   0.00000  Uiso   1.00
O707   O     0.87030   0.04720   0.16576   0.00000  Uiso   1.00
O708   O     0.93255   0.05941   0.18736   0.00000  Uiso   1.00
O709   O     0.89157   0.02080   0.23217   0.00000  Uiso   1.00
O710   O     0.67784   0.40439   0.84916   0.00000  Uiso   1.00
O711   O     0.68576   0.33921   0.83547   0.00000  Uiso   1.00
O712   O     0.53036   0.25000   0.33755   0.00000  Uiso   1.00
O713   O     0.72478   0.38512   0.79696   0.00000  Uiso   1.00
O714   O     0.95880   0.37728   0.17224   0.00000  Uiso   1.00
O715   O     0.94533   0.43701   0.20061   0.00000  Uiso   1.00
O716   O     0.98031   0.39065   0.24305   0.00000  Uiso   1.00
O717   O     0.59907   0.17832   0.84998   0.00000  Uiso   1.00
O718   O     0.66279   0.18914   0.83167   0.00000  Uiso   1.00
O719   O     0.61341   0.22591   0.79607   0.00000  Uiso   1.00
O720   O     0.70272   0.10129   0.82881   0.00000  Uiso   1.00
O721   O     0.65047   0.12526   0.86481   0.00000  Uiso   1.00
O722   O     0.64599   0.06006   0.83894   0.00000  Uiso   1.00
O723   O     0.96963   0.25000   0.66245   0.00000  Uiso   1.00
O724   O     0.87697   0.45851   0.17144   0.00000  Uiso   1.00
O725   O     0.88828   0.39857   0.14251   0.00000  Uiso   1.00
O726   O     0.82190   0.41499   0.16085   0.00000  Uiso   1.00
O727   O     0.59929   0.30129   0.83248   0.00000  Uiso   1.00
O728   O     0.62116   0.35595   0.86556   0.00000  Uiso   1.00
O729   O     0.55674   0.35744   0.83729   0.00000  Uiso   1.00
O730   O     0.95333   0.12930   0.16548   0.00000  Uiso   1.00
O731   O     0.89157   0.12076   0.13996   0.00000  Uiso   1.00
O732   O     0.90993   0.18527   0.16337   0.00000  Uiso   1.00
O733   O     0.79809   0.39947   0.82932   0.00000  Uiso   1.00
O734   O     0.75000   0.03036   0.33755   0.00000  Uiso   1.00
O735   O     0.85062   0.37573   0.86501   0.00000  Uiso   1.00
O736   O     0.85496   0.44071   0.83854   0.00000  Uiso   1.00
O737   O     0.62304   0.04150   0.17145   0.00000  Uiso   1.00
O738   O     0.61174   0.10145   0.14251   0.00000  Uiso   1.00
O739   O     0.67811   0.08502   0.16085   0.00000  Uiso   1.00
O740   O     0.89915   0.19959   0.83197   0.00000  Uiso   1.00
O741   O     0.87742   0.14488   0.86512   0.00000  Uiso   1.00
O742   O     0.94223   0.14394   0.83783   0.00000  Uiso   1.00
O743   O     0.54667   0.37072   0.16549   0.00000  Uiso   1.00
O744   O     0.60843   0.37928   0.13997   0.00000  Uiso   1.00
S745   S     0.60633   0.44428   0.20053   0.00000  Uiso   1.00
S746   S     0.86631   0.41896   0.17233   0.00000  Uiso   1.00
S747   S     0.59963   0.34221   0.83145   0.00000  Uiso   1.00
S748   S     0.91403   0.14003   0.17021   0.00000  Uiso   1.00
S749   S     0.83901   0.39834   0.83081   0.00000  Uiso   1.00
S750   S     0.63369   0.08106   0.17233   0.00000  Uiso   1.00
S751   S     0.89926   0.15867   0.83125   0.00000  Uiso   1.00
S752   S     0.58597   0.36000   0.17021   0.00000  Uiso   1.00
S753   S     0.91077   0.14835   0.66902   0.00000  Uiso   1.00
S754   S     0.60997   0.33597   0.32980   0.00000  Uiso   1.00
S755   S     0.85158   0.41080   0.66916   0.00000  Uiso   1.00
S756   S     0.81483   0.12457   0.81636   0.00000  Uiso   1.00
S757   S     0.66895   0.11631   0.32767   0.00000  Uiso   1.00
S758   S     0.59219   0.34967   0.66856   0.00000  Uiso   1.00
S759   S     0.89001   0.16402   0.32979   0.00000  Uiso   1.00
S760   S     0.64770   0.08894   0.66929   0.00000  Uiso   1.00
S761   S     0.83104   0.38367   0.32767   0.00000  Uiso   1.00
S762   S     0.85312   0.30198   0.29109   0.00000  Uiso   1.00
S763   S     0.56379   0.12445   0.68450   0.00000  Uiso   1.00
S764   S     0.80573   0.14367   0.29948   0.00000  Uiso   1.00
S765   S     0.62664   0.43416   0.68231   0.00000  Uiso   1.00
S766   S     0.64687   0.19801   0.29109   0.00000  Uiso   1.00
S767   S     0.55199   0.10313   0.20891   0.00000  Uiso   1.00
S768   S     0.93514   0.37405   0.68300   0.00000  Uiso   1.00
S769   S     0.69425   0.35633   0.29950   0.00000  Uiso   1.00
S770   S     0.87451   0.06460   0.68321   0.00000  Uiso   1.00
S771   S     0.87604   0.31490   0.81707   0.00000  Uiso   1.00
S772   S     0.89367   0.05574   0.20051   0.00000  Uiso   1.00
S773   S     0.68413   0.37664   0.81771   0.00000  Uiso   1.00
S774   S     0.94801   0.39688   0.20890   0.00000  Uiso   1.00
S775   S     0.62450   0.18572   0.81657   0.00000  Uiso   1.00
S776   S     0.66181   0.10239   0.83069   0.00000  Uiso   1.00
Zn777  Zn    0.70659  -0.00000   0.21735   0.00000  Uiso   1.00
Zn778  Zn    0.54340   0.25000   0.28265   0.00000  Uiso   1.00
Zn779  Zn    0.75000   0.45659   0.71735   0.00000  Uiso   1.00
Zn780  Zn    0.75000   0.04340   0.28265   0.00000  Uiso   1.00
Zn781  Zn    0.54340   0.25000   0.71735   0.00000  Uiso   1.00
Zn782  Zn    0.95659   0.25000   0.28265   0.00000  Uiso   1.00
Zn783  Zn    0.75000   0.04340   0.71735   0.00000  Uiso   1.00
Zn784  Zn    0.75000   0.45659   0.28265   0.00000  Uiso   1.00
Zn785  Zn    0.79340  -0.00000   0.78265   0.00000  Uiso   1.00
Zn786  Zn    0.50000   0.20659   0.21735   0.00000  Uiso   1.00
Zn787  Zn    0.50000   0.29340   0.78265   0.00000  Uiso   1.00
Zn788  Zn    0.79340  -0.00000   0.21735   0.00000  Uiso   1.00
Zn789  Zn    0.70659  -0.00000   0.78265   0.00000  Uiso   1.00
Zn790  Zn    0.50000   0.29340   0.21735   0.00000  Uiso   1.00
Zn791  Zn    0.50000   0.20659   0.78265   0.00000  Uiso   1.00
Zn792  Zn    0.95659   0.25000   0.71735   0.00000  Uiso   1.00
C793   C     0.03291   0.75404   0.41871   0.00000  Uiso   1.00
C794   C     0.21684   0.50056   0.08128   0.00000  Uiso   1.00
C795   C     0.25048   0.96661   0.54075   0.00000  Uiso   1.00
C796   C     0.03314   0.75410   0.45924   0.00000  Uiso   1.00
C797   C     0.46685   0.74600   0.54076   0.00000  Uiso   1.00
C798   C     0.25058   0.96661   0.45924   0.00000  Uiso   1.00
C799   C     0.24949   0.53339   0.54074   0.00000  Uiso   1.00
C800   C     0.21661   0.50043   0.95926   0.00000  Uiso   1.00
C801   C     0.28339   0.99945   0.04076   0.00000  Uiso   1.00
C802   C     0.00402   0.78315   0.95924   0.00000  Uiso   1.00
C803   C     0.49596   0.71685   0.04076   0.00000  Uiso   1.00
C804   C     0.28339   0.99954   0.95926   0.00000  Uiso   1.00
C805   C     0.49604   0.71708   0.91872   0.00000  Uiso   1.00
C806   C     0.21661   0.50053   0.04076   0.00000  Uiso   1.00
C807   C     0.49598   0.71685   0.95925   0.00000  Uiso   1.00
C808   C     0.00404   0.78315   0.04076   0.00000  Uiso   1.00
C809   C     0.09792   0.84793   0.25000   0.00000  Uiso   1.00
C810   C     0.40177   0.65142   0.74997   0.00000  Uiso   1.00
C811   C     0.15194   0.59806   0.25000   0.00000  Uiso   1.00
C812   C     0.34840   0.90158   0.75000   0.00000  Uiso   1.00
C813   C     0.40207   0.65208   0.25000   0.00000  Uiso   1.00
C814   C     0.09843   0.84842   0.75000   0.00000  Uiso   1.00
C815   C     0.34805   0.90194   0.25000   0.00000  Uiso   1.00
C816   C     0.00399   0.78292   0.08128   0.00000  Uiso   1.00
C817   C     0.15168   0.59848   0.75006   0.00000  Uiso   1.00
C818   C     0.09791   0.65208   0.75010   0.00000  Uiso   1.00
C819   C     0.40173   0.84827   0.25000   0.00000  Uiso   1.00
C820   C     0.15211   0.90211   0.75000   0.00000  Uiso   1.00
C821   C     0.34840   0.59840   0.25000   0.00000  Uiso   1.00
C822   C     0.40210   0.84791   0.75001   0.00000  Uiso   1.00
C823   C     0.09827   0.65173   0.25000   0.00000  Uiso   1.00
C824   C     0.34801   0.59783   0.74985   0.00000  Uiso   1.00
C825   C     0.15159   0.90160   0.25001   0.00000  Uiso   1.00
C826   C    -0.00000   0.75004   0.47961   0.00000  Uiso   1.00
C827   C     0.21684   0.50035   0.91874   0.00000  Uiso   1.00
C828   C    -0.00000   0.75005   0.52039   0.00000  Uiso   1.00
C829   C     0.24999   0.50000   0.47961   0.00000  Uiso   1.00
C830   C     0.24999   0.50000   0.52038   0.00000  Uiso   1.00
C831   C     0.25000   0.99998   0.97962   0.00000  Uiso   1.00
C832   C     0.25000   0.99998   0.02040   0.00000  Uiso   1.00
C833   C    -0.00000   0.75000   0.97961   0.00000  Uiso   1.00
C834   C    -0.00000   0.75000   0.02039   0.00000  Uiso   1.00
C835   C     0.28316   0.99942   0.08128   0.00000  Uiso   1.00
C836   C     0.00396   0.78292   0.91871   0.00000  Uiso   1.00
C837   C     0.49601   0.71708   0.08129   0.00000  Uiso   1.00
C838   C    -0.00000   0.75002   0.39840   0.00000  Uiso   1.00
C839   C    -0.00000   0.75003   0.60159   0.00000  Uiso   1.00
C840   C     0.25000   0.50000   0.39841   0.00000  Uiso   1.00
C841   C     0.46708   0.74605   0.58128   0.00000  Uiso   1.00
C842   C     0.24999   0.50000   0.60158   0.00000  Uiso   1.00
C843   C     0.25000   0.99999   0.89842   0.00000  Uiso   1.00
C844   C     0.25000   0.99999   0.10159   0.00000  Uiso   1.00
C845   C     0.00000   0.75000   0.89841   0.00000  Uiso   1.00
C846   C    -0.00000   0.75000   0.10160   0.00000  Uiso   1.00
C847   C     0.43406   0.74193   0.47972   0.00000  Uiso   1.00
C848   C     0.06593   0.75816   0.52027   0.00000  Uiso   1.00
C849   C     0.24886   0.56642   0.47970   0.00000  Uiso   1.00
C850   C     0.25105   0.93358   0.52028   0.00000  Uiso   1.00
C851   C     0.06593   0.75816   0.47971   0.00000  Uiso   1.00
C852   C     0.25061   0.96684   0.41873   0.00000  Uiso   1.00
C853   C     0.43406   0.74194   0.52029   0.00000  Uiso   1.00
C854   C     0.25112   0.93357   0.47972   0.00000  Uiso   1.00
C855   C     0.24893   0.56642   0.52026   0.00000  Uiso   1.00
C856   C     0.18358   0.50094   0.97974   0.00000  Uiso   1.00
C857   C     0.31642   0.99895   0.02028   0.00000  Uiso   1.00
C858   C     0.00805   0.81594   0.97971   0.00000  Uiso   1.00
C859   C     0.49193   0.68406   0.02029   0.00000  Uiso   1.00
C860   C     0.31642   0.99902   0.97972   0.00000  Uiso   1.00
C861   C     0.18358   0.50101   0.02029   0.00000  Uiso   1.00
C862   C     0.49195   0.68406   0.97973   0.00000  Uiso   1.00
C863   C     0.24957   0.53316   0.58126   0.00000  Uiso   1.00
C864   C     0.00806   0.81594   0.02027   0.00000  Uiso   1.00
C865   C     0.25000   0.50000   0.35595   0.00000  Uiso   1.00
C866   C     0.25000   0.50000   0.64404   0.00000  Uiso   1.00
C867   C    -0.00000   0.75000   0.35595   0.00000  Uiso   1.00
C868   C     0.00000   0.75001   0.64405   0.00000  Uiso   1.00
C869   C     0.00000   0.75000   0.85595   0.00000  Uiso   1.00
C870   C    -0.00000   0.75000   0.14405   0.00000  Uiso   1.00
C871   C     0.25000   0.50000   0.85596   0.00000  Uiso   1.00
C872   C     0.25000   0.50000   0.14405   0.00000  Uiso   1.00
C873   C     0.17998   0.57002   0.25000   0.00000  Uiso   1.00
C874   C     0.46708   0.74601   0.41872   0.00000  Uiso   1.00
C875   C     0.32012   0.92988   0.74999   0.00000  Uiso   1.00
C876   C     0.43003   0.68003   0.25000   0.00000  Uiso   1.00
C877   C     0.07013   0.82013   0.75000   0.00000  Uiso   1.00
C878   C     0.32002   0.92998   0.25000   0.00000  Uiso   1.00
C879   C     0.17989   0.57012   0.75000   0.00000  Uiso   1.00
C880   C     0.06997   0.81997   0.25000   0.00000  Uiso   1.00
C881   C     0.42989   0.67988   0.75004   0.00000  Uiso   1.00
C882   C     0.18007   0.93007   0.75000   0.00000  Uiso   1.00
C883   C     0.32015   0.57015   0.25000   0.00000  Uiso   1.00
C884   C     0.43006   0.81995   0.74999   0.00000  Uiso   1.00
C885   C     0.03292   0.75404   0.58128   0.00000  Uiso   1.00
C886   C     0.07010   0.67990   0.25000   0.00000  Uiso   1.00
C887   C     0.31997   0.56991   0.74995   0.00000  Uiso   1.00
C888   C     0.17985   0.92985   0.25000   0.00000  Uiso   1.00
C889   C     0.06990   0.68001   0.74995   0.00000  Uiso   1.00
C890   C     0.42990   0.82010   0.25000   0.00000  Uiso   1.00
C891   C     0.12205   0.90322   0.22313   0.00000  Uiso   1.00
C892   C     0.35144   0.62103   0.78226   0.00000  Uiso   1.00
C893   C     0.09468   0.62033   0.22606   0.00000  Uiso   1.00
C894   C     0.37881   0.85121   0.78244   0.00000  Uiso   1.00
C895   C     0.37795   0.59679   0.22312   0.00000  Uiso   1.00
C896   C     0.24938   0.53316   0.41872   0.00000  Uiso   1.00
C897   C     0.14814   0.87945   0.78279   0.00000  Uiso   1.00
C898   C     0.40532   0.87967   0.22605   0.00000  Uiso   1.00
C899   C     0.12154   0.64914   0.78230   0.00000  Uiso   1.00
C900   C     0.14424   0.61815   0.78487   0.00000  Uiso   1.00
C901   C     0.37418   0.90054   0.21973   0.00000  Uiso   1.00
C902   C     0.11691   0.85720   0.78522   0.00000  Uiso   1.00
C903   C     0.39849   0.62834   0.21789   0.00000  Uiso   1.00
C904   C     0.35618   0.88223   0.78493   0.00000  Uiso   1.00
C905   C     0.12582   0.59946   0.21973   0.00000  Uiso   1.00
C906   C     0.38267   0.64321   0.78493   0.00000  Uiso   1.00
C907   C     0.25041   0.96685   0.58126   0.00000  Uiso   1.00
C908   C     0.10151   0.87167   0.21789   0.00000  Uiso   1.00
C909   C     0.39391   0.63219   0.71500   0.00000  Uiso   1.00
C910   C     0.12166   0.85151   0.28212   0.00000  Uiso   1.00
C911   C     0.36775   0.89379   0.71508   0.00000  Uiso   1.00
C912   C     0.15054   0.62418   0.28027   0.00000  Uiso   1.00
C913   C     0.10720   0.86692   0.71479   0.00000  Uiso   1.00
C914   C     0.37833   0.64849   0.28211   0.00000  Uiso   1.00
C915   C     0.13197   0.60595   0.71532   0.00000  Uiso   1.00
C916   C     0.34946   0.87581   0.28027   0.00000  Uiso   1.00
C917   C     0.37032   0.84468   0.27394   0.00000  Uiso   1.00
C918   C     0.28315   0.99962   0.91874   0.00000  Uiso   1.00
C919   C     0.10085   0.62834   0.71804   0.00000  Uiso   1.00
C920   C     0.34679   0.62795   0.27688   0.00000  Uiso   1.00
C921   C     0.12945   0.89814   0.71722   0.00000  Uiso   1.00
C922   C     0.12967   0.65532   0.27394   0.00000  Uiso   1.00
C923   C     0.39879   0.87120   0.71758   0.00000  Uiso   1.00
C924   C     0.15320   0.87205   0.27689   0.00000  Uiso   1.00
C925   C     0.37137   0.60111   0.71750   0.00000  Uiso   1.00
C926   C     0.46685   0.74597   0.45924   0.00000  Uiso   1.00
C927   C     0.03314   0.75410   0.54075   0.00000  Uiso   1.00
C928   C     0.24940   0.53339   0.45924   0.00000  Uiso   1.00
H929   H     0.40846   0.73876   0.46437   0.00000  Uiso   1.00
H930   H     0.34222   0.99853   0.03563   0.00000  Uiso   1.00
H931   H     0.01119   0.84155   0.96436   0.00000  Uiso   1.00
H932   H     0.48879   0.65845   0.03565   0.00000  Uiso   1.00
H933   H     0.34222   0.99866   0.96437   0.00000  Uiso   1.00
H934   H     0.15778   0.50143   0.03565   0.00000  Uiso   1.00
H935   H     0.48881   0.65845   0.96438   0.00000  Uiso   1.00
H936   H     0.01120   0.84155   0.03562   0.00000  Uiso   1.00
H937   H     0.09392   0.97113   0.25492   0.00000  Uiso   1.00
H938   H     0.27152   0.63652   0.77568   0.00000  Uiso   1.00
H939   H     0.49664   0.60151   0.23058   0.00000  Uiso   1.00
H940   H     0.09154   0.76131   0.53562   0.00000  Uiso   1.00
H941   H     0.41090   0.76784   0.80792   0.00000  Uiso   1.00
H942   H     0.40608   0.52887   0.25490   0.00000  Uiso   1.00
H943   H     0.22848   0.86494   0.77822   0.00000  Uiso   1.00
H944   H     0.00336   0.89850   0.23058   0.00000  Uiso   1.00
H945   H     0.08953   0.73270   0.80740   0.00000  Uiso   1.00
H946   H     0.15985   0.55120   0.86179   0.00000  Uiso   1.00
H947   H     0.31891   0.92918   0.13653   0.00000  Uiso   1.00
H948   H     0.05837   0.88418   0.83366   0.00000  Uiso   1.00
H949   H     0.42296   0.69028   0.13869   0.00000  Uiso   1.00
H950   H     0.34126   0.94979   0.86141   0.00000  Uiso   1.00
H951   H     0.24840   0.59222   0.46435   0.00000  Uiso   1.00
H952   H     0.18111   0.57084   0.13653   0.00000  Uiso   1.00
H953   H     0.44094   0.61717   0.83434   0.00000  Uiso   1.00
H954   H     0.07704   0.80975   0.13869   0.00000  Uiso   1.00
H955   H     0.36874   0.68927   0.66355   0.00000  Uiso   1.00
H956   H     0.05971   0.82705   0.36131   0.00000  Uiso   1.00
H957   H     0.30010   0.90849   0.63865   0.00000  Uiso   1.00
H958   H     0.17916   0.56889   0.36347   0.00000  Uiso   1.00
H959   H     0.13416   0.80841   0.66631   0.00000  Uiso   1.00
H960   H     0.44025   0.67295   0.36131   0.00000  Uiso   1.00
H961   H     0.19895   0.59069   0.63828   0.00000  Uiso   1.00
H962   H     0.25145   0.90778   0.53564   0.00000  Uiso   1.00
H963   H     0.32082   0.93108   0.36348   0.00000  Uiso   1.00
H964   H     0.35151   0.74663   0.26941   0.00000  Uiso   1.00
H965   H     0.02027   0.61420   0.72546   0.00000  Uiso   1.00
H966   H     0.27888   0.65608   0.24509   0.00000  Uiso   1.00
H967   H     0.11496   0.97850   0.72180   0.00000  Uiso   1.00
H968   H     0.14848   0.75337   0.26942   0.00000  Uiso   1.00
H969   H     0.48249   0.83958   0.69218   0.00000  Uiso   1.00
H970   H     0.22112   0.84391   0.24512   0.00000  Uiso   1.00
H971   H     0.38417   0.52004   0.72307   0.00000  Uiso   1.00
H972   H     0.05836   0.75726   0.40303   0.00000  Uiso   1.00
H973   H     0.09153   0.76132   0.46435   0.00000  Uiso   1.00
H974   H     0.44163   0.74285   0.59696   0.00000  Uiso   1.00
H975   H     0.25112   0.94118   0.40306   0.00000  Uiso   1.00
H976   H     0.24931   0.55881   0.59690   0.00000  Uiso   1.00
H977   H     0.44163   0.74278   0.40304   0.00000  Uiso   1.00
H978   H     0.05837   0.75724   0.59696   0.00000  Uiso   1.00
H979   H     0.24887   0.55881   0.40305   0.00000  Uiso   1.00
H980   H     0.25067   0.94119   0.59692   0.00000  Uiso   1.00
H981   H     0.30881   0.99939   0.90309   0.00000  Uiso   1.00
H982   H     0.19119   0.50103   0.09695   0.00000  Uiso   1.00
H983   H     0.49285   0.69162   0.90305   0.00000  Uiso   1.00
H984   H     0.40846   0.73879   0.53564   0.00000  Uiso   1.00
H985   H     0.00719   0.80838   0.09696   0.00000  Uiso   1.00
H986   H     0.19119   0.50057   0.90309   0.00000  Uiso   1.00
H987   H     0.30881   0.99895   0.09694   0.00000  Uiso   1.00
H988   H     0.00715   0.80837   0.90303   0.00000  Uiso   1.00
H989   H     0.49280   0.69163   0.09697   0.00000  Uiso   1.00
H990   H     0.25158   0.90778   0.46437   0.00000  Uiso   1.00
H991   H     0.24853   0.59222   0.53561   0.00000  Uiso   1.00
H992   H     0.15778   0.50130   0.96438   0.00000  Uiso   1.00
O993   O     0.25000   0.50000   0.25000   0.00000  Uiso   1.00
O994   O     0.25000   0.96963   0.66245   0.00000  Uiso   1.00
O995   O     0.09007   0.81477   0.16337   0.00000  Uiso   1.00
O996   O     0.45170   0.64897   0.67001   0.00000  Uiso   1.00
O997   O     0.39867   0.62595   0.63484   0.00000  Uiso   1.00
O998   O     0.39560   0.69099   0.66129   0.00000  Uiso   1.00
O999   O     0.12069   0.79667   0.33453   0.00000  Uiso   1.00
O1000  O     0.12923   0.85843   0.36004   0.00000  Uiso   1.00
O1001  O     0.06473   0.84007   0.33663   0.00000  Uiso   1.00
O1002  O     0.35050   0.95173   0.67046   0.00000  Uiso   1.00
O1003  O     0.37415   0.89903   0.63498   0.00000  Uiso   1.00
O1004  O     0.30919   0.89487   0.66156   0.00000  Uiso   1.00
O1005  O     0.46963   0.75000   0.33755   0.00000  Uiso   1.00
O1006  O     0.20850   0.62696   0.32855   0.00000  Uiso   1.00
O1007  O     0.14856   0.63826   0.35749   0.00000  Uiso   1.00
O1008  O     0.16498   0.57188   0.33915   0.00000  Uiso   1.00
O1009  O     0.05127   0.84932   0.66757   0.00000  Uiso   1.00
O1010  O     0.10591   0.87121   0.63444   0.00000  Uiso   1.00
O1011  O     0.10742   0.80678   0.66269   0.00000  Uiso   1.00
O1012  O     0.37928   0.70333   0.33452   0.00000  Uiso   1.00
O1013  O     0.37073   0.64156   0.36003   0.00000  Uiso   1.00
O1014  O     0.43524   0.65992   0.33663   0.00000  Uiso   1.00
O1015  O     0.14815   0.54800   0.67035   0.00000  Uiso   1.00
O1016  O     0.03036   0.75000   0.66245   0.00000  Uiso   1.00
O1017  O     0.12503   0.60134   0.63543   0.00000  Uiso   1.00
O1018  O     0.19028   0.60427   0.66140   0.00000  Uiso   1.00
O1019  O     0.29148   0.87302   0.32855   0.00000  Uiso   1.00
O1020  O     0.35142   0.86171   0.35749   0.00000  Uiso   1.00
O1021  O     0.33500   0.92809   0.33915   0.00000  Uiso   1.00
O1022  O     0.37272   0.79118   0.32775   0.00000  Uiso   1.00
O1023  O     0.31299   0.80466   0.29937   0.00000  Uiso   1.00
O1024  O     0.35935   0.76968   0.25694   0.00000  Uiso   1.00
O1025  O     0.06931   0.65095   0.65168   0.00000  Uiso   1.00
O1026  O     0.06149   0.58640   0.66842   0.00000  Uiso   1.00
O1027  O    -0.00000   0.71963   0.83755   0.00000  Uiso   1.00
O1028  O     0.02377   0.63391   0.70610   0.00000  Uiso   1.00
O1029  O     0.29718   0.62030   0.33423   0.00000  Uiso   1.00
O1030  O     0.30940   0.68255   0.31262   0.00000  Uiso   1.00
O1031  O     0.27080   0.64158   0.26782   0.00000  Uiso   1.00
O1032  O     0.15438   0.92786   0.65084   0.00000  Uiso   1.00
O1033  O     0.08921   0.93580   0.66457   0.00000  Uiso   1.00
O1034  O     0.13514   0.97479   0.70306   0.00000  Uiso   1.00
O1035  O     0.12727   0.70880   0.32775   0.00000  Uiso   1.00
O1036  O     0.18700   0.69533   0.29938   0.00000  Uiso   1.00
O1037  O     0.14065   0.73032   0.25695   0.00000  Uiso   1.00
O1038  O     0.00000   0.78036   0.16245   0.00000  Uiso   1.00
O1039  O     0.42772   0.84820   0.64997   0.00000  Uiso   1.00
O1040  O     0.43821   0.91220   0.66739   0.00000  Uiso   1.00
O1041  O     0.47552   0.86346   0.70338   0.00000  Uiso   1.00
O1042  O     0.20279   0.87970   0.33425   0.00000  Uiso   1.00
O1043  O     0.19058   0.81745   0.31266   0.00000  Uiso   1.00
O1044  O     0.22919   0.85842   0.26784   0.00000  Uiso   1.00
O1045  O     0.34805   0.57119   0.65058   0.00000  Uiso   1.00
O1046  O     0.41248   0.56190   0.66701   0.00000  Uiso   1.00
O1047  O     0.36439   0.52436   0.70400   0.00000  Uiso   1.00
O1048  O     0.28036   0.50000   0.83755   0.00000  Uiso   1.00
O1049  O     0.21963   0.50000   0.16245   0.00000  Uiso   1.00
O1050  O     0.00000   0.78036   0.83755   0.00000  Uiso   1.00
O1051  O     0.00000   0.71963   0.16245   0.00000  Uiso   1.00
O1052  O     0.21963   0.50000   0.83755   0.00000  Uiso   1.00
O1053  O     0.25000   0.50000   0.75000   0.00000  Uiso   1.00
O1054  O     0.28036   0.50000   0.16245   0.00000  Uiso   1.00
O1055  O     0.20724   0.57307   0.27302   0.00000  Uiso   1.00
O1056  O     0.29275   0.92692   0.72698   0.00000  Uiso   1.00
O1057  O     0.42692   0.70724   0.27302   0.00000  Uiso   1.00
O1058  O     0.07307   0.79275   0.72698   0.00000  Uiso   1.00
O1059  O     0.29275   0.92692   0.27302   0.00000  Uiso   1.00
O1060  O     0.20724   0.57307   0.72698   0.00000  Uiso   1.00
O1061  O     0.07307   0.79275   0.27302   0.00000  Uiso   1.00
O1062  O     0.42692   0.70724   0.72698   0.00000  Uiso   1.00
O1063  O     0.20724   0.92692   0.72698   0.00000  Uiso   1.00
O1064  O     0.00000   0.75000   0.25000   0.00000  Uiso   1.00
O1065  O     0.29275   0.57307   0.27302   0.00000  Uiso   1.00
O1066  O     0.42692   0.79275   0.72698   0.00000  Uiso   1.00
O1067  O     0.07307   0.70724   0.27302   0.00000  Uiso   1.00
O1068  O     0.29275   0.57307   0.72698   0.00000  Uiso   1.00
O1069  O     0.20724   0.92692   0.27302   0.00000  Uiso   1.00
O1070  O     0.07307   0.70724   0.72698   0.00000  Uiso   1.00
O1071  O     0.42692   0.79275   0.27302   0.00000  Uiso   1.00
O1072  O     0.45724   0.82307   0.77302   0.00000  Uiso   1.00
O1073  O     0.04275   0.67692   0.22698   0.00000  Uiso   1.00
O1074  O     0.17692   0.95724   0.77302   0.00000  Uiso   1.00
O1075  O     0.00000   0.75000   0.75000   0.00000  Uiso   1.00
O1076  O     0.32307   0.54275   0.22698   0.00000  Uiso   1.00
O1077  O     0.04275   0.67692   0.77302   0.00000  Uiso   1.00
O1078  O     0.45724   0.82307   0.22698   0.00000  Uiso   1.00
O1079  O     0.32307   0.54275   0.77302   0.00000  Uiso   1.00
O1080  O     0.17692   0.95724   0.22698   0.00000  Uiso   1.00
O1081  O     0.45724   0.67692   0.22698   0.00000  Uiso   1.00
O1082  O     0.04275   0.82307   0.77302   0.00000  Uiso   1.00
O1083  O     0.17692   0.54275   0.22698   0.00000  Uiso   1.00
O1084  O     0.32307   0.95724   0.77302   0.00000  Uiso   1.00
O1085  O     0.04275   0.82307   0.22698   0.00000  Uiso   1.00
O1086  O     0.25000   0.96963   0.33755   0.00000  Uiso   1.00
O1087  O     0.45724   0.67692   0.77302   0.00000  Uiso   1.00
O1088  O     0.32307   0.95724   0.22698   0.00000  Uiso   1.00
O1089  O     0.17692   0.54275   0.77302   0.00000  Uiso   1.00
O1090  O     0.12969   0.95283   0.16577   0.00000  Uiso   1.00
O1091  O     0.06745   0.94061   0.18739   0.00000  Uiso   1.00
O1092  O     0.10843   0.97921   0.23219   0.00000  Uiso   1.00
O1093  O     0.32013   0.59695   0.84815   0.00000  Uiso   1.00
O1094  O     0.31333   0.66213   0.83380   0.00000  Uiso   1.00
O1095  O     0.27453   0.61648   0.79472   0.00000  Uiso   1.00
O1096  O     0.04120   0.62273   0.17225   0.00000  Uiso   1.00
O1097  O     0.25000   0.53036   0.66245   0.00000  Uiso   1.00
O1098  O     0.05467   0.56300   0.20062   0.00000  Uiso   1.00
O1099  O     0.01968   0.60935   0.24305   0.00000  Uiso   1.00
O1100  O     0.40174   0.82249   0.85020   0.00000  Uiso   1.00
O1101  O     0.33786   0.81166   0.83254   0.00000  Uiso   1.00
O1102  O     0.38689   0.77454   0.79682   0.00000  Uiso   1.00
O1103  O     0.37030   0.54720   0.16576   0.00000  Uiso   1.00
O1104  O     0.43255   0.55941   0.18736   0.00000  Uiso   1.00
O1105  O     0.39157   0.52080   0.23217   0.00000  Uiso   1.00
O1106  O     0.17784   0.90439   0.84916   0.00000  Uiso   1.00
O1107  O     0.18576   0.83921   0.83547   0.00000  Uiso   1.00
O1108  O     0.03036   0.75000   0.33755   0.00000  Uiso   1.00
O1109  O     0.22478   0.88512   0.79696   0.00000  Uiso   1.00
O1110  O     0.45880   0.87728   0.17224   0.00000  Uiso   1.00
O1111  O     0.44533   0.93701   0.20061   0.00000  Uiso   1.00
O1112  O     0.48031   0.89065   0.24305   0.00000  Uiso   1.00
O1113  O     0.09907   0.67832   0.84998   0.00000  Uiso   1.00
O1114  O     0.16279   0.68914   0.83167   0.00000  Uiso   1.00
O1115  O     0.11341   0.72591   0.79607   0.00000  Uiso   1.00
O1116  O     0.20272   0.60129   0.82881   0.00000  Uiso   1.00
O1117  O     0.15047   0.62526   0.86481   0.00000  Uiso   1.00
O1118  O     0.14599   0.56006   0.83894   0.00000  Uiso   1.00
O1119  O     0.46963   0.75000   0.66245   0.00000  Uiso   1.00
O1120  O     0.37697   0.95851   0.17144   0.00000  Uiso   1.00
O1121  O     0.38828   0.89857   0.14251   0.00000  Uiso   1.00
O1122  O     0.32190   0.91499   0.16085   0.00000  Uiso   1.00
O1123  O     0.09929   0.80129   0.83248   0.00000  Uiso   1.00
O1124  O     0.12116   0.85595   0.86556   0.00000  Uiso   1.00
O1125  O     0.05674   0.85744   0.83729   0.00000  Uiso   1.00
O1126  O     0.45333   0.62930   0.16548   0.00000  Uiso   1.00
O1127  O     0.39157   0.62076   0.13996   0.00000  Uiso   1.00
O1128  O     0.40993   0.68527   0.16337   0.00000  Uiso   1.00
O1129  O     0.29809   0.89947   0.82932   0.00000  Uiso   1.00
O1130  O     0.25000   0.53036   0.33755   0.00000  Uiso   1.00
O1131  O     0.35062   0.87573   0.86501   0.00000  Uiso   1.00
O1132  O     0.35496   0.94071   0.83854   0.00000  Uiso   1.00
O1133  O     0.12304   0.54150   0.17145   0.00000  Uiso   1.00
O1134  O     0.11174   0.60145   0.14251   0.00000  Uiso   1.00
O1135  O     0.17811   0.58502   0.16085   0.00000  Uiso   1.00
O1136  O     0.39915   0.69959   0.83197   0.00000  Uiso   1.00
O1137  O     0.37742   0.64488   0.86512   0.00000  Uiso   1.00
O1138  O     0.44223   0.64394   0.83783   0.00000  Uiso   1.00
O1139  O     0.04667   0.87072   0.16549   0.00000  Uiso   1.00
O1140  O     0.10843   0.87928   0.13997   0.00000  Uiso   1.00
S1141  S     0.10633   0.94428   0.20053   0.00000  Uiso   1.00
S1142  S     0.36631   0.91896   0.17233   0.00000  Uiso   1.00
S1143  S     0.09963   0.84221   0.83145   0.00000  Uiso   1.00
S1144  S     0.41403   0.64003   0.17021   0.00000  Uiso   1.00
S1145  S     0.33901   0.89834   0.83081   0.00000  Uiso   1.00
S1146  S     0.13369   0.58106   0.17233   0.00000  Uiso   1.00
S1147  S     0.39926   0.65867   0.83125   0.00000  Uiso   1.00
S1148  S     0.08597   0.86000   0.17021   0.00000  Uiso   1.00
S1149  S     0.41077   0.64835   0.66902   0.00000  Uiso   1.00
S1150  S     0.10997   0.83597   0.32980   0.00000  Uiso   1.00
S1151  S     0.35158   0.91080   0.66916   0.00000  Uiso   1.00
S1152  S     0.31483   0.62457   0.81636   0.00000  Uiso   1.00
S1153  S     0.16895   0.61631   0.32767   0.00000  Uiso   1.00
S1154  S     0.09219   0.84967   0.66856   0.00000  Uiso   1.00
S1155  S     0.39001   0.66402   0.32979   0.00000  Uiso   1.00
S1156  S     0.14770   0.58894   0.66929   0.00000  Uiso   1.00
S1157  S     0.33104   0.88367   0.32767   0.00000  Uiso   1.00
S1158  S     0.35312   0.80198   0.29109   0.00000  Uiso   1.00
S1159  S     0.06379   0.62445   0.68450   0.00000  Uiso   1.00
S1160  S     0.30573   0.64367   0.29948   0.00000  Uiso   1.00
S1161  S     0.12664   0.93416   0.68231   0.00000  Uiso   1.00
S1162  S     0.14687   0.69801   0.29109   0.00000  Uiso   1.00
S1163  S     0.05199   0.60313   0.20891   0.00000  Uiso   1.00
S1164  S     0.43514   0.87405   0.68300   0.00000  Uiso   1.00
S1165  S     0.19425   0.85633   0.29950   0.00000  Uiso   1.00
S1166  S     0.37451   0.56460   0.68321   0.00000  Uiso   1.00
S1167  S     0.37604   0.81490   0.81707   0.00000  Uiso   1.00
S1168  S     0.39367   0.55574   0.20051   0.00000  Uiso   1.00
S1169  S     0.18413   0.87664   0.81771   0.00000  Uiso   1.00
S1170  S     0.44801   0.89688   0.20890   0.00000  Uiso   1.00
S1171  S     0.12450   0.68572   0.81657   0.00000  Uiso   1.00
S1172  S     0.16181   0.60239   0.83069   0.00000  Uiso   1.00
Zn1173 Zn    0.20659   0.50000   0.21735   0.00000  Uiso   1.00
Zn1174 Zn    0.04340   0.75000   0.28265   0.00000  Uiso   1.00
Zn1175 Zn    0.25000   0.95659   0.71735   0.00000  Uiso   1.00
Zn1176 Zn    0.25000   0.54340   0.28265   0.00000  Uiso   1.00
Zn1177 Zn    0.04340   0.75000   0.71735   0.00000  Uiso   1.00
Zn1178 Zn    0.45659   0.75000   0.28265   0.00000  Uiso   1.00
Zn1179 Zn    0.25000   0.54340   0.71735   0.00000  Uiso   1.00
Zn1180 Zn    0.25000   0.95659   0.28265   0.00000  Uiso   1.00
Zn1181 Zn    0.29340   0.50000   0.78265   0.00000  Uiso   1.00
Zn1182 Zn    0.00000   0.70659   0.21735   0.00000  Uiso   1.00
Zn1183 Zn   -0.00000   0.79340   0.78265   0.00000  Uiso   1.00
Zn1184 Zn    0.29340   0.50000   0.21735   0.00000  Uiso   1.00
Zn1185 Zn    0.20659   0.50000   0.78265   0.00000  Uiso   1.00
Zn1186 Zn    0.00000   0.79340   0.21735   0.00000  Uiso   1.00
Zn1187 Zn   -0.00000   0.70659   0.78265   0.00000  Uiso   1.00
Zn1188 Zn    0.45659   0.75000   0.71735   0.00000  Uiso   1.00
C1189  C     0.53291   0.75404   0.41871   0.00000  Uiso   1.00
C1190  C     0.71684   0.50056   0.08128   0.00000  Uiso   1.00
C1191  C     0.75048   0.96661   0.54075   0.00000  Uiso   1.00
C1192  C     0.53314   0.75410   0.45924   0.00000  Uiso   1.00
C1193  C     0.96685   0.74600   0.54076   0.00000  Uiso   1.00
C1194  C     0.75058   0.96661   0.45924   0.00000  Uiso   1.00
C1195  C     0.74949   0.53339   0.54074   0.00000  Uiso   1.00
C1196  C     0.71661   0.50043   0.95926   0.00000  Uiso   1.00
C1197  C     0.78339   0.99945   0.04076   0.00000  Uiso   1.00
C1198  C     0.50402   0.78315   0.95924   0.00000  Uiso   1.00
C1199  C     0.99596   0.71685   0.04076   0.00000  Uiso   1.00
C1200  C     0.78339   0.99954   0.95926   0.00000  Uiso   1.00
C1201  C     0.99604   0.71708   0.91872   0.00000  Uiso   1.00
C1202  C     0.71661   0.50053   0.04076   0.00000  Uiso   1.00
C1203  C     0.99598   0.71685   0.95925   0.00000  Uiso   1.00
C1204  C     0.50404   0.78315   0.04076   0.00000  Uiso   1.00
C1205  C     0.59792   0.84793   0.25000   0.00000  Uiso   1.00
C1206  C     0.90177   0.65142   0.74997   0.00000  Uiso   1.00
C1207  C     0.65194   0.59806   0.25000   0.00000  Uiso   1.00
C1208  C     0.84840   0.90158   0.75000   0.00000  Uiso   1.00
C1209  C     0.90207   0.65208   0.25000   0.00000  Uiso   1.00
C1210  C     0.59843   0.84842   0.75000   0.00000  Uiso   1.00
C1211  C     0.84805   0.90194   0.25000   0.00000  Uiso   1.00
C1212  C     0.50399   0.78292   0.08128   0.00000  Uiso   1.00
C1213  C     0.65168   0.59848   0.75006   0.00000  Uiso   1.00
C1214  C     0.59791   0.65208   0.75010   0.00000  Uiso   1.00
C1215  C     0.90173   0.84827   0.25000   0.00000  Uiso   1.00
C1216  C     0.65211   0.90211   0.75000   0.00000  Uiso   1.00
C1217  C     0.84840   0.59840   0.25000   0.00000  Uiso   1.00
C1218  C     0.90210   0.84791   0.75001   0.00000  Uiso   1.00
C1219  C     0.59827   0.65173   0.25000   0.00000  Uiso   1.00
C1220  C     0.84801   0.59783   0.74985   0.00000  Uiso   1.00
C1221  C     0.65159   0.90160   0.25001   0.00000  Uiso   1.00
C1222  C     0.50000   0.75004   0.47961   0.00000  Uiso   1.00
C1223  C     0.71684   0.50035   0.91874   0.00000  Uiso   1.00
C1224  C     0.50000   0.75005   0.52039   0.00000  Uiso   1.00
C1225  C     0.74999   0.50000   0.47961   0.00000  Uiso   1.00
C1226  C     0.74999   0.50000   0.52038   0.00000  Uiso   1.00
C1227  C     0.75000   0.99998   0.97962   0.00000  Uiso   1.00
C1228  C     0.75000   0.99998   0.02040   0.00000  Uiso   1.00
C1229  C     0.50000   0.75000   0.97961   0.00000  Uiso   1.00
C1230  C     0.50000   0.75000   0.02039   0.00000  Uiso   1.00
C1231  C     0.78316   0.99942   0.08128   0.00000  Uiso   1.00
C1232  C     0.50396   0.78292   0.91871   0.00000  Uiso   1.00
C1233  C     0.99601   0.71708   0.08129   0.00000  Uiso   1.00
C1234  C     0.50000   0.75002   0.39840   0.00000  Uiso   1.00
C1235  C     0.50000   0.75003   0.60159   0.00000  Uiso   1.00
C1236  C     0.75000   0.50000   0.39841   0.00000  Uiso   1.00
C1237  C     0.96708   0.74605   0.58128   0.00000  Uiso   1.00
C1238  C     0.74999   0.50000   0.60158   0.00000  Uiso   1.00
C1239  C     0.75000   0.99999   0.89842   0.00000  Uiso   1.00
C1240  C     0.75000   0.99999   0.10159   0.00000  Uiso   1.00
C1241  C     0.50000   0.75000   0.89841   0.00000  Uiso   1.00
C1242  C     0.50000   0.75000   0.10160   0.00000  Uiso   1.00
C1243  C     0.93406   0.74193   0.47972   0.00000  Uiso   1.00
C1244  C     0.56593   0.75816   0.52027   0.00000  Uiso   1.00
C1245  C     0.74886   0.56642   0.47970   0.00000  Uiso   1.00
C1246  C     0.75105   0.93358   0.52028   0.00000  Uiso   1.00
C1247  C     0.56593   0.75816   0.47971   0.00000  Uiso   1.00
C1248  C     0.75061   0.96684   0.41873   0.00000  Uiso   1.00
C1249  C     0.93406   0.74194   0.52029   0.00000  Uiso   1.00
C1250  C     0.75112   0.93357   0.47972   0.00000  Uiso   1.00
C1251  C     0.74893   0.56642   0.52026   0.00000  Uiso   1.00
C1252  C     0.68358   0.50094   0.97974   0.00000  Uiso   1.00
C1253  C     0.81642   0.99895   0.02028   0.00000  Uiso   1.00
C1254  C     0.50805   0.81594   0.97971   0.00000  Uiso   1.00
C1255  C     0.99193   0.68406   0.02029   0.00000  Uiso   1.00
C1256  C     0.81642   0.99902   0.97972   0.00000  Uiso   1.00
C1257  C     0.68358   0.50101   0.02029   0.00000  Uiso   1.00
C1258  C     0.99195   0.68406   0.97973   0.00000  Uiso   1.00
C1259  C     0.74957   0.53316   0.58126   0.00000  Uiso   1.00
C1260  C     0.50806   0.81594   0.02027   0.00000  Uiso   1.00
C1261  C     0.75000   0.50000   0.35595   0.00000  Uiso   1.00
C1262  C     0.75000   0.50000   0.64404   0.00000  Uiso   1.00
C1263  C     0.50000   0.75000   0.35595   0.00000  Uiso   1.00
C1264  C     0.50000   0.75001   0.64405   0.00000  Uiso   1.00
C1265  C     0.50000   0.75000   0.85595   0.00000  Uiso   1.00
C1266  C     0.50000   0.75000   0.14405   0.00000  Uiso   1.00
C1267  C     0.75000   0.50000   0.85596   0.00000  Uiso   1.00
C1268  C     0.75000   0.50000   0.14405   0.00000  Uiso   1.00
C1269  C     0.67998   0.57002   0.25000   0.00000  Uiso   1.00
C1270  C     0.96708   0.74601   0.41872   0.00000  Uiso   1.00
C1271  C     0.82012   0.92988   0.74999   0.00000  Uiso   1.00
C1272  C     0.93003   0.68003   0.25000   0.00000  Uiso   1.00
C1273  C     0.57013   0.82013   0.75000   0.00000  Uiso   1.00
C1274  C     0.82002   0.92998   0.25000   0.00000  Uiso   1.00
C1275  C     0.67989   0.57012   0.75000   0.00000  Uiso   1.00
C1276  C     0.56997   0.81997   0.25000   0.00000  Uiso   1.00
C1277  C     0.92989   0.67988   0.75004   0.00000  Uiso   1.00
C1278  C     0.68007   0.93007   0.75000   0.00000  Uiso   1.00
C1279  C     0.82015   0.57015   0.25000   0.00000  Uiso   1.00
C1280  C     0.93006   0.81995   0.74999   0.00000  Uiso   1.00
C1281  C     0.53292   0.75404   0.58128   0.00000  Uiso   1.00
C1282  C     0.57010   0.67990   0.25000   0.00000  Uiso   1.00
C1283  C     0.81997   0.56991   0.74995   0.00000  Uiso   1.00
C1284  C     0.67985   0.92985   0.25000   0.00000  Uiso   1.00
C1285  C     0.56990   0.68001   0.74995   0.00000  Uiso   1.00
C1286  C     0.92990   0.82010   0.25000   0.00000  Uiso   1.00
C1287  C     0.62205   0.90322   0.22313   0.00000  Uiso   1.00
C1288  C     0.85144   0.62103   0.78226   0.00000  Uiso   1.00
C1289  C     0.59468   0.62033   0.22606   0.00000  Uiso   1.00
C1290  C     0.87881   0.85121   0.78244   0.00000  Uiso   1.00
C1291  C     0.87795   0.59679   0.22312   0.00000  Uiso   1.00
C1292  C     0.74938   0.53316   0.41872   0.00000  Uiso   1.00
C1293  C     0.64814   0.87945   0.78279   0.00000  Uiso   1.00
C1294  C     0.90532   0.87967   0.22605   0.00000  Uiso   1.00
C1295  C     0.62154   0.64914   0.78230   0.00000  Uiso   1.00
C1296  C     0.64424   0.61815   0.78487   0.00000  Uiso   1.00
C1297  C     0.87418   0.90054   0.21973   0.00000  Uiso   1.00
C1298  C     0.61691   0.85720   0.78522   0.00000  Uiso   1.00
C1299  C     0.89849   0.62834   0.21789   0.00000  Uiso   1.00
C1300  C     0.85618   0.88223   0.78493   0.00000  Uiso   1.00
C1301  C     0.62582   0.59946   0.21973   0.00000  Uiso   1.00
C1302  C     0.88267   0.64321   0.78493   0.00000  Uiso   1.00
C1303  C     0.75041   0.96685   0.58126   0.00000  Uiso   1.00
C1304  C     0.60151   0.87167   0.21789   0.00000  Uiso   1.00
C1305  C     0.89391   0.63219   0.71500   0.00000  Uiso   1.00
C1306  C     0.62166   0.85151   0.28212   0.00000  Uiso   1.00
C1307  C     0.86775   0.89379   0.71508   0.00000  Uiso   1.00
C1308  C     0.65054   0.62418   0.28027   0.00000  Uiso   1.00
C1309  C     0.60720   0.86692   0.71479   0.00000  Uiso   1.00
C1310  C     0.87833   0.64849   0.28211   0.00000  Uiso   1.00
C1311  C     0.63197   0.60595   0.71532   0.00000  Uiso   1.00
C1312  C     0.84946   0.87581   0.28027   0.00000  Uiso   1.00
C1313  C     0.87032   0.84468   0.27394   0.00000  Uiso   1.00
C1314  C     0.78315   0.99962   0.91874   0.00000  Uiso   1.00
C1315  C     0.60085   0.62834   0.71804   0.00000  Uiso   1.00
C1316  C     0.84679   0.62795   0.27688   0.00000  Uiso   1.00
C1317  C     0.62945   0.89814   0.71722   0.00000  Uiso   1.00
C1318  C     0.62967   0.65532   0.27394   0.00000  Uiso   1.00
C1319  C     0.89879   0.87120   0.71758   0.00000  Uiso   1.00
C1320  C     0.65320   0.87205   0.27689   0.00000  Uiso   1.00
C1321  C     0.87137   0.60111   0.71750   0.00000  Uiso   1.00
C1322  C     0.96685   0.74597   0.45924   0.00000  Uiso   1.00
C1323  C     0.53314   0.75410   0.54075   0.00000  Uiso   1.00
C1324  C     0.74940   0.53339   0.45924   0.00000  Uiso   1.00
H1325  H     0.90846   0.73876   0.46437   0.00000  Uiso   1.00
H1326  H     0.84222   0.99853   0.03563   0.00000  Uiso   1.00
H1327  H     0.51119   0.84155   0.96436   0.00000  Uiso   1.00
H1328  H     0.98879   0.65845   0.03565   0.00000  Uiso   1.00
H1329  H     0.84222   0.99866   0.96437   0.00000  Uiso   1.00
H1330  H     0.65778   0.50143   0.03565   0.00000  Uiso   1.00
H1331  H     0.98881   0.65845   0.96438   0.00000  Uiso   1.00
H1332  H     0.51120   0.84155   0.03562   0.00000  Uiso   1.00
H1333  H     0.59392   0.97113   0.25492   0.00000  Uiso   1.00
H1334  H     0.77152   0.63652   0.77568   0.00000  Uiso   1.00
H1335  H     0.99664   0.60151   0.23058   0.00000  Uiso   1.00
H1336  H     0.59154   0.76131   0.53562   0.00000  Uiso   1.00
H1337  H     0.91090   0.76784   0.80792   0.00000  Uiso   1.00
H1338  H     0.90608   0.52887   0.25490   0.00000  Uiso   1.00
H1339  H     0.72848   0.86494   0.77822   0.00000  Uiso   1.00
H1340  H     0.50336   0.89850   0.23058   0.00000  Uiso   1.00
H1341  H     0.58953   0.73270   0.80740   0.00000  Uiso   1.00
H1342  H     0.65985   0.55120   0.86179   0.00000  Uiso   1.00
H1343  H     0.81891   0.92918   0.13653   0.00000  Uiso   1.00
H1344  H     0.55837   0.88418   0.83366   0.00000  Uiso   1.00
H1345  H     0.92296   0.69028   0.13869   0.00000  Uiso   1.00
H1346  H     0.84126   0.94979   0.86141   0.00000  Uiso   1.00
H1347  H     0.74840   0.59222   0.46435   0.00000  Uiso   1.00
H1348  H     0.68111   0.57084   0.13653   0.00000  Uiso   1.00
H1349  H     0.94094   0.61717   0.83434   0.00000  Uiso   1.00
H1350  H     0.57704   0.80975   0.13869   0.00000  Uiso   1.00
H1351  H     0.86874   0.68927   0.66355   0.00000  Uiso   1.00
H1352  H     0.55971   0.82705   0.36131   0.00000  Uiso   1.00
H1353  H     0.80010   0.90849   0.63865   0.00000  Uiso   1.00
H1354  H     0.67916   0.56889   0.36347   0.00000  Uiso   1.00
H1355  H     0.63416   0.80841   0.66631   0.00000  Uiso   1.00
H1356  H     0.94025   0.67295   0.36131   0.00000  Uiso   1.00
H1357  H     0.69895   0.59069   0.63828   0.00000  Uiso   1.00
H1358  H     0.75145   0.90778   0.53564   0.00000  Uiso   1.00
H1359  H     0.82082   0.93108   0.36348   0.00000  Uiso   1.00
H1360  H     0.85151   0.74663   0.26941   0.00000  Uiso   1.00
H1361  H     0.52027   0.61420   0.72546   0.00000  Uiso   1.00
H1362  H     0.77888   0.65608   0.24509   0.00000  Uiso   1.00
H1363  H     0.61496   0.97850   0.72180   0.00000  Uiso   1.00
H1364  H     0.64848   0.75337   0.26942   0.00000  Uiso   1.00
H1365  H     0.98249   0.83958   0.69218   0.00000  Uiso   1.00
H1366  H     0.72112   0.84391   0.24512   0.00000  Uiso   1.00
H1367  H     0.88417   0.52004   0.72307   0.00000  Uiso   1.00
H1368  H     0.55836   0.75726   0.40303   0.00000  Uiso   1.00
H1369  H     0.59153   0.76132   0.46435   0.00000  Uiso   1.00
H1370  H     0.94163   0.74285   0.59696   0.00000  Uiso   1.00
H1371  H     0.75112   0.94118   0.40306   0.00000  Uiso   1.00
H1372  H     0.74931   0.55881   0.59690   0.00000  Uiso   1.00
H1373  H     0.94163   0.74278   0.40304   0.00000  Uiso   1.00
H1374  H     0.55837   0.75724   0.59696   0.00000  Uiso   1.00
H1375  H     0.74887   0.55881   0.40305   0.00000  Uiso   1.00
H1376  H     0.75067   0.94119   0.59692   0.00000  Uiso   1.00
H1377  H     0.80881   0.99939   0.90309   0.00000  Uiso   1.00
H1378  H     0.69119   0.50103   0.09695   0.00000  Uiso   1.00
H1379  H     0.99285   0.69162   0.90305   0.00000  Uiso   1.00
H1380  H     0.90846   0.73879   0.53564   0.00000  Uiso   1.00
H1381  H     0.50719   0.80838   0.09696   0.00000  Uiso   1.00
H1382  H     0.69119   0.50057   0.90309   0.00000  Uiso   1.00
H1383  H     0.80881   0.99895   0.09694   0.00000  Uiso   1.00
H1384  H     0.50715   0.80837   0.90303   0.00000  Uiso   1.00
H1385  H     0.99280   0.69163   0.09697   0.00000  Uiso   1.00
H1386  H     0.75158   0.90778   0.46437   0.00000  Uiso   1.00
H1387  H     0.74853   0.59222   0.53561   0.00000  Uiso   1.00
H1388  H     0.65778   0.50130   0.96438   0.00000  Uiso   1.00
O1389  O     0.75000   0.50000   0.25000   0.00000  Uiso   1.00
O1390  O     0.75000   0.96963   0.66245   0.00000  Uiso   1.00
O1391  O     0.59007   0.81477   0.16337   0.00000  Uiso   1.00
O1392  O     0.95170   0.64897   0.67001   0.00000  Uiso   1.00
O1393  O     0.89867   0.62595   0.63484   0.00000  Uiso   1.00
O1394  O     0.89560   0.69099   0.66129   0.00000  Uiso   1.00
O1395  O     0.62069   0.79667   0.33453   0.00000  Uiso   1.00
O1396  O     0.62923   0.85843   0.36004   0.00000  Uiso   1.00
O1397  O     0.56473   0.84007   0.33663   0.00000  Uiso   1.00
O1398  O     0.85050   0.95173   0.67046   0.00000  Uiso   1.00
O1399  O     0.87415   0.89903   0.63498   0.00000  Uiso   1.00
O1400  O     0.80919   0.89487   0.66156   0.00000  Uiso   1.00
O1401  O     0.96963   0.75000   0.33755   0.00000  Uiso   1.00
O1402  O     0.70850   0.62696   0.32855   0.00000  Uiso   1.00
O1403  O     0.64856   0.63826   0.35749   0.00000  Uiso   1.00
O1404  O     0.66498   0.57188   0.33915   0.00000  Uiso   1.00
O1405  O     0.55127   0.84932   0.66757   0.00000  Uiso   1.00
O1406  O     0.60591   0.87121   0.63444   0.00000  Uiso   1.00
O1407  O     0.60742   0.80678   0.66269   0.00000  Uiso   1.00
O1408  O     0.87928   0.70333   0.33452   0.00000  Uiso   1.00
O1409  O     0.87073   0.64156   0.36003   0.00000  Uiso   1.00
O1410  O     0.93524   0.65992   0.33663   0.00000  Uiso   1.00
O1411  O     0.64815   0.54800   0.67035   0.00000  Uiso   1.00
O1412  O     0.53036   0.75000   0.66245   0.00000  Uiso   1.00
O1413  O     0.62503   0.60134   0.63543   0.00000  Uiso   1.00
O1414  O     0.69028   0.60427   0.66140   0.00000  Uiso   1.00
O1415  O     0.79148   0.87302   0.32855   0.00000  Uiso   1.00
O1416  O     0.85142   0.86171   0.35749   0.00000  Uiso   1.00
O1417  O     0.83500   0.92809   0.33915   0.00000  Uiso   1.00
O1418  O     0.87272   0.79118   0.32775   0.00000  Uiso   1.00
O1419  O     0.81299   0.80466   0.29937   0.00000  Uiso   1.00
O1420  O     0.85935   0.76968   0.25694   0.00000  Uiso   1.00
O1421  O     0.56931   0.65095   0.65168   0.00000  Uiso   1.00
O1422  O     0.56149   0.58640   0.66842   0.00000  Uiso   1.00
O1423  O     0.50000   0.71963   0.83755   0.00000  Uiso   1.00
O1424  O     0.52377   0.63391   0.70610   0.00000  Uiso   1.00
O1425  O     0.79718   0.62030   0.33423   0.00000  Uiso   1.00
O1426  O     0.80940   0.68255   0.31262   0.00000  Uiso   1.00
O1427  O     0.77080   0.64158   0.26782   0.00000  Uiso   1.00
O1428  O     0.65438   0.92786   0.65084   0.00000  Uiso   1.00
O1429  O     0.58921   0.93580   0.66457   0.00000  Uiso   1.00
O1430  O     0.63514   0.97479   0.70306   0.00000  Uiso   1.00
O1431  O     0.62727   0.70880   0.32775   0.00000  Uiso   1.00
O1432  O     0.68700   0.69533   0.29938   0.00000  Uiso   1.00
O1433  O     0.64065   0.73032   0.25695   0.00000  Uiso   1.00
O1434  O     0.50000   0.78036   0.16245   0.00000  Uiso   1.00
O1435  O     0.92772   0.84820   0.64997   0.00000  Uiso   1.00
O1436  O     0.93821   0.91220   0.66739   0.00000  Uiso   1.00
O1437  O     0.97552   0.86346   0.70338   0.00000  Uiso   1.00
O1438  O     0.70279   0.87970   0.33425   0.00000  Uiso   1.00
O1439  O     0.69058   0.81745   0.31266   0.00000  Uiso   1.00
O1440  O     0.72919   0.85842   0.26784   0.00000  Uiso   1.00
O1441  O     0.84805   0.57119   0.65058   0.00000  Uiso   1.00
O1442  O     0.91248   0.56190   0.66701   0.00000  Uiso   1.00
O1443  O     0.86439   0.52436   0.70400   0.00000  Uiso   1.00
O1444  O     0.78036   0.50000   0.83755   0.00000  Uiso   1.00
O1445  O     0.71963   0.50000   0.16245   0.00000  Uiso   1.00
O1446  O     0.50000   0.78036   0.83755   0.00000  Uiso   1.00
O1447  O     0.50000   0.71963   0.16245   0.00000  Uiso   1.00
O1448  O     0.71963   0.50000   0.83755   0.00000  Uiso   1.00
O1449  O     0.75000   0.50000   0.75000   0.00000  Uiso   1.00
O1450  O     0.78036   0.50000   0.16245   0.00000  Uiso   1.00
O1451  O     0.70724   0.57307   0.27302   0.00000  Uiso   1.00
O1452  O     0.79275   0.92692   0.72698   0.00000  Uiso   1.00
O1453  O     0.92692   0.70724   0.27302   0.00000  Uiso   1.00
O1454  O     0.57307   0.79275   0.72698   0.00000  Uiso   1.00
O1455  O     0.79275   0.92692   0.27302   0.00000  Uiso   1.00
O1456  O     0.70724   0.57307   0.72698   0.00000  Uiso   1.00
O1457  O     0.57307   0.79275   0.27302   0.00000  Uiso   1.00
O1458  O     0.92692   0.70724   0.72698   0.00000  Uiso   1.00
O1459  O     0.70724   0.92692   0.72698   0.00000  Uiso   1.00
O1460  O     0.50000   0.75000   0.25000   0.00000  Uiso   1.00
O1461  O     0.79275   0.57307   0.27302   0.00000  Uiso   1.00
O1462  O     0.92692   0.79275   0.72698   0.00000  Uiso   1.00
O1463  O     0.57307   0.70724   0.27302   0.00000  Uiso   1.00
O1464  O     0.79275   0.57307   0.72698   0.00000  Uiso   1.00
O1465  O     0.70724   0.92692   0.27302   0.00000  Uiso   1.00
O1466  O     0.57307   0.70724   0.72698   0.00000  Uiso   1.00
O1467  O     0.92692   0.79275   0.27302   0.00000  Uiso   1.00
O1468  O     0.95724   0.82307   0.77302   0.00000  Uiso   1.00
O1469  O     0.54275   0.67692   0.22698   0.00000  Uiso   1.00
O1470  O     0.67692   0.95724   0.77302   0.00000  Uiso   1.00
O1471  O     0.50000   0.75000   0.75000   0.00000  Uiso   1.00
O1472  O     0.82307   0.54275   0.22698   0.00000  Uiso   1.00
O1473  O     0.54275   0.67692   0.77302   0.00000  Uiso   1.00
O1474  O     0.95724   0.82307   0.22698   0.00000  Uiso   1.00
O1475  O     0.82307   0.54275   0.77302   0.00000  Uiso   1.00
O1476  O     0.67692   0.95724   0.22698   0.00000  Uiso   1.00
O1477  O     0.95724   0.67692   0.22698   0.00000  Uiso   1.00
O1478  O     0.54275   0.82307   0.77302   0.00000  Uiso   1.00
O1479  O     0.67692   0.54275   0.22698   0.00000  Uiso   1.00
O1480  O     0.82307   0.95724   0.77302   0.00000  Uiso   1.00
O1481  O     0.54275   0.82307   0.22698   0.00000  Uiso   1.00
O1482  O     0.75000   0.96963   0.33755   0.00000  Uiso   1.00
O1483  O     0.95724   0.67692   0.77302   0.00000  Uiso   1.00
O1484  O     0.82307   0.95724   0.22698   0.00000  Uiso   1.00
O1485  O     0.67692   0.54275   0.77302   0.00000  Uiso   1.00
O1486  O     0.62969   0.95283   0.16577   0.00000  Uiso   1.00
O1487  O     0.56745   0.94061   0.18739   0.00000  Uiso   1.00
O1488  O     0.60843   0.97921   0.23219   0.00000  Uiso   1.00
O1489  O     0.82013   0.59695   0.84815   0.00000  Uiso   1.00
O1490  O     0.81333   0.66213   0.83380   0.00000  Uiso   1.00
O1491  O     0.77453   0.61648   0.79472   0.00000  Uiso   1.00
O1492  O     0.54120   0.62273   0.17225   0.00000  Uiso   1.00
O1493  O     0.75000   0.53036   0.66245   0.00000  Uiso   1.00
O1494  O     0.55467   0.56300   0.20062   0.00000  Uiso   1.00
O1495  O     0.51968   0.60935   0.24305   0.00000  Uiso   1.00
O1496  O     0.90174   0.82249   0.85020   0.00000  Uiso   1.00
O1497  O     0.83786   0.81166   0.83254   0.00000  Uiso   1.00
O1498  O     0.88689   0.77454   0.79682   0.00000  Uiso   1.00
O1499  O     0.87030   0.54720   0.16576   0.00000  Uiso   1.00
O1500  O     0.93255   0.55941   0.18736   0.00000  Uiso   1.00
O1501  O     0.89157   0.52080   0.23217   0.00000  Uiso   1.00
O1502  O     0.67784   0.90439   0.84916   0.00000  Uiso   1.00
O1503  O     0.68576   0.83921   0.83547   0.00000  Uiso   1.00
O1504  O     0.53036   0.75000   0.33755   0.00000  Uiso   1.00
O1505  O     0.72478   0.88512   0.79696   0.00000  Uiso   1.00
O1506  O     0.95880   0.87728   0.17224   0.00000  Uiso   1.00
O1507  O     0.94533   0.93701   0.20061   0.00000  Uiso   1.00
O1508  O     0.98031   0.89065   0.24305   0.00000  Uiso   1.00
O1509  O     0.59907   0.67832   0.84998   0.00000  Uiso   1.00
O1510  O     0.66279   0.68914   0.83167   0.00000  Uiso   1.00
O1511  O     0.61341   0.72591   0.79607   0.00000  Uiso   1.00
O1512  O     0.70272   0.60129   0.82881   0.00000  Uiso   1.00
O1513  O     0.65047   0.62526   0.86481   0.00000  Uiso   1.00
O1514  O     0.64599   0.56006   0.83894   0.00000  Uiso   1.00
O1515  O     0.96963   0.75000   0.66245   0.00000  Uiso   1.00
O1516  O     0.87697   0.95851   0.17144   0.00000  Uiso   1.00
O1517  O     0.88828   0.89857   0.14251   0.00000  Uiso   1.00
O1518  O     0.82190   0.91499   0.16085   0.00000  Uiso   1.00
O1519  O     0.59929   0.80129   0.83248   0.00000  Uiso   1.00
O1520  O     0.62116   0.85595   0.86556   0.00000  Uiso   1.00
O1521  O     0.55674   0.85744   0.83729   0.00000  Uiso   1.00
O1522  O     0.95333   0.62930   0.16548   0.00000  Uiso   1.00
O1523  O     0.89157   0.62076   0.13996   0.00000  Uiso   1.00
O1524  O     0.90993   0.68527   0.16337   0.00000  Uiso   1.00
O1525  O     0.79809   0.89947   0.82932   0.00000  Uiso   1.00
O1526  O     0.75000   0.53036   0.33755   0.00000  Uiso   1.00
O1527  O     0.85062   0.87573   0.86501   0.00000  Uiso   1.00
O1528  O     0.85496   0.94071   0.83854   0.00000  Uiso   1.00
O1529  O     0.62304   0.54150   0.17145   0.00000  Uiso   1.00
O1530  O     0.61174   0.60145   0.14251   0.00000  Uiso   1.00
O1531  O     0.67811   0.58502   0.16085   0.00000  Uiso   1.00
O1532  O     0.89915   0.69959   0.83197   0.00000  Uiso   1.00
O1533  O     0.87742   0.64488   0.86512   0.00000  Uiso   1.00
O1534  O     0.94223   0.64394   0.83783   0.00000  Uiso   1.00
O1535  O     0.54667   0.87072   0.16549   0.00000  Uiso   1.00
O1536  O     0.60843   0.87928   0.13997   0.00000  Uiso   1.00
S1537  S     0.60633   0.94428   0.20053   0.00000  Uiso   1.00
S1538  S     0.86631   0.91896   0.17233   0.00000  Uiso   1.00
S1539  S     0.59963   0.84221   0.83145   0.00000  Uiso   1.00
S1540  S     0.91403   0.64003   0.17021   0.00000  Uiso   1.00
S1541  S     0.83901   0.89834   0.83081   0.00000  Uiso   1.00
S1542  S     0.63369   0.58106   0.17233   0.00000  Uiso   1.00
S1543  S     0.89926   0.65867   0.83125   0.00000  Uiso   1.00
S1544  S     0.58597   0.86000   0.17021   0.00000  Uiso   1.00
S1545  S     0.91077   0.64835   0.66902   0.00000  Uiso   1.00
S1546  S     0.60997   0.83597   0.32980   0.00000  Uiso   1.00
S1547  S     0.85158   0.91080   0.66916   0.00000  Uiso   1.00
S1548  S     0.81483   0.62457   0.81636   0.00000  Uiso   1.00
S1549  S     0.66895   0.61631   0.32767   0.00000  Uiso   1.00
S1550  S     0.59219   0.84967   0.66856   0.00000  Uiso   1.00
S1551  S     0.89001   0.66402   0.32979   0.00000  Uiso   1.00
S1552  S     0.64770   0.58894   0.66929   0.00000  Uiso   1.00
S1553  S     0.83104   0.88367   0.32767   0.00000  Uiso   1.00
S1554  S     0.85312   0.80198   0.29109   0.00000  Uiso   1.00
S1555  S     0.56379   0.62445   0.68450   0.00000  Uiso   1.00
S1556  S     0.80573   0.64367   0.29948   0.00000  Uiso   1.00
S1557  S     0.62664   0.93416   0.68231   0.00000  Uiso   1.00
S1558  S     0.64687   0.69801   0.29109   0.00000  Uiso   1.00
S1559  S     0.55199   0.60313   0.20891   0.00000  Uiso   1.00
S1560  S     0.93514   0.87405   0.68300   0.00000  Uiso   1.00
S1561  S     0.69425   0.85633   0.29950   0.00000  Uiso   1.00
S1562  S     0.87451   0.56460   0.68321   0.00000  Uiso   1.00
S1563  S     0.87604   0.81490   0.81707   0.00000  Uiso   1.00
S1564  S     0.89367   0.55574   0.20051   0.00000  Uiso   1.00
S1565  S     0.68413   0.87664   0.81771   0.00000  Uiso   1.00
S1566  S     0.94801   0.89688   0.20890   0.00000  Uiso   1.00
S1567  S     0.62450   0.68572   0.81657   0.00000  Uiso   1.00
S1568  S     0.66181   0.60239   0.83069   0.00000  Uiso   1.00
Zn1569 Zn    0.70659   0.50000   0.21735   0.00000  Uiso   1.00
Zn1570 Zn    0.54340   0.75000   0.28265   0.00000  Uiso   1.00
Zn1571 Zn    0.75000   0.95659   0.71735   0.00000  Uiso   1.00
Zn1572 Zn    0.75000   0.54340   0.28265   0.00000  Uiso   1.00
Zn1573 Zn    0.54340   0.75000   0.71735   0.00000  Uiso   1.00
Zn1574 Zn    0.95659   0.75000   0.28265   0.00000  Uiso   1.00
Zn1575 Zn    0.75000   0.54340   0.71735   0.00000  Uiso   1.00
Zn1576 Zn    0.75000   0.95659   0.28265   0.00000  Uiso   1.00
Zn1577 Zn    0.79340   0.50000   0.78265   0.00000  Uiso   1.00
Zn1578 Zn    0.50000   0.70659   0.21735   0.00000  Uiso   1.00
Zn1579 Zn    0.50000   0.79340   0.78265   0.00000  Uiso   1.00
Zn1580 Zn    0.79340   0.50000   0.21735   0.00000  Uiso   1.00
Zn1581 Zn    0.70659   0.50000   0.78265   0.00000  Uiso   1.00
Zn1582 Zn    0.50000   0.79340   0.21735   0.00000  Uiso   1.00
Zn1583 Zn    0.50000   0.70659   0.78265   0.00000  Uiso   1.00
Zn1584 Zn    0.95659   0.75000   0.71735   0.00000  Uiso   1.00
loop_
_geom_bond_atom_site_label_1
_geom_bond_atom_site_label_2
_geom_bond_distance
_geom_bond_site_symmetry_2
_ccdc_geom_bond_type
C1     C4      1.393   .     A
C1     H180    1.085   .     S
C1     C46     1.403   .     S
C2     H190    1.085   .     S
C2     C14     1.393   .     A
C2     C844    1.403   1_545 S
C3     C115    1.393   .     A
C3     C58     1.402   .     A
C3     C830    1.411   .     A
C4     C59     1.402   .     A
C4     C34     1.411   .     S
C5     C432    1.411   .     A
C5     C49     1.393   .     A
C5     C61     1.402   .     A
C6     C62     1.402   .     A
C6     C60     1.393   .     A
C6     C829    1.411   .     A
C7     C63     1.402   .     A
C7     C71     1.393   .     A
C7     C38     1.411   .     S
C8     C35     1.393   .     A
C8     C64     1.402   .     A
C8     C831    1.411   1_545 S
C9     C65     1.402   .     A
C9     C43     1.393   .     A
C9     C40     1.411   .     A
C10    C66     1.402   .     A
C10    C44     1.393   .     A
C10    C41     1.411   .     S
C11    C438    1.411   .     A
C11    C45     1.393   .     A
C11    C67     1.402   .     A
C12    C126    1.393   .     A
C12    C68     1.402   .     A
C12    C39     1.411   .     A
C13    C15     1.393   .     A
C13    H191    1.084   .     S
C13    C449    1.403   .     S
C14    C69     1.402   .     A
C14    C832    1.411   1_545 S
C15    C70     1.402   .     A
C15    C437    1.411   .     A
C16    C72     1.402   .     A
C16    C24     1.393   .     A
C16    C42     1.411   .     S
C17    C118    1.412   .     A
C17    C88     1.451   .     S
C17    C116    1.412   .     A
C18    C89     1.467   .     S
C18    C117    1.424   .     A
C18    C114    1.423   .     A
C19    C113    1.416   .     A
C19    C120    1.415   .     A
C19    C81     1.455   .     S
C20    C112    1.423   .     A
C20    C119    1.423   .     A
C20    C83     1.468   .     S
C21    C122    1.412   .     A
C21    C111    1.412   .     A
C21    C84     1.451   .     S
C22    C85     1.468   .     S
C22    C110    1.424   .     A
C22    C121    1.424   .     A
C23    C86     1.455   .     S
C23    C109    1.416   .     A
C23    C124    1.416   .     A
C24    H193    1.085   .     S
C24    C54     1.403   .     S
C25    C123    1.422   .     A
C25    C87     1.468   .     S
C25    C108    1.423   .     A
C26    C127    1.409   .     A
C26    C97     1.451   .     S
C26    C107    1.410   .     A
C27    C106    1.422   .     A
C27    C125    1.422   .     A
C27    C98     1.462   .     S
C28    C90     1.451   .     S
C28    C129    1.408   .     A
C28    C105    1.408   .     A
C29    C91     1.466   .     S
C29    C103    1.425   .     A
C29    C128    1.425   .     A
C30    C131    1.409   .     A
C30    C102    1.410   .     A
C30    C92     1.451   .     S
C31    C101    1.422   .     A
C31    C130    1.422   .     A
C31    C94     1.462   .     S
C32    C133    1.409   .     A
C32    C100    1.407   .     A
C32    C95     1.452   .     S
C33    C99     1.425   .     A
C33    C132    1.425   .     A
C33    C96     1.466   .     S
C34    C530    1.411   1_455 A
C34    C36     1.401   .     A
C35    H194    1.084   .     S
C35    C843    1.403   1_545 S
C36    C401    1.411   1_455 A
C36    C135    1.411   .     S
C37    C38     1.401   .     A
C37    C798    1.411   1_545 A
C37    C136    1.411   .     S
C38    C795    1.411   1_545 A
C39    C800    1.411   .     S
C39    C40     1.401   1_556 S
C40    C806    1.411   .     S
C40    C39     1.401   1_554 S
C41    C411    1.411   1_455 A
C41    C42     1.401   1_556 S
C42    C407    1.411   1_455 A
C42    C41     1.401   1_554 S
C43    C52     1.403   .     A
C43    H195    1.085   .     S
C44    C53     1.403   .     A
C44    H196    1.084   .     S
C45    H197    1.085   .     S
C45    C450    1.403   .     A
C46    C478    1.403   1_455 A
C46    C75     1.459   .     S
C47    C445    1.403   1_455 A
C47    C76     1.459   .     S
C47    C93     1.403   .     S
C48    C73     1.459   .     S
C48    C852    1.403   1_545 A
C48    C104    1.403   .     S
C49    C443    1.403   .     A
C49    H182    1.084   .     S
C50    C74     1.459   .     S
C50    C71     1.403   .     A
C50    C907    1.403   1_545 S
C51    C126    1.403   .     A
C51    C871    1.459   .     S
C51    C827    1.403   .     S
C52    C872    1.459   .     S
C52    C794    1.403   .     S
C53    C77     1.459   .     S
C53    C409    1.403   1_455 S
C54    C78     1.459   .     S
C54    C441    1.403   1_455 A
C55    H137    1.084   .     S
C55    C61     1.394   .     A
C55    C134    1.402   .     A
C56    C59     1.394   .     A
C56    H148    1.084   .     S
C56    C135    1.402   .     A
C57    H159    1.084   .     S
C57    C63     1.394   .     A
C57    C136    1.402   .     A
C58    C62     1.394   .     A
C58    H170    1.084   .     S
C59    H181    1.084   .     S
C60    H183    1.085   .     S
C60    C840    1.403   .     A
C61    H192    1.084   .     S
C62    H198    1.084   .     S
C63    H199    1.084   .     S
C64    H200    1.084   .     S
C64    C69     1.394   1_556 S
C65    H138    1.084   .     S
C65    C68     1.394   1_554 S
C66    H139    1.084   .     S
C66    C72     1.394   1_556 S
C67    H140    1.084   .     S
C67    C70     1.394   1_554 S
C68    H141    1.084   .     S
C68    C65     1.394   1_556 S
C69    H142    1.084   .     S
C69    C64     1.394   1_554 S
C70    H143    1.084   .     S
C70    C67     1.394   1_556 S
C71    H184    1.084   .     S
C72    H144    1.084   .     S
C72    C66     1.394   1_554 S
C73    O1086   1.281   1_545 A
C73    O338    1.281   .     S
C74    O305    1.281   .     A
C74    O994    1.281   1_545 S
C75    O609    1.281   1_455 A
C75    O316    1.281   .     S
C76    O224    1.281   .     A
C76    O723    1.281   1_455 S
C77    O258    1.281   .     A
C77    O235    1.281   .     S
C78    O246    1.281   .     S
C78    O259    1.281   .     S
C79    C843    1.459   1_545 S
C79    O256    1.281   .     S
C79    O260    1.281   .     S
C80    C844    1.459   1_545 S
C80    O257    1.281   .     S
C80    O262    1.281   .     S
C81    O263    1.280   .     A
C81    O291    1.280   .     A
C82    H185    1.085   .     S
C82    C134    1.393   .     A
C82    C442    1.403   .     A
C83    O292    1.283   .     A
C83    O264    1.283   .     A
C84    O289    1.279   .     A
C84    O265    1.279   .     A
C85    O290    1.283   .     A
C85    O266    1.283   .     A
C86    O296    1.280   .     A
C86    O267    1.280   .     A
C87    O268    1.282   .     A
C87    O297    1.283   .     A
C88    O269    1.279   .     A
C88    O293    1.279   .     A
C89    O270    1.284   .     A
C89    O295    1.282   .     A
C90    O282    1.278   .     A
C90    O271    1.278   .     A
C91    O273    1.284   .     A
C91    O284    1.284   .     A
C92    O280    1.278   .     A
C92    O274    1.278   .     A
C93    H186    1.084   .     S
C93    C135    1.393   .     A
C94    O281    1.282   .     A
C94    O275    1.282   .     A
C95    O276    1.278   .     A
C95    O287    1.278   .     A
C96    O277    1.284   .     A
C96    O288    1.283   .     A
C97    O278    1.279   .     A
C97    O285    1.278   .     A
C98    O279    1.282   .     A
C98    O286    1.282   .     A
C99    S349    1.790   .     S
C99    C116    1.393   .     A
C100   C114    1.408   .     A
C100   S360    1.787   .     S
C101   C113    1.392   .     A
C101   S371    1.789   .     S
C102   C112    1.411   .     A
C102   S375    1.789   .     S
C103   C111    1.393   .     A
C103   S376    1.790   .     S
C104   C136    1.393   .     A
C104   H187    1.085   .     S
C105   C110    1.409   .     A
C105   S377    1.788   .     S
C106   S378    1.789   .     S
C106   C109    1.392   .     A
C107   S379    1.789   .     S
C107   C108    1.412   .     A
C108   S380    1.797   .     S
C109   S350    1.787   .     S
C110   S351    1.797   .     S
C111   S352    1.787   .     S
C112   S353    1.798   .     S
C113   S354    1.787   .     S
C114   S355    1.796   .     S
C115   H188    1.084   .     S
C115   C842    1.403   .     S
C116   S356    1.787   .     S
C117   C133    1.411   .     A
C117   S357    1.797   .     S
C118   C132    1.393   .     A
C118   S358    1.787   .     S
C119   S359    1.798   .     S
C119   C131    1.411   .     A
C120   S361    1.787   .     S
C120   C130    1.392   .     A
C121   S362    1.797   .     S
C121   C129    1.409   .     A
C122   S363    1.787   .     S
C122   C128    1.393   .     A
C123   C127    1.410   .     A
C123   S364    1.796   .     S
C124   S365    1.787   .     S
C124   C125    1.392   .     A
C125   S366    1.789   .     S
C126   H189    1.084   .     S
C127   S367    1.788   .     S
C128   S368    1.790   .     S
C129   S369    1.788   .     S
C130   S370    1.789   .     S
C131   S372    1.789   .     S
C132   S373    1.790   .     S
C133   S374    1.788   .     S
C134   C430    1.411   .     A
H145   O300    0.991   .     S
H146   O303    0.991   .     S
H147   O703    0.991   .     S
H149   O310    0.991   .     S
H150   O313    0.990   .     S
H151   O317    0.991   .     S
H152   O716    0.991   1_455 S
H153   O323    0.991   .     S
H154   O326    0.991   .     S
H155   O330    0.991   .     S
H156   O333    0.991   .     S
H157   O336    0.991   .     S
H158   O340    0.991   .     S
H160   O343    0.991   .     S
H161   O346    0.991   .     S
H162   O203    0.991   .     S
H163   O206    0.991   .     S
H164   O209    0.991   .     S
H165   O212    0.991   .     S
H166   O216    0.991   .     S
H167   O219    0.991   .     S
H168   O222    0.991   .     S
H169   O226    0.991   .     S
H171   O229    0.991   .     S
H172   O232    0.991   .     S
H173   O236    0.991   .     S
H174   O239    0.991   .     S
H175   O242    0.991   .     S
H176   O245    0.991   .     S
H177   O249    0.991   .     S
H178   O252    0.990   .     S
H179   O255    0.991   .     S
O201   Zn384   1.948   .     S
O201   Zn381   1.948   .     S
O201   Zn392   1.948   .     S
O201   Zn1180  1.948   1_545 S
O202   Zn383   1.946   .     S
O202   C866    1.281   .     S
O203   S356    1.683   .     S
O204   S357    1.502   .     D
O205   S357    1.501   .     D
O206   S357    1.682   .     S
O207   S358    1.504   .     D
O208   S358    1.503   .     D
O209   S358    1.683   .     S
O210   S359    1.503   .     D
O211   S359    1.501   .     D
O212   S359    1.682   .     S
O213   Zn386   1.947   .     S
O213   C471    1.281   .     A
O214   S361    1.503   .     D
O215   S361    1.503   .     D
O216   S361    1.683   .     S
O217   S362    1.502   .     D
O218   S362    1.501   .     D
O219   S362    1.682   .     S
O220   S363    1.504   .     D
O221   S363    1.503   .     D
O222   S363    1.683   .     S
O223   S364    1.503   .     D
O224   Zn385   1.947   .     S
O225   S364    1.501   .     D
O226   S364    1.682   .     S
O227   S365    1.503   .     D
O228   S365    1.503   .     D
O229   S365    1.683   .     S
O230   S366    1.504   .     D
O231   S366    1.503   .     D
O232   S366    1.683   .     S
O233   S367    1.503   .     D
O234   S367    1.504   .     D
O235   Zn395   1.947   .     S
O236   S367    1.682   .     S
O237   S368    1.503   .     D
O238   S368    1.503   .     D
O239   S368    1.683   .     S
O240   S369    1.503   .     D
O241   S369    1.504   .     D
O242   S369    1.682   .     S
O243   S370    1.504   .     D
O244   S370    1.503   .     D
O245   S370    1.683   .     S
O246   Zn394   1.947   .     S
O247   S372    1.504   .     D
O248   S372    1.503   .     D
O249   S372    1.684   .     S
O250   S373    1.503   .     D
O251   S373    1.503   .     D
O252   S373    1.683   .     S
O253   S374    1.503   .     D
O254   S374    1.504   .     D
O255   S374    1.682   .     S
O256   Zn389   1.947   .     S
O257   Zn381   1.947   .     S
O258   Zn391   1.946   .     S
O259   Zn390   1.946   .     S
O260   Zn393   1.947   .     S
O261   Zn387   1.948   .     S
O261   Zn1175  1.948   1_545 S
O261   Zn389   1.948   .     S
O261   Zn393   1.948   .     S
O262   Zn392   1.947   .     S
O263   Zn384   1.938   .     S
O264   Zn383   1.938   .     S
O265   Zn386   1.938   .     S
O266   Zn385   1.938   .     S
O267   Zn388   1.938   .     S
O268   Zn387   1.938   .     S
O269   Zn382   1.938   .     S
O270   Zn396   1.938   .     S
O271   Zn383   1.938   .     S
O272   Zn382   1.948   .     S
O272   Zn394   1.948   .     S
O272   Zn390   1.948   .     S
O272   Zn782   1.948   1_455 S
O273   Zn384   1.938   .     S
O274   Zn396   1.938   .     S
O275   Zn382   1.938   .     S
O276   Zn387   1.938   .     S
O277   Zn388   1.938   .     S
O278   Zn385   1.938   .     S
O279   Zn386   1.938   .     S
O280   Zn787   1.938   .     S
O281   Zn390   1.938   .     S
O282   Zn1185  1.938   .     S
O283   Zn385   1.948   .     S
O283   Zn391   1.948   .     S
O283   Zn395   1.948   .     S
O283   Zn792   1.948   1_455 S
O284   Zn392   1.938   .     S
O285   Zn395   1.938   .     S
O286   Zn790   1.938   .     S
O287   Zn389   1.938   .     S
O288   Zn1173  1.938   .     S
O289   Zn786   1.938   .     S
O290   Zn391   1.938   .     S
O291   Zn381   1.938   .     S
O292   Zn1181  1.938   .     S
O293   Zn394   1.938   .     S
O294   C865    1.281   .     A
O294   Zn388   1.947   .     S
O295   Zn791   1.938   .     S
O296   Zn1184  1.938   .     S
O297   Zn393   1.938   .     S
O298   S349    1.503   .     D
O299   S349    1.503   .     D
O300   S349    1.683   .     S
O301   S360    1.503   .     D
O302   S360    1.504   .     D
O303   S360    1.682   .     S
O304   S371    1.504   .     D
O305   Zn387   1.947   .     S
O306   S371    1.503   .     D
O307   S371    1.683   .     S
O307   H543    0.991   1_455 S
O308   S375    1.504   .     D
O309   S375    1.503   .     D
O310   S375    1.684   .     S
O311   S376    1.503   .     D
O312   S376    1.503   .     D
O313   S376    1.683   .     S
O314   S377    1.503   .     D
O315   S377    1.504   .     D
O316   Zn382   1.947   .     S
O317   S377    1.682   .     S
O318   S378    1.504   .     D
O319   S378    1.503   .     D
O320   S378    1.683   .     S
O320   H548    0.991   .     S
O321   S379    1.504   .     D
O322   S379    1.503   .     D
O323   S379    1.684   .     S
O324   S380    1.503   .     D
O325   S380    1.501   .     D
O326   S380    1.682   .     S
O327   Zn396   1.947   .     S
O327   C472    1.281   .     S
O328   S350    1.503   .     D
O329   S350    1.503   .     D
O330   S350    1.683   .     S
O331   S351    1.502   .     D
O332   S351    1.501   .     D
O333   S351    1.682   .     S
O334   S352    1.504   .     D
O335   S352    1.503   .     D
O336   S352    1.683   .     S
O337   S353    1.503   .     D
O338   Zn384   1.946   .     S
O339   S353    1.501   .     D
O340   S353    1.682   .     S
O341   S354    1.503   .     D
O342   S354    1.503   .     D
O343   S354    1.683   .     S
O344   S355    1.501   .     D
O345   S355    1.501   .     D
O346   S355    1.682   .     S
O347   S356    1.504   .     D
O348   S356    1.503   .     D
Zn381  O1080   1.938   1_545 S
Zn383  O1053   1.948   .     S
Zn386  O668    1.948   .     S
Zn388  O993    1.948   .     S
Zn389  O1084   1.938   1_545 S
Zn390  O685    1.938   1_455 S
Zn391  O676    1.938   1_455 S
Zn392  O1088   1.938   1_545 S
Zn393  O1074   1.938   1_545 S
Zn394  O682    1.938   1_455 S
Zn395  O691    1.938   1_455 S
Zn396  O679    1.948   .     S
C397   C400    1.393   .     A
C397   H576    1.085   .     S
C397   C442    1.403   .     S
C398   H586    1.085   .     S
C398   C410    1.393   .     A
C398   C1240   1.403   1_545 S
C399   C511    1.393   .     A
C399   C454    1.402   .     A
C399   C1226   1.411   .     A
C400   C455    1.402   .     A
C400   C430    1.411   .     S
C401   C36     1.411   1_655 A
C401   C445    1.393   .     A
C401   C457    1.402   .     A
C402   C458    1.402   .     A
C402   C456    1.393   .     A
C402   C1225   1.411   .     A
C403   C459    1.402   .     A
C403   C467    1.393   .     A
C403   C434    1.411   .     S
C404   C431    1.393   .     A
C404   C460    1.402   .     A
C404   C1227   1.411   1_545 S
C405   C461    1.402   .     A
C405   C439    1.393   .     A
C405   C436    1.411   .     A
C406   C462    1.402   .     A
C406   C440    1.393   .     A
C406   C437    1.411   .     S
C407   C42     1.411   1_655 A
C407   C441    1.393   .     A
C407   C463    1.402   .     A
C408   C522    1.393   .     A
C408   C464    1.402   .     A
C408   C435    1.411   .     A
C409   C411    1.393   .     A
C409   H587    1.084   .     S
C409   C53     1.403   1_655 S
C410   C465    1.402   .     A
C410   C1228   1.411   1_545 S
C411   C466    1.402   .     A
C411   C41     1.411   1_655 A
C412   C468    1.402   .     A
C412   C420    1.393   .     A
C412   C438    1.411   .     S
C413   C514    1.412   .     A
C413   C484    1.451   .     S
C413   C512    1.412   .     A
C414   C485    1.467   .     S
C414   C513    1.424   .     A
C414   C510    1.423   .     A
C415   C509    1.416   .     A
C415   C516    1.415   .     A
C415   C477    1.455   .     S
C416   C508    1.423   .     A
C416   C515    1.423   .     A
C416   C479    1.468   .     S
C417   C518    1.412   .     A
C417   C507    1.412   .     A
C417   C480    1.451   .     S
C418   C481    1.468   .     S
C418   C506    1.424   .     A
C418   C517    1.424   .     A
C419   C482    1.455   .     S
C419   C505    1.416   .     A
C419   C520    1.416   .     A
C420   H589    1.085   .     S
C420   C450    1.403   .     S
C421   C519    1.422   .     A
C421   C483    1.468   .     S
C421   C504    1.423   .     A
C422   C523    1.409   .     A
C422   C493    1.451   .     S
C422   C503    1.410   .     A
C423   C502    1.422   .     A
C423   C521    1.422   .     A
C423   C494    1.462   .     S
C424   C486    1.451   .     S
C424   C525    1.408   .     A
C424   C501    1.408   .     A
C425   C487    1.466   .     S
C425   C499    1.425   .     A
C425   C524    1.425   .     A
C426   C527    1.409   .     A
C426   C498    1.410   .     A
C426   C488    1.451   .     S
C427   C497    1.422   .     A
C427   C526    1.422   .     A
C427   C490    1.462   .     S
C428   C529    1.409   .     A
C428   C496    1.407   .     A
C428   C491    1.452   .     S
C429   C495    1.425   .     A
C429   C528    1.425   .     A
C429   C492    1.466   .     S
C430   C432    1.401   .     A
C431   H590    1.084   .     S
C431   C1239   1.403   1_545 S
C432   C531    1.411   .     S
C433   C434    1.401   .     A
C433   C1194   1.411   1_545 A
C433   C532    1.411   .     S
C434   C1191   1.411   1_545 A
C435   C1196   1.411   .     S
C435   C436    1.401   1_556 S
C436   C1202   1.411   .     S
C436   C435    1.401   1_554 S
C437   C438    1.401   1_556 S
C438   C437    1.401   1_554 S
C439   C448    1.403   .     A
C439   H591    1.085   .     S
C440   C449    1.403   .     A
C440   H592    1.084   .     S
C441   H593    1.085   .     S
C441   C54     1.403   1_655 A
C442   C471    1.459   .     S
C443   C472    1.459   .     S
C443   C489    1.403   .     S
C444   C469    1.459   .     S
C444   C1248   1.403   1_545 A
C444   C500    1.403   .     S
C445   C47     1.403   1_655 A
C445   H578    1.084   .     S
C446   C470    1.459   .     S
C446   C467    1.403   .     A
C446   C1303   1.403   1_545 S
C447   C522    1.403   .     A
C447   C1267   1.459   .     S
C447   C1223   1.403   .     S
C448   C1268   1.459   .     S
C448   C1190   1.403   .     S
C449   C473    1.459   .     S
C450   C474    1.459   .     S
C451   H533    1.084   .     S
C451   C457    1.394   .     A
C451   C530    1.402   .     A
C452   C455    1.394   .     A
C452   H544    1.084   .     S
C452   C531    1.402   .     A
C453   H555    1.084   .     S
C453   C459    1.394   .     A
C453   C532    1.402   .     A
C454   C458    1.394   .     A
C454   H566    1.084   .     S
C455   H577    1.084   .     S
C456   H579    1.085   .     S
C456   C1236   1.403   .     A
C457   H588    1.084   .     S
C458   H594    1.084   .     S
C459   H595    1.084   .     S
C460   H596    1.084   .     S
C460   C465    1.394   1_556 S
C461   H534    1.084   .     S
C461   C464    1.394   1_554 S
C462   H535    1.084   .     S
C462   C468    1.394   1_556 S
C463   H536    1.084   .     S
C463   C466    1.394   1_554 S
C464   H537    1.084   .     S
C464   C461    1.394   1_556 S
C465   H538    1.084   .     S
C465   C460    1.394   1_554 S
C466   H539    1.084   .     S
C466   C463    1.394   1_556 S
C467   H580    1.084   .     S
C468   H540    1.084   .     S
C468   C462    1.394   1_554 S
C469   O1482   1.281   1_545 A
C469   O734    1.281   .     S
C470   O701    1.281   .     A
C470   O1390   1.281   1_545 S
C471   O712    1.281   .     S
C472   O620    1.281   .     A
C473   O654    1.281   .     A
C473   O631    1.281   .     S
C474   O642    1.281   .     S
C474   O655    1.281   .     S
C475   C1239   1.459   1_545 S
C475   O652    1.281   .     S
C475   O656    1.281   .     S
C476   C1240   1.459   1_545 S
C476   O653    1.281   .     S
C476   O658    1.281   .     S
C477   O659    1.280   .     A
C477   O687    1.280   .     A
C478   H581    1.085   .     S
C478   C530    1.393   .     A
C478   C46     1.403   1_655 A
C479   O688    1.283   .     A
C479   O660    1.283   .     A
C480   O685    1.279   .     A
C480   O661    1.279   .     A
C481   O686    1.283   .     A
C481   O662    1.283   .     A
C482   O692    1.280   .     A
C482   O663    1.280   .     A
C483   O664    1.282   .     A
C483   O693    1.283   .     A
C484   O665    1.279   .     A
C484   O689    1.279   .     A
C485   O666    1.284   .     A
C485   O691    1.282   .     A
C486   O678    1.278   .     A
C486   O667    1.278   .     A
C487   O669    1.284   .     A
C487   O680    1.284   .     A
C488   O676    1.278   .     A
C488   O670    1.278   .     A
C489   H582    1.084   .     S
C489   C531    1.393   .     A
C490   O677    1.282   .     A
C490   O671    1.282   .     A
C491   O672    1.278   .     A
C491   O683    1.278   .     A
C492   O673    1.284   .     A
C492   O684    1.283   .     A
C493   O674    1.279   .     A
C493   O681    1.278   .     A
C494   O675    1.282   .     A
C494   O682    1.282   .     A
C495   S745    1.790   .     S
C495   C512    1.393   .     A
C496   C510    1.408   .     A
C496   S756    1.787   .     S
C497   C509    1.392   .     A
C497   S767    1.789   .     S
C498   C508    1.411   .     A
C498   S771    1.789   .     S
C499   C507    1.393   .     A
C499   S772    1.790   .     S
C500   C532    1.393   .     A
C500   H583    1.085   .     S
C501   C506    1.409   .     A
C501   S773    1.788   .     S
C502   S774    1.789   .     S
C502   C505    1.392   .     A
C503   S775    1.789   .     S
C503   C504    1.412   .     A
C504   S776    1.797   .     S
C505   S746    1.787   .     S
C506   S747    1.797   .     S
C507   S748    1.787   .     S
C508   S749    1.798   .     S
C509   S750    1.787   .     S
C510   S751    1.796   .     S
C511   H584    1.084   .     S
C511   C1238   1.403   .     S
C512   S752    1.787   .     S
C513   C529    1.411   .     A
C513   S753    1.797   .     S
C514   C528    1.393   .     A
C514   S754    1.787   .     S
C515   S755    1.798   .     S
C515   C527    1.411   .     A
C516   S757    1.787   .     S
C516   C526    1.392   .     A
C517   S758    1.797   .     S
C517   C525    1.409   .     A
C518   S759    1.787   .     S
C518   C524    1.393   .     A
C519   C523    1.410   .     A
C519   S760    1.796   .     S
C520   S761    1.787   .     S
C520   C521    1.392   .     A
C521   S762    1.789   .     S
C522   H585    1.084   .     S
C523   S763    1.788   .     S
C524   S764    1.790   .     S
C525   S765    1.788   .     S
C526   S766    1.789   .     S
C527   S768    1.789   .     S
C528   S769    1.790   .     S
C529   S770    1.788   .     S
C530   C34     1.411   1_655 A
H541   O696    0.991   .     S
H542   O699    0.991   .     S
H543   O307    0.991   1_655 S
H545   O706    0.991   .     S
H546   O709    0.990   .     S
H547   O713    0.991   .     S
H549   O719    0.991   .     S
H550   O722    0.991   .     S
H551   O726    0.991   .     S
H552   O729    0.991   .     S
H553   O732    0.991   .     S
H554   O736    0.991   .     S
H556   O739    0.991   .     S
H557   O742    0.991   .     S
H558   O599    0.991   .     S
H559   O602    0.991   .     S
H560   O605    0.991   .     S
H561   O608    0.991   .     S
H562   O612    0.991   .     S
H563   O615    0.991   .     S
H564   O618    0.991   .     S
H565   O622    0.991   .     S
H567   O625    0.991   .     S
H568   O628    0.991   .     S
H569   O632    0.991   .     S
H570   O635    0.991   .     S
H571   O638    0.991   .     S
H572   O641    0.991   .     S
H573   O645    0.991   .     S
H574   O648    0.990   .     S
H575   O651    0.991   .     S
O597   Zn780   1.948   .     S
O597   Zn777   1.948   .     S
O597   Zn788   1.948   .     S
O597   Zn1576  1.948   1_545 S
O598   Zn779   1.946   .     S
O598   C1262   1.281   .     S
O599   S752    1.683   .     S
O600   S753    1.502   .     D
O601   S753    1.501   .     D
O602   S753    1.682   .     S
O603   S754    1.504   .     D
O604   S754    1.503   .     D
O605   S754    1.683   .     S
O606   S755    1.503   .     D
O607   S755    1.501   .     D
O608   S755    1.682   .     S
O609   Zn782   1.947   .     S
O609   C75     1.281   1_655 A
O610   S757    1.503   .     D
O611   S757    1.503   .     D
O612   S757    1.683   .     S
O613   S758    1.502   .     D
O614   S758    1.501   .     D
O615   S758    1.682   .     S
O616   S759    1.504   .     D
O617   S759    1.503   .     D
O618   S759    1.683   .     S
O619   S760    1.503   .     D
O620   Zn781   1.947   .     S
O621   S760    1.501   .     D
O622   S760    1.682   .     S
O623   S761    1.503   .     D
O624   S761    1.503   .     D
O625   S761    1.683   .     S
O626   S762    1.504   .     D
O627   S762    1.503   .     D
O628   S762    1.683   .     S
O629   S763    1.503   .     D
O630   S763    1.504   .     D
O631   Zn791   1.947   .     S
O632   S763    1.682   .     S
O633   S764    1.503   .     D
O634   S764    1.503   .     D
O635   S764    1.683   .     S
O636   S765    1.503   .     D
O637   S765    1.504   .     D
O638   S765    1.682   .     S
O639   S766    1.504   .     D
O640   S766    1.503   .     D
O641   S766    1.683   .     S
O642   Zn790   1.947   .     S
O643   S768    1.504   .     D
O644   S768    1.503   .     D
O645   S768    1.684   .     S
O646   S769    1.503   .     D
O647   S769    1.503   .     D
O648   S769    1.683   .     S
O649   S770    1.503   .     D
O650   S770    1.504   .     D
O651   S770    1.682   .     S
O652   Zn785   1.947   .     S
O653   Zn777   1.947   .     S
O654   Zn787   1.946   .     S
O655   Zn786   1.946   .     S
O656   Zn789   1.947   .     S
O657   Zn783   1.948   .     S
O657   Zn1571  1.948   1_545 S
O657   Zn785   1.948   .     S
O657   Zn789   1.948   .     S
O658   Zn788   1.947   .     S
O659   Zn780   1.938   .     S
O660   Zn779   1.938   .     S
O661   Zn782   1.938   .     S
O662   Zn781   1.938   .     S
O663   Zn784   1.938   .     S
O664   Zn783   1.938   .     S
O665   Zn778   1.938   .     S
O666   Zn792   1.938   .     S
O667   Zn779   1.938   .     S
O668   Zn778   1.948   .     S
O668   Zn790   1.948   .     S
O668   Zn786   1.948   .     S
O669   Zn780   1.938   .     S
O670   Zn792   1.938   .     S
O671   Zn778   1.938   .     S
O672   Zn783   1.938   .     S
O673   Zn784   1.938   .     S
O674   Zn781   1.938   .     S
O675   Zn782   1.938   .     S
O676   Zn391   1.938   1_655 S
O677   Zn786   1.938   .     S
O678   Zn1581  1.938   .     S
O679   Zn781   1.948   .     S
O679   Zn787   1.948   .     S
O679   Zn791   1.948   .     S
O680   Zn788   1.938   .     S
O681   Zn791   1.938   .     S
O682   Zn394   1.938   1_655 S
O683   Zn785   1.938   .     S
O684   Zn1569  1.938   .     S
O685   Zn390   1.938   1_655 S
O686   Zn787   1.938   .     S
O687   Zn777   1.938   .     S
O688   Zn1577  1.938   .     S
O689   Zn790   1.938   .     S
O690   C1261   1.281   .     A
O690   Zn784   1.947   .     S
O691   Zn395   1.938   1_655 S
O692   Zn1580  1.938   .     S
O693   Zn789   1.938   .     S
O694   S745    1.503   .     D
O695   S745    1.503   .     D
O696   S745    1.683   .     S
O697   S756    1.503   .     D
O698   S756    1.504   .     D
O699   S756    1.682   .     S
O700   S767    1.504   .     D
O701   Zn783   1.947   .     S
O702   S767    1.503   .     D
O703   S767    1.683   .     S
O704   S771    1.504   .     D
O705   S771    1.503   .     D
O706   S771    1.684   .     S
O707   S772    1.503   .     D
O708   S772    1.503   .     D
O709   S772    1.683   .     S
O710   S773    1.503   .     D
O711   S773    1.504   .     D
O712   Zn778   1.947   .     S
O713   S773    1.682   .     S
O714   S774    1.504   .     D
O715   S774    1.503   .     D
O716   S774    1.683   .     S
O716   H152    0.991   1_655 S
O717   S775    1.504   .     D
O718   S775    1.503   .     D
O719   S775    1.684   .     S
O720   S776    1.503   .     D
O721   S776    1.501   .     D
O722   S776    1.682   .     S
O723   Zn792   1.947   .     S
O723   C76     1.281   1_655 S
O724   S746    1.503   .     D
O725   S746    1.503   .     D
O726   S746    1.683   .     S
O727   S747    1.502   .     D
O728   S747    1.501   .     D
O729   S747    1.682   .     S
O730   S748    1.504   .     D
O731   S748    1.503   .     D
O732   S748    1.683   .     S
O733   S749    1.503   .     D
O734   Zn780   1.946   .     S
O735   S749    1.501   .     D
O736   S749    1.682   .     S
O737   S750    1.503   .     D
O738   S750    1.503   .     D
O739   S750    1.683   .     S
O740   S751    1.501   .     D
O741   S751    1.501   .     D
O742   S751    1.682   .     S
O743   S752    1.504   .     D
O744   S752    1.503   .     D
Zn777  O1476   1.938   1_545 S
Zn779  O1449   1.948   .     S
Zn782  O272    1.948   1_655 S
Zn784  O1389   1.948   .     S
Zn785  O1480   1.938   1_545 S
Zn788  O1484   1.938   1_545 S
Zn789  O1470   1.938   1_545 S
Zn792  O283    1.948   1_655 S
C793   C796    1.393   .     A
C793   H972    1.085   .     S
C793   C838    1.403   .     S
C794   H982    1.085   .     S
C794   C806    1.393   .     A
C795   C907    1.393   .     A
C795   C850    1.402   .     A
C795   C38     1.411   1_565 A
C796   C851    1.402   .     A
C796   C826    1.411   .     S
C797   C1224   1.411   .     A
C797   C841    1.393   .     A
C797   C853    1.402   .     A
C798   C854    1.402   .     A
C798   C852    1.393   .     A
C798   C37     1.411   1_565 A
C799   C855    1.402   .     A
C799   C863    1.393   .     A
C799   C830    1.411   .     S
C800   C827    1.393   .     A
C800   C856    1.402   .     A
C801   C857    1.402   .     A
C801   C835    1.393   .     A
C801   C832    1.411   .     A
C802   C858    1.402   .     A
C802   C836    1.393   .     A
C802   C833    1.411   .     S
C803   C1230   1.411   .     A
C803   C837    1.393   .     A
C803   C859    1.402   .     A
C804   C918    1.393   .     A
C804   C860    1.402   .     A
C804   C831    1.411   .     A
C805   C807    1.393   .     A
C805   H983    1.084   .     S
C805   C1241   1.403   .     S
C806   C861    1.402   .     A
C807   C862    1.402   .     A
C807   C1229   1.411   .     A
C808   C864    1.402   .     A
C808   C816    1.393   .     A
C808   C834    1.411   .     S
C809   C910    1.412   .     A
C809   C880    1.451   .     S
C809   C908    1.412   .     A
C810   C881    1.467   .     S
C810   C909    1.424   .     A
C810   C906    1.423   .     A
C811   C905    1.416   .     A
C811   C912    1.415   .     A
C811   C873    1.455   .     S
C812   C904    1.423   .     A
C812   C911    1.423   .     A
C812   C875    1.468   .     S
C813   C914    1.412   .     A
C813   C903    1.412   .     A
C813   C876    1.451   .     S
C814   C877    1.468   .     S
C814   C902    1.424   .     A
C814   C913    1.424   .     A
C815   C878    1.455   .     S
C815   C901    1.416   .     A
C815   C916    1.416   .     A
C816   H985    1.085   .     S
C816   C846    1.403   .     S
C817   C915    1.422   .     A
C817   C879    1.468   .     S
C817   C900    1.423   .     A
C818   C919    1.409   .     A
C818   C889    1.451   .     S
C818   C899    1.410   .     A
C819   C898    1.422   .     A
C819   C917    1.422   .     A
C819   C890    1.462   .     S
C820   C882    1.451   .     S
C820   C921    1.408   .     A
C820   C897    1.408   .     A
C821   C883    1.466   .     S
C821   C895    1.425   .     A
C821   C920    1.425   .     A
C822   C923    1.409   .     A
C822   C894    1.410   .     A
C822   C884    1.451   .     S
C823   C893    1.422   .     A
C823   C922    1.422   .     A
C823   C886    1.462   .     S
C824   C925    1.409   .     A
C824   C892    1.407   .     A
C824   C887    1.452   .     S
C825   C891    1.425   .     A
C825   C924    1.425   .     A
C825   C888    1.466   .     S
C826   C1322   1.411   1_455 A
C826   C828    1.401   .     A
C827   H986    1.084   .     S
C828   C1193   1.411   1_455 A
C828   C927    1.411   .     S
C829   C830    1.401   .     A
C829   C928    1.411   .     S
C831   C8      1.411   1_565 S
C831   C832    1.401   1_556 S
C832   C14     1.411   1_565 S
C832   C831    1.401   1_554 S
C833   C1203   1.411   1_455 A
C833   C834    1.401   1_556 S
C834   C1199   1.411   1_455 A
C834   C833    1.401   1_554 S
C835   C844    1.403   .     A
C835   H987    1.085   .     S
C836   C845    1.403   .     A
C836   H988    1.084   .     S
C837   H989    1.085   .     S
C837   C1242   1.403   .     A
C838   C1270   1.403   1_455 A
C838   C867    1.459   .     S
C839   C1237   1.403   1_455 A
C839   C868    1.459   .     S
C839   C885    1.403   .     S
C840   C865    1.459   .     S
C840   C896    1.403   .     S
C841   C1235   1.403   .     A
C841   H974    1.084   .     S
C842   C866    1.459   .     S
C842   C863    1.403   .     A
C843   C918    1.403   .     A
C843   C79     1.459   1_565 S
C843   C35     1.403   1_565 S
C844   C80     1.459   1_565 S
C844   C2      1.403   1_565 S
C845   C869    1.459   .     S
C845   C1201   1.403   1_455 S
C846   C870    1.459   .     S
C846   C1233   1.403   1_455 A
C847   H929    1.084   .     S
C847   C853    1.394   .     A
C847   C926    1.402   .     A
C848   C851    1.394   .     A
C848   H940    1.084   .     S
C848   C927    1.402   .     A
C849   H951    1.084   .     S
C849   C855    1.394   .     A
C849   C928    1.402   .     A
C850   C854    1.394   .     A
C850   H962    1.084   .     S
C851   H973    1.084   .     S
C852   H975    1.085   .     S
C852   C48     1.403   1_565 A
C853   H984    1.084   .     S
C854   H990    1.084   .     S
C855   H991    1.084   .     S
C856   H992    1.084   .     S
C856   C861    1.394   1_556 S
C857   H930    1.084   .     S
C857   C860    1.394   1_554 S
C858   H931    1.084   .     S
C858   C864    1.394   1_556 S
C859   H932    1.084   .     S
C859   C862    1.394   1_554 S
C860   H933    1.084   .     S
C860   C857    1.394   1_556 S
C861   H934    1.084   .     S
C861   C856    1.394   1_554 S
C862   H935    1.084   .     S
C862   C859    1.394   1_556 S
C863   H976    1.084   .     S
C864   H936    1.084   .     S
C864   C858    1.394   1_554 S
C865   O1130   1.281   .     S
C866   O1097   1.281   .     A
C867   O1401   1.281   1_455 A
C867   O1108   1.281   .     S
C868   O1016   1.281   .     A
C868   O1515   1.281   1_455 S
C869   O1050   1.281   .     A
C869   O1027   1.281   .     S
C870   O1038   1.281   .     S
C870   O1051   1.281   .     S
C871   O1048   1.281   .     S
C871   O1052   1.281   .     S
C872   O1049   1.281   .     S
C872   O1054   1.281   .     S
C873   O1055   1.280   .     A
C873   O1083   1.280   .     A
C874   H977    1.085   .     S
C874   C926    1.393   .     A
C874   C1234   1.403   .     A
C875   O1084   1.283   .     A
C875   O1056   1.283   .     A
C876   O1081   1.279   .     A
C876   O1057   1.279   .     A
C877   O1082   1.283   .     A
C877   O1058   1.283   .     A
C878   O1088   1.280   .     A
C878   O1059   1.280   .     A
C879   O1060   1.282   .     A
C879   O1089   1.283   .     A
C880   O1061   1.279   .     A
C880   O1085   1.279   .     A
C881   O1062   1.284   .     A
C881   O1087   1.282   .     A
C882   O1074   1.278   .     A
C882   O1063   1.278   .     A
C883   O1065   1.284   .     A
C883   O1076   1.284   .     A
C884   O1072   1.278   .     A
C884   O1066   1.278   .     A
C885   H978    1.084   .     S
C885   C927    1.393   .     A
C886   O1073   1.282   .     A
C886   O1067   1.282   .     A
C887   O1068   1.278   .     A
C887   O1079   1.278   .     A
C888   O1069   1.284   .     A
C888   O1080   1.283   .     A
C889   O1070   1.279   .     A
C889   O1077   1.278   .     A
C890   O1071   1.282   .     A
C890   O1078   1.282   .     A
C891   S1141   1.790   .     S
C891   C908    1.393   .     A
C892   C906    1.408   .     A
C892   S1152   1.787   .     S
C893   C905    1.392   .     A
C893   S1163   1.789   .     S
C894   C904    1.411   .     A
C894   S1167   1.789   .     S
C895   C903    1.393   .     A
C895   S1168   1.790   .     S
C896   C928    1.393   .     A
C896   H979    1.085   .     S
C897   C902    1.409   .     A
C897   S1169   1.788   .     S
C898   S1170   1.789   .     S
C898   C901    1.392   .     A
C899   S1171   1.789   .     S
C899   C900    1.412   .     A
C900   S1172   1.797   .     S
C901   S1142   1.787   .     S
C902   S1143   1.797   .     S
C903   S1144   1.787   .     S
C904   S1145   1.798   .     S
C905   S1146   1.787   .     S
C906   S1147   1.796   .     S
C907   H980    1.084   .     S
C907   C50     1.403   1_565 S
C908   S1148   1.787   .     S
C909   C925    1.411   .     A
C909   S1149   1.797   .     S
C910   C924    1.393   .     A
C910   S1150   1.787   .     S
C911   S1151   1.798   .     S
C911   C923    1.411   .     A
C912   S1153   1.787   .     S
C912   C922    1.392   .     A
C913   S1154   1.797   .     S
C913   C921    1.409   .     A
C914   S1155   1.787   .     S
C914   C920    1.393   .     A
C915   C919    1.410   .     A
C915   S1156   1.796   .     S
C916   S1157   1.787   .     S
C916   C917    1.392   .     A
C917   S1158   1.789   .     S
C918   H981    1.084   .     S
C919   S1159   1.788   .     S
C920   S1160   1.790   .     S
C921   S1161   1.788   .     S
C922   S1162   1.789   .     S
C923   S1164   1.789   .     S
C924   S1165   1.790   .     S
C925   S1166   1.788   .     S
C926   C1222   1.411   .     A
H937   O1092   0.991   .     S
H938   O1095   0.991   .     S
H939   O1495   0.991   .     S
H941   O1102   0.991   .     S
H942   O1105   0.990   .     S
H943   O1109   0.991   .     S
H944   O1508   0.991   1_455 S
H945   O1115   0.991   .     S
H946   O1118   0.991   .     S
H947   O1122   0.991   .     S
H948   O1125   0.991   .     S
H949   O1128   0.991   .     S
H950   O1132   0.991   .     S
H952   O1135   0.991   .     S
H953   O1138   0.991   .     S
H954   O995    0.991   .     S
H955   O998    0.991   .     S
H956   O1001   0.991   .     S
H957   O1004   0.991   .     S
H958   O1008   0.991   .     S
H959   O1011   0.991   .     S
H960   O1014   0.991   .     S
H961   O1018   0.991   .     S
H963   O1021   0.991   .     S
H964   O1024   0.991   .     S
H965   O1028   0.991   .     S
H966   O1031   0.991   .     S
H967   O1034   0.991   .     S
H968   O1037   0.991   .     S
H969   O1041   0.991   .     S
H970   O1044   0.990   .     S
H971   O1047   0.991   .     S
O993   Zn1176  1.948   .     S
O993   Zn1173  1.948   .     S
O993   Zn1184  1.948   .     S
O994   Zn1175  1.946   .     S
O994   C74     1.281   1_565 S
O995   S1148   1.683   .     S
O996   S1149   1.502   .     D
O997   S1149   1.501   .     D
O998   S1149   1.682   .     S
O999   S1150   1.504   .     D
O1000  S1150   1.503   .     D
O1001  S1150   1.683   .     S
O1002  S1151   1.503   .     D
O1003  S1151   1.501   .     D
O1004  S1151   1.682   .     S
O1005  Zn1178  1.947   .     S
O1005  C1263   1.281   .     A
O1006  S1153   1.503   .     D
O1007  S1153   1.503   .     D
O1008  S1153   1.683   .     S
O1009  S1154   1.502   .     D
O1010  S1154   1.501   .     D
O1011  S1154   1.682   .     S
O1012  S1155   1.504   .     D
O1013  S1155   1.503   .     D
O1014  S1155   1.683   .     S
O1015  S1156   1.503   .     D
O1016  Zn1177  1.947   .     S
O1017  S1156   1.501   .     D
O1018  S1156   1.682   .     S
O1019  S1157   1.503   .     D
O1020  S1157   1.503   .     D
O1021  S1157   1.683   .     S
O1022  S1158   1.504   .     D
O1023  S1158   1.503   .     D
O1024  S1158   1.683   .     S
O1025  S1159   1.503   .     D
O1026  S1159   1.504   .     D
O1027  Zn1187  1.947   .     S
O1028  S1159   1.682   .     S
O1029  S1160   1.503   .     D
O1030  S1160   1.503   .     D
O1031  S1160   1.683   .     S
O1032  S1161   1.503   .     D
O1033  S1161   1.504   .     D
O1034  S1161   1.682   .     S
O1035  S1162   1.504   .     D
O1036  S1162   1.503   .     D
O1037  S1162   1.683   .     S
O1038  Zn1186  1.947   .     S
O1039  S1164   1.504   .     D
O1040  S1164   1.503   .     D
O1041  S1164   1.684   .     S
O1042  S1165   1.503   .     D
O1043  S1165   1.503   .     D
O1044  S1165   1.683   .     S
O1045  S1166   1.503   .     D
O1046  S1166   1.504   .     D
O1047  S1166   1.682   .     S
O1048  Zn1181  1.947   .     S
O1049  Zn1173  1.947   .     S
O1050  Zn1183  1.946   .     S
O1051  Zn1182  1.946   .     S
O1052  Zn1185  1.947   .     S
O1053  Zn1179  1.948   .     S
O1053  Zn1181  1.948   .     S
O1053  Zn1185  1.948   .     S
O1054  Zn1184  1.947   .     S
O1055  Zn1176  1.938   .     S
O1056  Zn1175  1.938   .     S
O1057  Zn1178  1.938   .     S
O1058  Zn1177  1.938   .     S
O1059  Zn1180  1.938   .     S
O1060  Zn1179  1.938   .     S
O1061  Zn1174  1.938   .     S
O1062  Zn1188  1.938   .     S
O1063  Zn1175  1.938   .     S
O1064  Zn1174  1.948   .     S
O1064  Zn1186  1.948   .     S
O1064  Zn1182  1.948   .     S
O1064  Zn1574  1.948   1_455 S
O1065  Zn1176  1.938   .     S
O1066  Zn1188  1.938   .     S
O1067  Zn1174  1.938   .     S
O1068  Zn1179  1.938   .     S
O1069  Zn1180  1.938   .     S
O1070  Zn1177  1.938   .     S
O1071  Zn1178  1.938   .     S
O1072  Zn1579  1.938   .     S
O1073  Zn1182  1.938   .     S
O1074  Zn393   1.938   1_565 S
O1075  Zn1177  1.948   .     S
O1075  Zn1183  1.948   .     S
O1075  Zn1187  1.948   .     S
O1075  Zn1584  1.948   1_455 S
O1076  Zn1184  1.938   .     S
O1077  Zn1187  1.938   .     S
O1078  Zn1582  1.938   .     S
O1079  Zn1181  1.938   .     S
O1080  Zn381   1.938   1_565 S
O1081  Zn1578  1.938   .     S
O1082  Zn1183  1.938   .     S
O1083  Zn1173  1.938   .     S
O1084  Zn389   1.938   1_565 S
O1085  Zn1186  1.938   .     S
O1086  C73     1.281   1_565 A
O1086  Zn1180  1.947   .     S
O1087  Zn1583  1.938   .     S
O1088  Zn392   1.938   1_565 S
O1089  Zn1185  1.938   .     S
O1090  S1141   1.503   .     D
O1091  S1141   1.503   .     D
O1092  S1141   1.683   .     S
O1093  S1152   1.503   .     D
O1094  S1152   1.504   .     D
O1095  S1152   1.682   .     S
O1096  S1163   1.504   .     D
O1097  Zn1179  1.947   .     S
O1098  S1163   1.503   .     D
O1099  S1163   1.683   .     S
O1099  H1335   0.991   1_455 S
O1100  S1167   1.504   .     D
O1101  S1167   1.503   .     D
O1102  S1167   1.684   .     S
O1103  S1168   1.503   .     D
O1104  S1168   1.503   .     D
O1105  S1168   1.683   .     S
O1106  S1169   1.503   .     D
O1107  S1169   1.504   .     D
O1108  Zn1174  1.947   .     S
O1109  S1169   1.682   .     S
O1110  S1170   1.504   .     D
O1111  S1170   1.503   .     D
O1112  S1170   1.683   .     S
O1112  H1340   0.991   .     S
O1113  S1171   1.504   .     D
O1114  S1171   1.503   .     D
O1115  S1171   1.684   .     S
O1116  S1172   1.503   .     D
O1117  S1172   1.501   .     D
O1118  S1172   1.682   .     S
O1119  Zn1188  1.947   .     S
O1119  C1264   1.281   .     S
O1120  S1142   1.503   .     D
O1121  S1142   1.503   .     D
O1122  S1142   1.683   .     S
O1123  S1143   1.502   .     D
O1124  S1143   1.501   .     D
O1125  S1143   1.682   .     S
O1126  S1144   1.504   .     D
O1127  S1144   1.503   .     D
O1128  S1144   1.683   .     S
O1129  S1145   1.503   .     D
O1130  Zn1176  1.946   .     S
O1131  S1145   1.501   .     D
O1132  S1145   1.682   .     S
O1133  S1146   1.503   .     D
O1134  S1146   1.503   .     D
O1135  S1146   1.683   .     S
O1136  S1147   1.501   .     D
O1137  S1147   1.501   .     D
O1138  S1147   1.682   .     S
O1139  S1148   1.504   .     D
O1140  S1148   1.503   .     D
Zn1175 O261    1.948   1_565 S
Zn1178 O1460   1.948   .     S
Zn1180 O201    1.948   1_565 S
Zn1182 O1477   1.938   1_455 S
Zn1183 O1468   1.938   1_455 S
Zn1186 O1474   1.938   1_455 S
Zn1187 O1483   1.938   1_455 S
Zn1188 O1471   1.948   .     S
C1189  C1192   1.393   .     A
C1189  H1368   1.085   .     S
C1189  C1234   1.403   .     S
C1190  H1378   1.085   .     S
C1190  C1202   1.393   .     A
C1191  C1303   1.393   .     A
C1191  C1246   1.402   .     A
C1191  C434    1.411   1_565 A
C1192  C1247   1.402   .     A
C1192  C1222   1.411   .     S
C1193  C828    1.411   1_655 A
C1193  C1237   1.393   .     A
C1193  C1249   1.402   .     A
C1194  C1250   1.402   .     A
C1194  C1248   1.393   .     A
C1194  C433    1.411   1_565 A
C1195  C1251   1.402   .     A
C1195  C1259   1.393   .     A
C1195  C1226   1.411   .     S
C1196  C1223   1.393   .     A
C1196  C1252   1.402   .     A
C1197  C1253   1.402   .     A
C1197  C1231   1.393   .     A
C1197  C1228   1.411   .     A
C1198  C1254   1.402   .     A
C1198  C1232   1.393   .     A
C1198  C1229   1.411   .     S
C1199  C834    1.411   1_655 A
C1199  C1233   1.393   .     A
C1199  C1255   1.402   .     A
C1200  C1314   1.393   .     A
C1200  C1256   1.402   .     A
C1200  C1227   1.411   .     A
C1201  C1203   1.393   .     A
C1201  H1379   1.084   .     S
C1201  C845    1.403   1_655 S
C1202  C1257   1.402   .     A
C1203  C1258   1.402   .     A
C1203  C833    1.411   1_655 A
C1204  C1260   1.402   .     A
C1204  C1212   1.393   .     A
C1204  C1230   1.411   .     S
C1205  C1306   1.412   .     A
C1205  C1276   1.451   .     S
C1205  C1304   1.412   .     A
C1206  C1277   1.467   .     S
C1206  C1305   1.424   .     A
C1206  C1302   1.423   .     A
C1207  C1301   1.416   .     A
C1207  C1308   1.415   .     A
C1207  C1269   1.455   .     S
C1208  C1300   1.423   .     A
C1208  C1307   1.423   .     A
C1208  C1271   1.468   .     S
C1209  C1310   1.412   .     A
C1209  C1299   1.412   .     A
C1209  C1272   1.451   .     S
C1210  C1273   1.468   .     S
C1210  C1298   1.424   .     A
C1210  C1309   1.424   .     A
C1211  C1274   1.455   .     S
C1211  C1297   1.416   .     A
C1211  C1312   1.416   .     A
C1212  H1381   1.085   .     S
C1212  C1242   1.403   .     S
C1213  C1311   1.422   .     A
C1213  C1275   1.468   .     S
C1213  C1296   1.423   .     A
C1214  C1315   1.409   .     A
C1214  C1285   1.451   .     S
C1214  C1295   1.410   .     A
C1215  C1294   1.422   .     A
C1215  C1313   1.422   .     A
C1215  C1286   1.462   .     S
C1216  C1278   1.451   .     S
C1216  C1317   1.408   .     A
C1216  C1293   1.408   .     A
C1217  C1279   1.466   .     S
C1217  C1291   1.425   .     A
C1217  C1316   1.425   .     A
C1218  C1319   1.409   .     A
C1218  C1290   1.410   .     A
C1218  C1280   1.451   .     S
C1219  C1289   1.422   .     A
C1219  C1318   1.422   .     A
C1219  C1282   1.462   .     S
C1220  C1321   1.409   .     A
C1220  C1288   1.407   .     A
C1220  C1283   1.452   .     S
C1221  C1287   1.425   .     A
C1221  C1320   1.425   .     A
C1221  C1284   1.466   .     S
C1222  C1224   1.401   .     A
C1223  H1382   1.084   .     S
C1224  C1323   1.411   .     S
C1225  C1226   1.401   .     A
C1225  C1324   1.411   .     S
C1227  C404    1.411   1_565 S
C1227  C1228   1.401   1_556 S
C1228  C410    1.411   1_565 S
C1228  C1227   1.401   1_554 S
C1229  C1230   1.401   1_556 S
C1230  C1229   1.401   1_554 S
C1231  C1240   1.403   .     A
C1231  H1383   1.085   .     S
C1232  C1241   1.403   .     A
C1232  H1384   1.084   .     S
C1233  H1385   1.085   .     S
C1233  C846    1.403   1_655 A
C1234  C1263   1.459   .     S
C1235  C1264   1.459   .     S
C1235  C1281   1.403   .     S
C1236  C1261   1.459   .     S
C1236  C1292   1.403   .     S
C1237  C839    1.403   1_655 A
C1237  H1370   1.084   .     S
C1238  C1262   1.459   .     S
C1238  C1259   1.403   .     A
C1239  C1314   1.403   .     A
C1239  C475    1.459   1_565 S
C1239  C431    1.403   1_565 S
C1240  C476    1.459   1_565 S
C1240  C398    1.403   1_565 S
C1241  C1265   1.459   .     S
C1242  C1266   1.459   .     S
C1243  H1325   1.084   .     S
C1243  C1249   1.394   .     A
C1243  C1322   1.402   .     A
C1244  C1247   1.394   .     A
C1244  H1336   1.084   .     S
C1244  C1323   1.402   .     A
C1245  H1347   1.084   .     S
C1245  C1251   1.394   .     A
C1245  C1324   1.402   .     A
C1246  C1250   1.394   .     A
C1246  H1358   1.084   .     S
C1247  H1369   1.084   .     S
C1248  H1371   1.085   .     S
C1248  C444    1.403   1_565 A
C1249  H1380   1.084   .     S
C1250  H1386   1.084   .     S
C1251  H1387   1.084   .     S
C1252  H1388   1.084   .     S
C1252  C1257   1.394   1_556 S
C1253  H1326   1.084   .     S
C1253  C1256   1.394   1_554 S
C1254  H1327   1.084   .     S
C1254  C1260   1.394   1_556 S
C1255  H1328   1.084   .     S
C1255  C1258   1.394   1_554 S
C1256  H1329   1.084   .     S
C1256  C1253   1.394   1_556 S
C1257  H1330   1.084   .     S
C1257  C1252   1.394   1_554 S
C1258  H1331   1.084   .     S
C1258  C1255   1.394   1_556 S
C1259  H1372   1.084   .     S
C1260  H1332   1.084   .     S
C1260  C1254   1.394   1_554 S
C1261  O1526   1.281   .     S
C1262  O1493   1.281   .     A
C1263  O1504   1.281   .     S
C1264  O1412   1.281   .     A
C1265  O1446   1.281   .     A
C1265  O1423   1.281   .     S
C1266  O1434   1.281   .     S
C1266  O1447   1.281   .     S
C1267  O1444   1.281   .     S
C1267  O1448   1.281   .     S
C1268  O1445   1.281   .     S
C1268  O1450   1.281   .     S
C1269  O1451   1.280   .     A
C1269  O1479   1.280   .     A
C1270  H1373   1.085   .     S
C1270  C1322   1.393   .     A
C1270  C838    1.403   1_655 A
C1271  O1480   1.283   .     A
C1271  O1452   1.283   .     A
C1272  O1477   1.279   .     A
C1272  O1453   1.279   .     A
C1273  O1478   1.283   .     A
C1273  O1454   1.283   .     A
C1274  O1484   1.280   .     A
C1274  O1455   1.280   .     A
C1275  O1456   1.282   .     A
C1275  O1485   1.283   .     A
C1276  O1457   1.279   .     A
C1276  O1481   1.279   .     A
C1277  O1458   1.284   .     A
C1277  O1483   1.282   .     A
C1278  O1470   1.278   .     A
C1278  O1459   1.278   .     A
C1279  O1461   1.284   .     A
C1279  O1472   1.284   .     A
C1280  O1468   1.278   .     A
C1280  O1462   1.278   .     A
C1281  H1374   1.084   .     S
C1281  C1323   1.393   .     A
C1282  O1469   1.282   .     A
C1282  O1463   1.282   .     A
C1283  O1464   1.278   .     A
C1283  O1475   1.278   .     A
C1284  O1465   1.284   .     A
C1284  O1476   1.283   .     A
C1285  O1466   1.279   .     A
C1285  O1473   1.278   .     A
C1286  O1467   1.282   .     A
C1286  O1474   1.282   .     A
C1287  S1537   1.790   .     S
C1287  C1304   1.393   .     A
C1288  C1302   1.408   .     A
C1288  S1548   1.787   .     S
C1289  C1301   1.392   .     A
C1289  S1559   1.789   .     S
C1290  C1300   1.411   .     A
C1290  S1563   1.789   .     S
C1291  C1299   1.393   .     A
C1291  S1564   1.790   .     S
C1292  C1324   1.393   .     A
C1292  H1375   1.085   .     S
C1293  C1298   1.409   .     A
C1293  S1565   1.788   .     S
C1294  S1566   1.789   .     S
C1294  C1297   1.392   .     A
C1295  S1567   1.789   .     S
C1295  C1296   1.412   .     A
C1296  S1568   1.797   .     S
C1297  S1538   1.787   .     S
C1298  S1539   1.797   .     S
C1299  S1540   1.787   .     S
C1300  S1541   1.798   .     S
C1301  S1542   1.787   .     S
C1302  S1543   1.796   .     S
C1303  H1376   1.084   .     S
C1303  C446    1.403   1_565 S
C1304  S1544   1.787   .     S
C1305  C1321   1.411   .     A
C1305  S1545   1.797   .     S
C1306  C1320   1.393   .     A
C1306  S1546   1.787   .     S
C1307  S1547   1.798   .     S
C1307  C1319   1.411   .     A
C1308  S1549   1.787   .     S
C1308  C1318   1.392   .     A
C1309  S1550   1.797   .     S
C1309  C1317   1.409   .     A
C1310  S1551   1.787   .     S
C1310  C1316   1.393   .     A
C1311  C1315   1.410   .     A
C1311  S1552   1.796   .     S
C1312  S1553   1.787   .     S
C1312  C1313   1.392   .     A
C1313  S1554   1.789   .     S
C1314  H1377   1.084   .     S
C1315  S1555   1.788   .     S
C1316  S1556   1.790   .     S
C1317  S1557   1.788   .     S
C1318  S1558   1.789   .     S
C1319  S1560   1.789   .     S
C1320  S1561   1.790   .     S
C1321  S1562   1.788   .     S
C1322  C826    1.411   1_655 A
H1333  O1488   0.991   .     S
H1334  O1491   0.991   .     S
H1335  O1099   0.991   1_655 S
H1337  O1498   0.991   .     S
H1338  O1501   0.990   .     S
H1339  O1505   0.991   .     S
H1341  O1511   0.991   .     S
H1342  O1514   0.991   .     S
H1343  O1518   0.991   .     S
H1344  O1521   0.991   .     S
H1345  O1524   0.991   .     S
H1346  O1528   0.991   .     S
H1348  O1531   0.991   .     S
H1349  O1534   0.991   .     S
H1350  O1391   0.991   .     S
H1351  O1394   0.991   .     S
H1352  O1397   0.991   .     S
H1353  O1400   0.991   .     S
H1354  O1404   0.991   .     S
H1355  O1407   0.991   .     S
H1356  O1410   0.991   .     S
H1357  O1414   0.991   .     S
H1359  O1417   0.991   .     S
H1360  O1420   0.991   .     S
H1361  O1424   0.991   .     S
H1362  O1427   0.991   .     S
H1363  O1430   0.991   .     S
H1364  O1433   0.991   .     S
H1365  O1437   0.991   .     S
H1366  O1440   0.990   .     S
H1367  O1443   0.991   .     S
O1389  Zn1572  1.948   .     S
O1389  Zn1569  1.948   .     S
O1389  Zn1580  1.948   .     S
O1390  Zn1571  1.946   .     S
O1390  C470    1.281   1_565 S
O1391  S1544   1.683   .     S
O1392  S1545   1.502   .     D
O1393  S1545   1.501   .     D
O1394  S1545   1.682   .     S
O1395  S1546   1.504   .     D
O1396  S1546   1.503   .     D
O1397  S1546   1.683   .     S
O1398  S1547   1.503   .     D
O1399  S1547   1.501   .     D
O1400  S1547   1.682   .     S
O1401  Zn1574  1.947   .     S
O1401  C867    1.281   1_655 A
O1402  S1549   1.503   .     D
O1403  S1549   1.503   .     D
O1404  S1549   1.683   .     S
O1405  S1550   1.502   .     D
O1406  S1550   1.501   .     D
O1407  S1550   1.682   .     S
O1408  S1551   1.504   .     D
O1409  S1551   1.503   .     D
O1410  S1551   1.683   .     S
O1411  S1552   1.503   .     D
O1412  Zn1573  1.947   .     S
O1413  S1552   1.501   .     D
O1414  S1552   1.682   .     S
O1415  S1553   1.503   .     D
O1416  S1553   1.503   .     D
O1417  S1553   1.683   .     S
O1418  S1554   1.504   .     D
O1419  S1554   1.503   .     D
O1420  S1554   1.683   .     S
O1421  S1555   1.503   .     D
O1422  S1555   1.504   .     D
O1423  Zn1583  1.947   .     S
O1424  S1555   1.682   .     S
O1425  S1556   1.503   .     D
O1426  S1556   1.503   .     D
O1427  S1556   1.683   .     S
O1428  S1557   1.503   .     D
O1429  S1557   1.504   .     D
O1430  S1557   1.682   .     S
O1431  S1558   1.504   .     D
O1432  S1558   1.503   .     D
O1433  S1558   1.683   .     S
O1434  Zn1582  1.947   .     S
O1435  S1560   1.504   .     D
O1436  S1560   1.503   .     D
O1437  S1560   1.684   .     S
O1438  S1561   1.503   .     D
O1439  S1561   1.503   .     D
O1440  S1561   1.683   .     S
O1441  S1562   1.503   .     D
O1442  S1562   1.504   .     D
O1443  S1562   1.682   .     S
O1444  Zn1577  1.947   .     S
O1445  Zn1569  1.947   .     S
O1446  Zn1579  1.946   .     S
O1447  Zn1578  1.946   .     S
O1448  Zn1581  1.947   .     S
O1449  Zn1575  1.948   .     S
O1449  Zn1577  1.948   .     S
O1449  Zn1581  1.948   .     S
O1450  Zn1580  1.947   .     S
O1451  Zn1572  1.938   .     S
O1452  Zn1571  1.938   .     S
O1453  Zn1574  1.938   .     S
O1454  Zn1573  1.938   .     S
O1455  Zn1576  1.938   .     S
O1456  Zn1575  1.938   .     S
O1457  Zn1570  1.938   .     S
O1458  Zn1584  1.938   .     S
O1459  Zn1571  1.938   .     S
O1460  Zn1570  1.948   .     S
O1460  Zn1582  1.948   .     S
O1460  Zn1578  1.948   .     S
O1461  Zn1572  1.938   .     S
O1462  Zn1584  1.938   .     S
O1463  Zn1570  1.938   .     S
O1464  Zn1575  1.938   .     S
O1465  Zn1576  1.938   .     S
O1466  Zn1573  1.938   .     S
O1467  Zn1574  1.938   .     S
O1468  Zn1183  1.938   1_655 S
O1469  Zn1578  1.938   .     S
O1470  Zn789   1.938   1_565 S
O1471  Zn1573  1.948   .     S
O1471  Zn1579  1.948   .     S
O1471  Zn1583  1.948   .     S
O1472  Zn1580  1.938   .     S
O1473  Zn1583  1.938   .     S
O1474  Zn1186  1.938   1_655 S
O1475  Zn1577  1.938   .     S
O1476  Zn777   1.938   1_565 S
O1477  Zn1182  1.938   1_655 S
O1478  Zn1579  1.938   .     S
O1479  Zn1569  1.938   .     S
O1480  Zn785   1.938   1_565 S
O1481  Zn1582  1.938   .     S
O1482  C469    1.281   1_565 A
O1482  Zn1576  1.947   .     S
O1483  Zn1187  1.938   1_655 S
O1484  Zn788   1.938   1_565 S
O1485  Zn1581  1.938   .     S
O1486  S1537   1.503   .     D
O1487  S1537   1.503   .     D
O1488  S1537   1.683   .     S
O1489  S1548   1.503   .     D
O1490  S1548   1.504   .     D
O1491  S1548   1.682   .     S
O1492  S1559   1.504   .     D
O1493  Zn1575  1.947   .     S
O1494  S1559   1.503   .     D
O1495  S1559   1.683   .     S
O1496  S1563   1.504   .     D
O1497  S1563   1.503   .     D
O1498  S1563   1.684   .     S
O1499  S1564   1.503   .     D
O1500  S1564   1.503   .     D
O1501  S1564   1.683   .     S
O1502  S1565   1.503   .     D
O1503  S1565   1.504   .     D
O1504  Zn1570  1.947   .     S
O1505  S1565   1.682   .     S
O1506  S1566   1.504   .     D
O1507  S1566   1.503   .     D
O1508  S1566   1.683   .     S
O1508  H944    0.991   1_655 S
O1509  S1567   1.504   .     D
O1510  S1567   1.503   .     D
O1511  S1567   1.684   .     S
O1512  S1568   1.503   .     D
O1513  S1568   1.501   .     D
O1514  S1568   1.682   .     S
O1515  Zn1584  1.947   .     S
O1515  C868    1.281   1_655 S
O1516  S1538   1.503   .     D
O1517  S1538   1.503   .     D
O1518  S1538   1.683   .     S
O1519  S1539   1.502   .     D
O1520  S1539   1.501   .     D
O1521  S1539   1.682   .     S
O1522  S1540   1.504   .     D
O1523  S1540   1.503   .     D
O1524  S1540   1.683   .     S
O1525  S1541   1.503   .     D
O1526  Zn1572  1.946   .     S
O1527  S1541   1.501   .     D
O1528  S1541   1.682   .     S
O1529  S1542   1.503   .     D
O1530  S1542   1.503   .     D
O1531  S1542   1.683   .     S
O1532  S1543   1.501   .     D
O1533  S1543   1.501   .     D
O1534  S1543   1.682   .     S
O1535  S1544   1.504   .     D
O1536  S1544   1.503   .     D
Zn1571 O657    1.948   1_565 S
Zn1574 O1064   1.948   1_655 S
Zn1576 O597    1.948   1_565 S
Zn1584 O1075   1.948   1_655 S
