data_str_m1_o10_o18_pcu_sym.39
_audit_creation_date              2020-01-03
_audit_creation_method            'Materials Studio'
_symmetry_space_group_name_H-M    'P1'
_symmetry_Int_Tables_number       1
_symmetry_cell_setting            triclinic
loop_
_symmetry_equiv_pos_as_xyz
  x,y,z
_cell_length_a                    32.7151
_cell_length_b                    32.7233
_cell_length_c                    35.3789
_cell_angle_alpha                 98.2257
_cell_angle_beta                  72.8946
_cell_angle_gamma                 98.3564
loop_
_atom_site_label
_atom_site_type_symbol
_atom_site_fract_x
_atom_site_fract_y
_atom_site_fract_z
_atom_site_U_iso_or_equiv
_atom_site_adp_type
_atom_site_occupancy
C1     C     0.05282   0.15984   0.25874   0.00000  Uiso   1.00
C2     C     0.18749   0.11616   0.45908   0.00000  Uiso   1.00
C3     C     0.21013   0.09759   0.47917   0.00000  Uiso   1.00
C4     C     0.28105   0.17361   0.24163   0.00000  Uiso   1.00
C5     C     0.20052   0.10521   0.02130   0.00000  Uiso   1.00
C6     C     0.17886   0.14009   0.04038   0.00000  Uiso   1.00
C7     C     0.20975   0.07882   0.04563   0.00000  Uiso   1.00
C8     C     0.21060   0.09446   0.08468   0.00000  Uiso   1.00
C9     C     0.18412   0.15856   0.07771   0.00000  Uiso   1.00
C10    C     0.32689   0.17694   0.24012   0.00000  Uiso   1.00
C11    C     0.00734   0.15544   0.26348   0.00000  Uiso   1.00
C12    C     0.09410   0.21084   0.42376   0.00000  Uiso   1.00
C13    C     0.17707   0.32167   0.23539   0.00000  Uiso   1.00
C14    C     0.15112   0.01321   0.26424   0.00000  Uiso   1.00
C15    C     0.15570   0.05658   0.25937   0.00000  Uiso   1.00
C16    C     0.17611   0.27762   0.24069   0.00000  Uiso   1.00
C17    C     0.18792   0.14552   0.14385   0.00000  Uiso   1.00
C18    C     0.14541   0.18812   0.35651   0.00000  Uiso   1.00
C19    C     0.13353   0.19512   0.40074   0.00000  Uiso   1.00
C20    C     0.19767   0.13435   0.10072   0.00000  Uiso   1.00
C21    C     0.08124   0.20937   0.46491   0.00000  Uiso   1.00
C22    C     0.21041   0.03210   0.03381   0.00000  Uiso   1.00
C23    C     0.16061   0.18253   0.42074   0.00000  Uiso   1.00
C24    C     0.17200   0.00709   0.06011   0.00000  Uiso   1.00
C25    C     0.31239   0.12461   0.29193   0.00000  Uiso   1.00
C26    C     0.00317   0.10109   0.31157   0.00000  Uiso   1.00
C27    C     0.20664   0.00709   0.19770   0.00000  Uiso   1.00
C28    C     0.23081   0.31105   0.16347   0.00000  Uiso   1.00
C29    C     0.11999   0.33290   0.30330   0.00000  Uiso   1.00
C30    C     0.09672   0.03408   0.33205   0.00000  Uiso   1.00
C31    C     0.18214   0.20536   0.08994   0.00000  Uiso   1.00
C32    C     0.21523   0.23092   0.05954   0.00000  Uiso   1.00
C33    C     0.24831   0.07484   0.45435   0.00000  Uiso   1.00
C34    C     0.14229   0.17247   0.46044   0.00000  Uiso   1.00
C35    C     0.28235   0.10345   0.42770   0.00000  Uiso   1.00
C36    C     0.06522   0.23082   0.40676   0.00000  Uiso   1.00
C37    C     0.03468   0.19829   0.39025   0.00000  Uiso   1.00
C38    C     0.20955   0.18878   0.40258   0.00000  Uiso   1.00
C39    C     0.23280   0.21602   0.43054   0.00000  Uiso   1.00
C40    C     0.10442   0.19004   0.48317   0.00000  Uiso   1.00
C41    C     0.16165   0.14830   0.47949   0.00000  Uiso   1.00
C42    C     0.15307   0.15552   0.02123   0.00000  Uiso   1.00
C43    C     0.11514   0.17285   0.04324   0.00000  Uiso   1.00
C44    C     0.09036   0.18878   0.02429   0.00000  Uiso   1.00
H45    H     0.06092   0.20133   0.04198   0.00000  Uiso   1.00
H46    H     0.02549   0.08159   0.28876   0.00000  Uiso   1.00
H47    H     0.02142   0.12304   0.32920   0.00000  Uiso   1.00
H48    H     0.31304   0.08033   0.33193   0.00000  Uiso   1.00
H49    H     0.28910   0.14166   0.31633   0.00000  Uiso   1.00
H50    H     0.29478   0.10055   0.27523   0.00000  Uiso   1.00
H51    H     0.25663   0.29881   0.17163   0.00000  Uiso   1.00
H52    H     0.20821   0.28537   0.15455   0.00000  Uiso   1.00
H53    H     0.24651   0.32850   0.13729   0.00000  Uiso   1.00
H54    H     0.18667   0.02256   0.18470   0.00000  Uiso   1.00
H55    H     0.23071   0.03130   0.20648   0.00000  Uiso   1.00
H56    H     0.05203   0.22226   0.48282   0.00000  Uiso   1.00
H57    H     0.12007   0.05761   0.34269   0.00000  Uiso   1.00
H58    H     0.07805   0.04927   0.31747   0.00000  Uiso   1.00
H59    H     0.07395   0.02045   0.35835   0.00000  Uiso   1.00
H60    H     0.09437   0.30944   0.29624   0.00000  Uiso   1.00
H61    H     0.13797   0.31917   0.31968   0.00000  Uiso   1.00
H62    H     0.24775   0.22100   0.05394   0.00000  Uiso   1.00
H63    H     0.20660   0.22740   0.03108   0.00000  Uiso   1.00
H64    H     0.21627   0.26431   0.07119   0.00000  Uiso   1.00
H65    H     0.14996   0.21506   0.09465   0.00000  Uiso   1.00
H66    H     0.18927   0.21532   0.11868   0.00000  Uiso   1.00
H67    H     0.10282   0.17146   0.07500   0.00000  Uiso   1.00
H68    H     0.23095   0.08639   0.12967   0.00000  Uiso   1.00
H69    H     0.27021   0.11281   0.40443   0.00000  Uiso   1.00
H70    H     0.29191   0.13163   0.44603   0.00000  Uiso   1.00
H71    H     0.31123   0.08707   0.41266   0.00000  Uiso   1.00
H72    H     0.26522   0.06382   0.47325   0.00000  Uiso   1.00
H73    H     0.23724   0.04756   0.43584   0.00000  Uiso   1.00
H74    H     0.01713   0.21341   0.37452   0.00000  Uiso   1.00
H75    H     0.05238   0.17409   0.36924   0.00000  Uiso   1.00
H76    H     0.01092   0.18318   0.41501   0.00000  Uiso   1.00
H77    H     0.04513   0.25171   0.43028   0.00000  Uiso   1.00
H78    H     0.17459   0.00862   0.09085   0.00000  Uiso   1.00
H79    H     0.08421   0.25178   0.38432   0.00000  Uiso   1.00
H80    H     0.21705   0.24484   0.44268   0.00000  Uiso   1.00
H81    H     0.23328   0.19916   0.45541   0.00000  Uiso   1.00
H82    H     0.26673   0.22482   0.41387   0.00000  Uiso   1.00
H83    H     0.22367   0.15911   0.39269   0.00000  Uiso   1.00
H84    H     0.21770   0.20531   0.37558   0.00000  Uiso   1.00
H85    H     0.16025   0.10287   0.41619   0.00000  Uiso   1.00
H86    H     0.14149   0.01885   0.06102   0.00000  Uiso   1.00
H87    H     0.17077   0.30728   0.04762   0.00000  Uiso   1.00
H88    H     0.24096   0.02232   0.03538   0.00000  Uiso   1.00
H89    H     0.20769   0.02298   0.00325   0.00000  Uiso   1.00
H90    H     0.00908   0.21631   0.20013   0.00000  Uiso   1.00
O91    O     0.16667   0.16667   0.25000   0.00000  Uiso   1.00
O92    O     0.15693   0.12393   0.16625   0.00000  Uiso   1.00
O93    O     0.12687   0.20646   0.33749   0.00000  Uiso   1.00
O94    O     0.21088   0.17493   0.15877   0.00000  Uiso   1.00
O95    O     0.17198   0.16135   0.33749   0.00000  Uiso   1.00
O96    O     0.02374   0.20227   0.21462   0.00000  Uiso   1.00
O97    O     0.22393   0.06961   0.10637   0.00000  Uiso   1.00
O98    O     0.18739   0.09837   0.42123   0.00000  Uiso   1.00
O99    O     0.17849   0.08101   0.27820   0.00000  Uiso   1.00
O100   O     0.14581   0.26136   0.26767   0.00000  Uiso   1.00
O101   O     0.07452   0.13251   0.23607   0.00000  Uiso   1.00
O102   O     0.26785   0.19179   0.21805   0.00000  Uiso   1.00
O103   O     0.06990   0.18960   0.27820   0.00000  Uiso   1.00
O104   O     0.25440   0.15277   0.26767   0.00000  Uiso   1.00
O105   O     0.13800   0.06903   0.23607   0.00000  Uiso   1.00
O106   O     0.20437   0.25527   0.21805   0.00000  Uiso   1.00
Zn107  Zn    0.19244   0.14090   0.28277   0.00000  Uiso   1.00
Zn108  Zn    0.13459   0.12378   0.22257   0.00000  Uiso   1.00
Zn109  Zn    0.21166   0.19664   0.21188   0.00000  Uiso   1.00
Zn110  Zn    0.12798   0.20535   0.28277   0.00000  Uiso   1.00
C111   C     0.38615   0.15984   0.25874   0.00000  Uiso   1.00
C112   C     0.52082   0.11616   0.45908   0.00000  Uiso   1.00
C113   C     0.54346   0.09759   0.47917   0.00000  Uiso   1.00
C114   C     0.61438   0.17361   0.24163   0.00000  Uiso   1.00
C115   C     0.53385   0.10521   0.02130   0.00000  Uiso   1.00
C116   C     0.51219   0.14009   0.04038   0.00000  Uiso   1.00
C117   C     0.54309   0.07882   0.04563   0.00000  Uiso   1.00
C118   C     0.54394   0.09446   0.08468   0.00000  Uiso   1.00
C119   C     0.51745   0.15856   0.07771   0.00000  Uiso   1.00
C120   C     0.66023   0.17694   0.24012   0.00000  Uiso   1.00
C121   C     0.34067   0.15544   0.26348   0.00000  Uiso   1.00
C122   C     0.42743   0.21084   0.42376   0.00000  Uiso   1.00
C123   C     0.51040   0.32167   0.23539   0.00000  Uiso   1.00
C124   C     0.48446   0.01321   0.26424   0.00000  Uiso   1.00
C125   C     0.48903   0.05658   0.25937   0.00000  Uiso   1.00
C126   C     0.50944   0.27762   0.24069   0.00000  Uiso   1.00
C127   C     0.52126   0.14552   0.14385   0.00000  Uiso   1.00
C128   C     0.47874   0.18812   0.35651   0.00000  Uiso   1.00
C129   C     0.46687   0.19512   0.40074   0.00000  Uiso   1.00
C130   C     0.53100   0.13435   0.10072   0.00000  Uiso   1.00
C131   C     0.41458   0.20937   0.46491   0.00000  Uiso   1.00
C132   C     0.54375   0.03210   0.03381   0.00000  Uiso   1.00
C133   C     0.49394   0.18253   0.42074   0.00000  Uiso   1.00
C134   C     0.50533   0.00709   0.06011   0.00000  Uiso   1.00
C135   C     0.64572   0.12461   0.29193   0.00000  Uiso   1.00
C136   C     0.33651   0.10109   0.31157   0.00000  Uiso   1.00
C137   C     0.53997   0.00709   0.19770   0.00000  Uiso   1.00
C138   C     0.56414   0.31105   0.16347   0.00000  Uiso   1.00
C139   C     0.45332   0.33290   0.30330   0.00000  Uiso   1.00
C140   C     0.43006   0.03408   0.33205   0.00000  Uiso   1.00
C141   C     0.51547   0.20536   0.08994   0.00000  Uiso   1.00
C142   C     0.54857   0.23092   0.05954   0.00000  Uiso   1.00
C143   C     0.58164   0.07484   0.45435   0.00000  Uiso   1.00
C144   C     0.47563   0.17247   0.46044   0.00000  Uiso   1.00
C145   C     0.61568   0.10345   0.42770   0.00000  Uiso   1.00
C146   C     0.39855   0.23082   0.40676   0.00000  Uiso   1.00
C147   C     0.36801   0.19829   0.39025   0.00000  Uiso   1.00
C148   C     0.54288   0.18878   0.40258   0.00000  Uiso   1.00
C149   C     0.56613   0.21602   0.43054   0.00000  Uiso   1.00
C150   C     0.43775   0.19004   0.48317   0.00000  Uiso   1.00
C151   C     0.49499   0.14830   0.47949   0.00000  Uiso   1.00
C152   C     0.48640   0.15552   0.02123   0.00000  Uiso   1.00
C153   C     0.44847   0.17285   0.04324   0.00000  Uiso   1.00
C154   C     0.42370   0.18878   0.02429   0.00000  Uiso   1.00
H155   H     0.39425   0.20133   0.04198   0.00000  Uiso   1.00
H156   H     0.35882   0.08159   0.28876   0.00000  Uiso   1.00
H157   H     0.35475   0.12304   0.32920   0.00000  Uiso   1.00
H158   H     0.64637   0.08033   0.33193   0.00000  Uiso   1.00
H159   H     0.62243   0.14166   0.31633   0.00000  Uiso   1.00
H160   H     0.62811   0.10055   0.27523   0.00000  Uiso   1.00
H161   H     0.58996   0.29881   0.17163   0.00000  Uiso   1.00
H162   H     0.54154   0.28537   0.15455   0.00000  Uiso   1.00
H163   H     0.57984   0.32850   0.13729   0.00000  Uiso   1.00
H164   H     0.52000   0.02256   0.18470   0.00000  Uiso   1.00
H165   H     0.56404   0.03130   0.20648   0.00000  Uiso   1.00
H166   H     0.38536   0.22226   0.48282   0.00000  Uiso   1.00
H167   H     0.45340   0.05761   0.34269   0.00000  Uiso   1.00
H168   H     0.41139   0.04927   0.31747   0.00000  Uiso   1.00
H169   H     0.40729   0.02045   0.35835   0.00000  Uiso   1.00
H170   H     0.42771   0.30944   0.29624   0.00000  Uiso   1.00
H171   H     0.47131   0.31917   0.31968   0.00000  Uiso   1.00
H172   H     0.58108   0.22100   0.05394   0.00000  Uiso   1.00
H173   H     0.53994   0.22740   0.03108   0.00000  Uiso   1.00
H174   H     0.54960   0.26431   0.07119   0.00000  Uiso   1.00
H175   H     0.48329   0.21506   0.09465   0.00000  Uiso   1.00
H176   H     0.52260   0.21532   0.11868   0.00000  Uiso   1.00
H177   H     0.43616   0.17146   0.07500   0.00000  Uiso   1.00
H178   H     0.56429   0.08639   0.12967   0.00000  Uiso   1.00
H179   H     0.60355   0.11281   0.40443   0.00000  Uiso   1.00
H180   H     0.62524   0.13163   0.44603   0.00000  Uiso   1.00
H181   H     0.64457   0.08707   0.41266   0.00000  Uiso   1.00
H182   H     0.59855   0.06382   0.47325   0.00000  Uiso   1.00
H183   H     0.57058   0.04756   0.43584   0.00000  Uiso   1.00
H184   H     0.35046   0.21341   0.37452   0.00000  Uiso   1.00
H185   H     0.38572   0.17409   0.36924   0.00000  Uiso   1.00
H186   H     0.34425   0.18318   0.41501   0.00000  Uiso   1.00
H187   H     0.37846   0.25171   0.43028   0.00000  Uiso   1.00
H188   H     0.50792   0.00862   0.09085   0.00000  Uiso   1.00
H189   H     0.41754   0.25178   0.38432   0.00000  Uiso   1.00
H190   H     0.55038   0.24484   0.44268   0.00000  Uiso   1.00
H191   H     0.56661   0.19916   0.45541   0.00000  Uiso   1.00
H192   H     0.60006   0.22482   0.41387   0.00000  Uiso   1.00
H193   H     0.55700   0.15911   0.39269   0.00000  Uiso   1.00
H194   H     0.55103   0.20531   0.37558   0.00000  Uiso   1.00
H195   H     0.49358   0.10287   0.41619   0.00000  Uiso   1.00
H196   H     0.47482   0.01885   0.06102   0.00000  Uiso   1.00
H197   H     0.50411   0.30728   0.04762   0.00000  Uiso   1.00
H198   H     0.57429   0.02232   0.03538   0.00000  Uiso   1.00
H199   H     0.54102   0.02298   0.00325   0.00000  Uiso   1.00
H200   H     0.34242   0.21631   0.20013   0.00000  Uiso   1.00
O201   O     0.50000   0.16667   0.25000   0.00000  Uiso   1.00
O202   O     0.49027   0.12393   0.16625   0.00000  Uiso   1.00
O203   O     0.46020   0.20646   0.33749   0.00000  Uiso   1.00
O204   O     0.54421   0.17493   0.15877   0.00000  Uiso   1.00
O205   O     0.50532   0.16135   0.33749   0.00000  Uiso   1.00
O206   O     0.35707   0.20227   0.21462   0.00000  Uiso   1.00
O207   O     0.55727   0.06961   0.10637   0.00000  Uiso   1.00
O208   O     0.52072   0.09837   0.42123   0.00000  Uiso   1.00
O209   O     0.51182   0.08101   0.27820   0.00000  Uiso   1.00
O210   O     0.47914   0.26136   0.26767   0.00000  Uiso   1.00
O211   O     0.40785   0.13251   0.23607   0.00000  Uiso   1.00
O212   O     0.60119   0.19179   0.21805   0.00000  Uiso   1.00
O213   O     0.40323   0.18960   0.27820   0.00000  Uiso   1.00
O214   O     0.58773   0.15277   0.26767   0.00000  Uiso   1.00
O215   O     0.47133   0.06903   0.23607   0.00000  Uiso   1.00
O216   O     0.53771   0.25527   0.21805   0.00000  Uiso   1.00
Zn217  Zn    0.52577   0.14090   0.28277   0.00000  Uiso   1.00
Zn218  Zn    0.46792   0.12378   0.22257   0.00000  Uiso   1.00
Zn219  Zn    0.54500   0.19664   0.21188   0.00000  Uiso   1.00
Zn220  Zn    0.46131   0.20535   0.28277   0.00000  Uiso   1.00
C221   C     0.71948   0.15984   0.25874   0.00000  Uiso   1.00
C222   C     0.85416   0.11616   0.45908   0.00000  Uiso   1.00
C223   C     0.87679   0.09759   0.47917   0.00000  Uiso   1.00
C224   C     0.94772   0.17361   0.24163   0.00000  Uiso   1.00
C225   C     0.86719   0.10521   0.02130   0.00000  Uiso   1.00
C226   C     0.84553   0.14009   0.04038   0.00000  Uiso   1.00
C227   C     0.87642   0.07882   0.04563   0.00000  Uiso   1.00
C228   C     0.87727   0.09446   0.08468   0.00000  Uiso   1.00
C229   C     0.85078   0.15856   0.07771   0.00000  Uiso   1.00
C230   C     0.99356   0.17694   0.24012   0.00000  Uiso   1.00
C231   C     0.67401   0.15544   0.26348   0.00000  Uiso   1.00
C232   C     0.76076   0.21084   0.42376   0.00000  Uiso   1.00
C233   C     0.84374   0.32167   0.23539   0.00000  Uiso   1.00
C234   C     0.81779   0.01321   0.26424   0.00000  Uiso   1.00
C235   C     0.82237   0.05658   0.25937   0.00000  Uiso   1.00
C236   C     0.84278   0.27762   0.24069   0.00000  Uiso   1.00
C237   C     0.85459   0.14552   0.14385   0.00000  Uiso   1.00
C238   C     0.81208   0.18812   0.35651   0.00000  Uiso   1.00
C239   C     0.80020   0.19512   0.40074   0.00000  Uiso   1.00
C240   C     0.86434   0.13435   0.10072   0.00000  Uiso   1.00
C241   C     0.74791   0.20937   0.46491   0.00000  Uiso   1.00
C242   C     0.87708   0.03210   0.03381   0.00000  Uiso   1.00
C243   C     0.82727   0.18253   0.42074   0.00000  Uiso   1.00
C244   C     0.83867   0.00709   0.06011   0.00000  Uiso   1.00
C245   C     0.97906   0.12461   0.29193   0.00000  Uiso   1.00
C246   C     0.66984   0.10109   0.31157   0.00000  Uiso   1.00
C247   C     0.87331   0.00709   0.19770   0.00000  Uiso   1.00
C248   C     0.89747   0.31105   0.16347   0.00000  Uiso   1.00
C249   C     0.78665   0.33290   0.30330   0.00000  Uiso   1.00
C250   C     0.76339   0.03408   0.33205   0.00000  Uiso   1.00
C251   C     0.84881   0.20536   0.08994   0.00000  Uiso   1.00
C252   C     0.88190   0.23092   0.05954   0.00000  Uiso   1.00
C253   C     0.91497   0.07484   0.45435   0.00000  Uiso   1.00
C254   C     0.80896   0.17247   0.46044   0.00000  Uiso   1.00
C255   C     0.94901   0.10345   0.42770   0.00000  Uiso   1.00
C256   C     0.73189   0.23082   0.40676   0.00000  Uiso   1.00
C257   C     0.70134   0.19829   0.39025   0.00000  Uiso   1.00
C258   C     0.87621   0.18878   0.40258   0.00000  Uiso   1.00
C259   C     0.89946   0.21602   0.43054   0.00000  Uiso   1.00
C260   C     0.77108   0.19004   0.48317   0.00000  Uiso   1.00
C261   C     0.82832   0.14830   0.47949   0.00000  Uiso   1.00
C262   C     0.81973   0.15552   0.02123   0.00000  Uiso   1.00
C263   C     0.78181   0.17285   0.04324   0.00000  Uiso   1.00
C264   C     0.75703   0.18878   0.02429   0.00000  Uiso   1.00
H265   H     0.72758   0.20133   0.04198   0.00000  Uiso   1.00
H266   H     0.69215   0.08159   0.28876   0.00000  Uiso   1.00
H267   H     0.68808   0.12304   0.32920   0.00000  Uiso   1.00
H268   H     0.97970   0.08033   0.33193   0.00000  Uiso   1.00
H269   H     0.95577   0.14166   0.31633   0.00000  Uiso   1.00
H270   H     0.96145   0.10055   0.27523   0.00000  Uiso   1.00
H271   H     0.92329   0.29881   0.17163   0.00000  Uiso   1.00
H272   H     0.87488   0.28537   0.15455   0.00000  Uiso   1.00
H273   H     0.91318   0.32850   0.13729   0.00000  Uiso   1.00
H274   H     0.85333   0.02256   0.18470   0.00000  Uiso   1.00
H275   H     0.89737   0.03130   0.20648   0.00000  Uiso   1.00
H276   H     0.71869   0.22226   0.48282   0.00000  Uiso   1.00
H277   H     0.78673   0.05761   0.34269   0.00000  Uiso   1.00
H278   H     0.74472   0.04927   0.31747   0.00000  Uiso   1.00
H279   H     0.74062   0.02045   0.35835   0.00000  Uiso   1.00
H280   H     0.76104   0.30944   0.29624   0.00000  Uiso   1.00
H281   H     0.80464   0.31917   0.31968   0.00000  Uiso   1.00
H282   H     0.91441   0.22100   0.05394   0.00000  Uiso   1.00
H283   H     0.87327   0.22740   0.03108   0.00000  Uiso   1.00
H284   H     0.88294   0.26431   0.07119   0.00000  Uiso   1.00
H285   H     0.81662   0.21506   0.09465   0.00000  Uiso   1.00
H286   H     0.85593   0.21532   0.11868   0.00000  Uiso   1.00
H287   H     0.76949   0.17146   0.07500   0.00000  Uiso   1.00
H288   H     0.89762   0.08639   0.12967   0.00000  Uiso   1.00
H289   H     0.93688   0.11281   0.40443   0.00000  Uiso   1.00
H290   H     0.95858   0.13163   0.44603   0.00000  Uiso   1.00
H291   H     0.97790   0.08707   0.41266   0.00000  Uiso   1.00
H292   H     0.93189   0.06382   0.47325   0.00000  Uiso   1.00
H293   H     0.90391   0.04756   0.43584   0.00000  Uiso   1.00
H294   H     0.68380   0.21341   0.37452   0.00000  Uiso   1.00
H295   H     0.71905   0.17409   0.36924   0.00000  Uiso   1.00
H296   H     0.67758   0.18318   0.41501   0.00000  Uiso   1.00
H297   H     0.71179   0.25171   0.43028   0.00000  Uiso   1.00
H298   H     0.84126   0.00862   0.09085   0.00000  Uiso   1.00
H299   H     0.75087   0.25178   0.38432   0.00000  Uiso   1.00
H300   H     0.88372   0.24484   0.44268   0.00000  Uiso   1.00
H301   H     0.89994   0.19916   0.45541   0.00000  Uiso   1.00
H302   H     0.93340   0.22482   0.41387   0.00000  Uiso   1.00
H303   H     0.89034   0.15911   0.39269   0.00000  Uiso   1.00
H304   H     0.88436   0.20531   0.37558   0.00000  Uiso   1.00
H305   H     0.82692   0.10287   0.41619   0.00000  Uiso   1.00
H306   H     0.80816   0.01885   0.06102   0.00000  Uiso   1.00
H307   H     0.83744   0.30728   0.04762   0.00000  Uiso   1.00
H308   H     0.90762   0.02232   0.03538   0.00000  Uiso   1.00
H309   H     0.87435   0.02298   0.00325   0.00000  Uiso   1.00
H310   H     0.67575   0.21631   0.20013   0.00000  Uiso   1.00
O311   O     0.83333   0.16667   0.25000   0.00000  Uiso   1.00
O312   O     0.82360   0.12393   0.16625   0.00000  Uiso   1.00
O313   O     0.79354   0.20646   0.33749   0.00000  Uiso   1.00
O314   O     0.87755   0.17493   0.15877   0.00000  Uiso   1.00
O315   O     0.83865   0.16135   0.33749   0.00000  Uiso   1.00
O316   O     0.69040   0.20227   0.21462   0.00000  Uiso   1.00
O317   O     0.89060   0.06961   0.10637   0.00000  Uiso   1.00
O318   O     0.85406   0.09837   0.42123   0.00000  Uiso   1.00
O319   O     0.84515   0.08101   0.27820   0.00000  Uiso   1.00
O320   O     0.81247   0.26136   0.26767   0.00000  Uiso   1.00
O321   O     0.74119   0.13251   0.23607   0.00000  Uiso   1.00
O322   O     0.93452   0.19179   0.21805   0.00000  Uiso   1.00
O323   O     0.73656   0.18960   0.27820   0.00000  Uiso   1.00
O324   O     0.92106   0.15277   0.26767   0.00000  Uiso   1.00
O325   O     0.80467   0.06903   0.23607   0.00000  Uiso   1.00
O326   O     0.87104   0.25527   0.21805   0.00000  Uiso   1.00
Zn327  Zn    0.85910   0.14090   0.28277   0.00000  Uiso   1.00
Zn328  Zn    0.80125   0.12378   0.22257   0.00000  Uiso   1.00
Zn329  Zn    0.87833   0.19664   0.21188   0.00000  Uiso   1.00
Zn330  Zn    0.79465   0.20535   0.28277   0.00000  Uiso   1.00
C331   C     0.05282   0.49318   0.25874   0.00000  Uiso   1.00
C332   C     0.18749   0.44949   0.45908   0.00000  Uiso   1.00
C333   C     0.21013   0.43093   0.47917   0.00000  Uiso   1.00
C334   C     0.28105   0.50694   0.24163   0.00000  Uiso   1.00
C335   C     0.20052   0.43855   0.02130   0.00000  Uiso   1.00
C336   C     0.17886   0.47343   0.04038   0.00000  Uiso   1.00
C337   C     0.20975   0.41216   0.04563   0.00000  Uiso   1.00
C338   C     0.21060   0.42779   0.08468   0.00000  Uiso   1.00
C339   C     0.18412   0.49190   0.07771   0.00000  Uiso   1.00
C340   C     0.32689   0.51028   0.24012   0.00000  Uiso   1.00
C341   C     0.00734   0.48878   0.26348   0.00000  Uiso   1.00
C342   C     0.09410   0.54417   0.42376   0.00000  Uiso   1.00
C343   C     0.17707   0.65500   0.23539   0.00000  Uiso   1.00
C344   C     0.15112   0.34655   0.26424   0.00000  Uiso   1.00
C345   C     0.15570   0.38992   0.25937   0.00000  Uiso   1.00
C346   C     0.17611   0.61096   0.24069   0.00000  Uiso   1.00
C347   C     0.18792   0.47886   0.14385   0.00000  Uiso   1.00
C348   C     0.14541   0.52146   0.35651   0.00000  Uiso   1.00
C349   C     0.13353   0.52846   0.40074   0.00000  Uiso   1.00
C350   C     0.19767   0.46769   0.10072   0.00000  Uiso   1.00
C351   C     0.08124   0.54270   0.46491   0.00000  Uiso   1.00
C352   C     0.21041   0.36544   0.03381   0.00000  Uiso   1.00
C353   C     0.16061   0.51586   0.42074   0.00000  Uiso   1.00
C354   C     0.17200   0.34042   0.06011   0.00000  Uiso   1.00
C355   C     0.31239   0.45794   0.29193   0.00000  Uiso   1.00
C356   C     0.00317   0.43443   0.31157   0.00000  Uiso   1.00
C357   C     0.20664   0.34042   0.19770   0.00000  Uiso   1.00
C358   C     0.23081   0.64438   0.16347   0.00000  Uiso   1.00
C359   C     0.11999   0.66623   0.30330   0.00000  Uiso   1.00
C360   C     0.09672   0.36741   0.33205   0.00000  Uiso   1.00
C361   C     0.18214   0.53870   0.08994   0.00000  Uiso   1.00
C362   C     0.21523   0.56426   0.05954   0.00000  Uiso   1.00
C363   C     0.24831   0.40817   0.45435   0.00000  Uiso   1.00
C364   C     0.14229   0.50580   0.46044   0.00000  Uiso   1.00
C365   C     0.28235   0.43679   0.42770   0.00000  Uiso   1.00
C366   C     0.06522   0.56416   0.40676   0.00000  Uiso   1.00
C367   C     0.03468   0.53162   0.39025   0.00000  Uiso   1.00
C368   C     0.20955   0.52212   0.40258   0.00000  Uiso   1.00
C369   C     0.23280   0.54936   0.43054   0.00000  Uiso   1.00
C370   C     0.10442   0.52338   0.48317   0.00000  Uiso   1.00
C371   C     0.16165   0.48164   0.47949   0.00000  Uiso   1.00
C372   C     0.15307   0.48885   0.02123   0.00000  Uiso   1.00
C373   C     0.11514   0.50618   0.04324   0.00000  Uiso   1.00
C374   C     0.09036   0.52212   0.02429   0.00000  Uiso   1.00
H375   H     0.06092   0.53466   0.04198   0.00000  Uiso   1.00
H376   H     0.02549   0.41492   0.28876   0.00000  Uiso   1.00
H377   H     0.02142   0.45637   0.32920   0.00000  Uiso   1.00
H378   H     0.31304   0.41367   0.33193   0.00000  Uiso   1.00
H379   H     0.28910   0.47500   0.31633   0.00000  Uiso   1.00
H380   H     0.29478   0.43389   0.27523   0.00000  Uiso   1.00
H381   H     0.25663   0.63214   0.17163   0.00000  Uiso   1.00
H382   H     0.20821   0.61871   0.15455   0.00000  Uiso   1.00
H383   H     0.24651   0.66183   0.13729   0.00000  Uiso   1.00
H384   H     0.18667   0.35589   0.18470   0.00000  Uiso   1.00
H385   H     0.23071   0.36463   0.20648   0.00000  Uiso   1.00
H386   H     0.05203   0.55560   0.48282   0.00000  Uiso   1.00
H387   H     0.12007   0.39095   0.34269   0.00000  Uiso   1.00
H388   H     0.07805   0.38260   0.31747   0.00000  Uiso   1.00
H389   H     0.07395   0.35378   0.35835   0.00000  Uiso   1.00
H390   H     0.09437   0.64278   0.29624   0.00000  Uiso   1.00
H391   H     0.13797   0.65251   0.31968   0.00000  Uiso   1.00
H392   H     0.24775   0.55433   0.05394   0.00000  Uiso   1.00
H393   H     0.20660   0.56074   0.03108   0.00000  Uiso   1.00
H394   H     0.21627   0.59764   0.07119   0.00000  Uiso   1.00
H395   H     0.14996   0.54840   0.09465   0.00000  Uiso   1.00
H396   H     0.18927   0.54865   0.11868   0.00000  Uiso   1.00
H397   H     0.10282   0.50479   0.07500   0.00000  Uiso   1.00
H398   H     0.23095   0.41973   0.12967   0.00000  Uiso   1.00
H399   H     0.27021   0.44614   0.40443   0.00000  Uiso   1.00
H400   H     0.29191   0.46496   0.44603   0.00000  Uiso   1.00
H401   H     0.31123   0.42040   0.41266   0.00000  Uiso   1.00
H402   H     0.26522   0.39715   0.47325   0.00000  Uiso   1.00
H403   H     0.23724   0.38089   0.43584   0.00000  Uiso   1.00
H404   H     0.01713   0.54674   0.37452   0.00000  Uiso   1.00
H405   H     0.05238   0.50742   0.36924   0.00000  Uiso   1.00
H406   H     0.01092   0.51651   0.41501   0.00000  Uiso   1.00
H407   H     0.04513   0.58504   0.43028   0.00000  Uiso   1.00
H408   H     0.17459   0.34195   0.09085   0.00000  Uiso   1.00
H409   H     0.08421   0.58511   0.38432   0.00000  Uiso   1.00
H410   H     0.21705   0.57818   0.44268   0.00000  Uiso   1.00
H411   H     0.23328   0.53250   0.45541   0.00000  Uiso   1.00
H412   H     0.26673   0.55815   0.41387   0.00000  Uiso   1.00
H413   H     0.22367   0.49244   0.39269   0.00000  Uiso   1.00
H414   H     0.21770   0.53865   0.37558   0.00000  Uiso   1.00
H415   H     0.16025   0.43620   0.41619   0.00000  Uiso   1.00
H416   H     0.14149   0.35218   0.06102   0.00000  Uiso   1.00
H417   H     0.17077   0.64062   0.04762   0.00000  Uiso   1.00
H418   H     0.24096   0.35566   0.03538   0.00000  Uiso   1.00
H419   H     0.20769   0.35632   0.00325   0.00000  Uiso   1.00
H420   H     0.00908   0.54965   0.20013   0.00000  Uiso   1.00
O421   O     0.16667   0.50000   0.25000   0.00000  Uiso   1.00
O422   O     0.15693   0.45726   0.16625   0.00000  Uiso   1.00
O423   O     0.12687   0.53979   0.33749   0.00000  Uiso   1.00
O424   O     0.21088   0.50826   0.15877   0.00000  Uiso   1.00
O425   O     0.17198   0.49468   0.33749   0.00000  Uiso   1.00
O426   O     0.02374   0.53561   0.21462   0.00000  Uiso   1.00
O427   O     0.22393   0.40295   0.10637   0.00000  Uiso   1.00
O428   O     0.18739   0.43171   0.42123   0.00000  Uiso   1.00
O429   O     0.17849   0.41434   0.27820   0.00000  Uiso   1.00
O430   O     0.14581   0.59469   0.26767   0.00000  Uiso   1.00
O431   O     0.07452   0.46584   0.23607   0.00000  Uiso   1.00
O432   O     0.26785   0.52512   0.21805   0.00000  Uiso   1.00
O433   O     0.06990   0.52293   0.27820   0.00000  Uiso   1.00
O434   O     0.25440   0.48610   0.26767   0.00000  Uiso   1.00
O435   O     0.13800   0.40236   0.23607   0.00000  Uiso   1.00
O436   O     0.20437   0.58860   0.21805   0.00000  Uiso   1.00
Zn437  Zn    0.19244   0.47423   0.28277   0.00000  Uiso   1.00
Zn438  Zn    0.13459   0.45711   0.22257   0.00000  Uiso   1.00
Zn439  Zn    0.21166   0.52997   0.21188   0.00000  Uiso   1.00
Zn440  Zn    0.12798   0.53868   0.28277   0.00000  Uiso   1.00
C441   C     0.38615   0.49318   0.25874   0.00000  Uiso   1.00
C442   C     0.52082   0.44949   0.45908   0.00000  Uiso   1.00
C443   C     0.54346   0.43093   0.47917   0.00000  Uiso   1.00
C444   C     0.61438   0.50694   0.24163   0.00000  Uiso   1.00
C445   C     0.53385   0.43855   0.02130   0.00000  Uiso   1.00
C446   C     0.51219   0.47343   0.04038   0.00000  Uiso   1.00
C447   C     0.54309   0.41216   0.04563   0.00000  Uiso   1.00
C448   C     0.54394   0.42779   0.08468   0.00000  Uiso   1.00
C449   C     0.51745   0.49190   0.07771   0.00000  Uiso   1.00
C450   C     0.66023   0.51028   0.24012   0.00000  Uiso   1.00
C451   C     0.34067   0.48878   0.26348   0.00000  Uiso   1.00
C452   C     0.42743   0.54417   0.42376   0.00000  Uiso   1.00
C453   C     0.51040   0.65500   0.23539   0.00000  Uiso   1.00
C454   C     0.48446   0.34655   0.26424   0.00000  Uiso   1.00
C455   C     0.48903   0.38992   0.25937   0.00000  Uiso   1.00
C456   C     0.50944   0.61096   0.24069   0.00000  Uiso   1.00
C457   C     0.52126   0.47886   0.14385   0.00000  Uiso   1.00
C458   C     0.47874   0.52146   0.35651   0.00000  Uiso   1.00
C459   C     0.46687   0.52846   0.40074   0.00000  Uiso   1.00
C460   C     0.53100   0.46769   0.10072   0.00000  Uiso   1.00
C461   C     0.41458   0.54270   0.46491   0.00000  Uiso   1.00
C462   C     0.54375   0.36544   0.03381   0.00000  Uiso   1.00
C463   C     0.49394   0.51586   0.42074   0.00000  Uiso   1.00
C464   C     0.50533   0.34042   0.06011   0.00000  Uiso   1.00
C465   C     0.64572   0.45794   0.29193   0.00000  Uiso   1.00
C466   C     0.33651   0.43443   0.31157   0.00000  Uiso   1.00
C467   C     0.53997   0.34042   0.19770   0.00000  Uiso   1.00
C468   C     0.56414   0.64438   0.16347   0.00000  Uiso   1.00
C469   C     0.45332   0.66623   0.30330   0.00000  Uiso   1.00
C470   C     0.43006   0.36741   0.33205   0.00000  Uiso   1.00
C471   C     0.51547   0.53870   0.08994   0.00000  Uiso   1.00
C472   C     0.54857   0.56426   0.05954   0.00000  Uiso   1.00
C473   C     0.58164   0.40817   0.45435   0.00000  Uiso   1.00
C474   C     0.47563   0.50580   0.46044   0.00000  Uiso   1.00
C475   C     0.61568   0.43679   0.42770   0.00000  Uiso   1.00
C476   C     0.39855   0.56416   0.40676   0.00000  Uiso   1.00
C477   C     0.36801   0.53162   0.39025   0.00000  Uiso   1.00
C478   C     0.54288   0.52212   0.40258   0.00000  Uiso   1.00
C479   C     0.56613   0.54936   0.43054   0.00000  Uiso   1.00
C480   C     0.43775   0.52338   0.48317   0.00000  Uiso   1.00
C481   C     0.49499   0.48164   0.47949   0.00000  Uiso   1.00
C482   C     0.48640   0.48885   0.02123   0.00000  Uiso   1.00
C483   C     0.44847   0.50618   0.04324   0.00000  Uiso   1.00
C484   C     0.42370   0.52212   0.02429   0.00000  Uiso   1.00
H485   H     0.39425   0.53466   0.04198   0.00000  Uiso   1.00
H486   H     0.35882   0.41492   0.28876   0.00000  Uiso   1.00
H487   H     0.35475   0.45637   0.32920   0.00000  Uiso   1.00
H488   H     0.64637   0.41367   0.33193   0.00000  Uiso   1.00
H489   H     0.62243   0.47500   0.31633   0.00000  Uiso   1.00
H490   H     0.62811   0.43389   0.27523   0.00000  Uiso   1.00
H491   H     0.58996   0.63214   0.17163   0.00000  Uiso   1.00
H492   H     0.54154   0.61871   0.15455   0.00000  Uiso   1.00
H493   H     0.57984   0.66183   0.13729   0.00000  Uiso   1.00
H494   H     0.52000   0.35589   0.18470   0.00000  Uiso   1.00
H495   H     0.56404   0.36463   0.20648   0.00000  Uiso   1.00
H496   H     0.38536   0.55560   0.48282   0.00000  Uiso   1.00
H497   H     0.45340   0.39095   0.34269   0.00000  Uiso   1.00
H498   H     0.41139   0.38260   0.31747   0.00000  Uiso   1.00
H499   H     0.40729   0.35378   0.35835   0.00000  Uiso   1.00
H500   H     0.42771   0.64278   0.29624   0.00000  Uiso   1.00
H501   H     0.47131   0.65251   0.31968   0.00000  Uiso   1.00
H502   H     0.58108   0.55433   0.05394   0.00000  Uiso   1.00
H503   H     0.53994   0.56074   0.03108   0.00000  Uiso   1.00
H504   H     0.54960   0.59764   0.07119   0.00000  Uiso   1.00
H505   H     0.48329   0.54840   0.09465   0.00000  Uiso   1.00
H506   H     0.52260   0.54865   0.11868   0.00000  Uiso   1.00
H507   H     0.43616   0.50479   0.07500   0.00000  Uiso   1.00
H508   H     0.56429   0.41973   0.12967   0.00000  Uiso   1.00
H509   H     0.60355   0.44614   0.40443   0.00000  Uiso   1.00
H510   H     0.62524   0.46496   0.44603   0.00000  Uiso   1.00
H511   H     0.64457   0.42040   0.41266   0.00000  Uiso   1.00
H512   H     0.59855   0.39715   0.47325   0.00000  Uiso   1.00
H513   H     0.57058   0.38089   0.43584   0.00000  Uiso   1.00
H514   H     0.35046   0.54674   0.37452   0.00000  Uiso   1.00
H515   H     0.38572   0.50742   0.36924   0.00000  Uiso   1.00
H516   H     0.34425   0.51651   0.41501   0.00000  Uiso   1.00
H517   H     0.37846   0.58504   0.43028   0.00000  Uiso   1.00
H518   H     0.50792   0.34195   0.09085   0.00000  Uiso   1.00
H519   H     0.41754   0.58511   0.38432   0.00000  Uiso   1.00
H520   H     0.55038   0.57818   0.44268   0.00000  Uiso   1.00
H521   H     0.56661   0.53250   0.45541   0.00000  Uiso   1.00
H522   H     0.60006   0.55815   0.41387   0.00000  Uiso   1.00
H523   H     0.55700   0.49244   0.39269   0.00000  Uiso   1.00
H524   H     0.55103   0.53865   0.37558   0.00000  Uiso   1.00
H525   H     0.49358   0.43620   0.41619   0.00000  Uiso   1.00
H526   H     0.47482   0.35218   0.06102   0.00000  Uiso   1.00
H527   H     0.50411   0.64062   0.04762   0.00000  Uiso   1.00
H528   H     0.57429   0.35566   0.03538   0.00000  Uiso   1.00
H529   H     0.54102   0.35632   0.00325   0.00000  Uiso   1.00
H530   H     0.34242   0.54965   0.20013   0.00000  Uiso   1.00
O531   O     0.50000   0.50000   0.25000   0.00000  Uiso   1.00
O532   O     0.49027   0.45726   0.16625   0.00000  Uiso   1.00
O533   O     0.46020   0.53979   0.33749   0.00000  Uiso   1.00
O534   O     0.54421   0.50826   0.15877   0.00000  Uiso   1.00
O535   O     0.50532   0.49468   0.33749   0.00000  Uiso   1.00
O536   O     0.35707   0.53561   0.21462   0.00000  Uiso   1.00
O537   O     0.55727   0.40295   0.10637   0.00000  Uiso   1.00
O538   O     0.52072   0.43171   0.42123   0.00000  Uiso   1.00
O539   O     0.51182   0.41434   0.27820   0.00000  Uiso   1.00
O540   O     0.47914   0.59469   0.26767   0.00000  Uiso   1.00
O541   O     0.40785   0.46584   0.23607   0.00000  Uiso   1.00
O542   O     0.60119   0.52512   0.21805   0.00000  Uiso   1.00
O543   O     0.40323   0.52293   0.27820   0.00000  Uiso   1.00
O544   O     0.58773   0.48610   0.26767   0.00000  Uiso   1.00
O545   O     0.47133   0.40236   0.23607   0.00000  Uiso   1.00
O546   O     0.53771   0.58860   0.21805   0.00000  Uiso   1.00
Zn547  Zn    0.52577   0.47423   0.28277   0.00000  Uiso   1.00
Zn548  Zn    0.46792   0.45711   0.22257   0.00000  Uiso   1.00
Zn549  Zn    0.54500   0.52997   0.21188   0.00000  Uiso   1.00
Zn550  Zn    0.46131   0.53868   0.28277   0.00000  Uiso   1.00
C551   C     0.71948   0.49318   0.25874   0.00000  Uiso   1.00
C552   C     0.85416   0.44949   0.45908   0.00000  Uiso   1.00
C553   C     0.87679   0.43093   0.47917   0.00000  Uiso   1.00
C554   C     0.94772   0.50694   0.24163   0.00000  Uiso   1.00
C555   C     0.86719   0.43855   0.02130   0.00000  Uiso   1.00
C556   C     0.84553   0.47343   0.04038   0.00000  Uiso   1.00
C557   C     0.87642   0.41216   0.04563   0.00000  Uiso   1.00
C558   C     0.87727   0.42779   0.08468   0.00000  Uiso   1.00
C559   C     0.85078   0.49190   0.07771   0.00000  Uiso   1.00
C560   C     0.99356   0.51028   0.24012   0.00000  Uiso   1.00
C561   C     0.67401   0.48878   0.26348   0.00000  Uiso   1.00
C562   C     0.76076   0.54417   0.42376   0.00000  Uiso   1.00
C563   C     0.84374   0.65500   0.23539   0.00000  Uiso   1.00
C564   C     0.81779   0.34655   0.26424   0.00000  Uiso   1.00
C565   C     0.82237   0.38992   0.25937   0.00000  Uiso   1.00
C566   C     0.84278   0.61096   0.24069   0.00000  Uiso   1.00
C567   C     0.85459   0.47886   0.14385   0.00000  Uiso   1.00
C568   C     0.81208   0.52146   0.35651   0.00000  Uiso   1.00
C569   C     0.80020   0.52846   0.40074   0.00000  Uiso   1.00
C570   C     0.86434   0.46769   0.10072   0.00000  Uiso   1.00
C571   C     0.74791   0.54270   0.46491   0.00000  Uiso   1.00
C572   C     0.87708   0.36544   0.03381   0.00000  Uiso   1.00
C573   C     0.82727   0.51586   0.42074   0.00000  Uiso   1.00
C574   C     0.83867   0.34042   0.06011   0.00000  Uiso   1.00
C575   C     0.97906   0.45794   0.29193   0.00000  Uiso   1.00
C576   C     0.66984   0.43443   0.31157   0.00000  Uiso   1.00
C577   C     0.87331   0.34042   0.19770   0.00000  Uiso   1.00
C578   C     0.89747   0.64438   0.16347   0.00000  Uiso   1.00
C579   C     0.78665   0.66623   0.30330   0.00000  Uiso   1.00
C580   C     0.76339   0.36741   0.33205   0.00000  Uiso   1.00
C581   C     0.84881   0.53870   0.08994   0.00000  Uiso   1.00
C582   C     0.88190   0.56426   0.05954   0.00000  Uiso   1.00
C583   C     0.91497   0.40817   0.45435   0.00000  Uiso   1.00
C584   C     0.80896   0.50580   0.46044   0.00000  Uiso   1.00
C585   C     0.94901   0.43679   0.42770   0.00000  Uiso   1.00
C586   C     0.73189   0.56416   0.40676   0.00000  Uiso   1.00
C587   C     0.70134   0.53162   0.39025   0.00000  Uiso   1.00
C588   C     0.87621   0.52212   0.40258   0.00000  Uiso   1.00
C589   C     0.89946   0.54936   0.43054   0.00000  Uiso   1.00
C590   C     0.77108   0.52338   0.48317   0.00000  Uiso   1.00
C591   C     0.82832   0.48164   0.47949   0.00000  Uiso   1.00
C592   C     0.81973   0.48885   0.02123   0.00000  Uiso   1.00
C593   C     0.78181   0.50618   0.04324   0.00000  Uiso   1.00
C594   C     0.75703   0.52212   0.02429   0.00000  Uiso   1.00
H595   H     0.72758   0.53466   0.04198   0.00000  Uiso   1.00
H596   H     0.69215   0.41492   0.28876   0.00000  Uiso   1.00
H597   H     0.68808   0.45637   0.32920   0.00000  Uiso   1.00
H598   H     0.97970   0.41367   0.33193   0.00000  Uiso   1.00
H599   H     0.95577   0.47500   0.31633   0.00000  Uiso   1.00
H600   H     0.96145   0.43389   0.27523   0.00000  Uiso   1.00
H601   H     0.92329   0.63214   0.17163   0.00000  Uiso   1.00
H602   H     0.87488   0.61871   0.15455   0.00000  Uiso   1.00
H603   H     0.91318   0.66183   0.13729   0.00000  Uiso   1.00
H604   H     0.85333   0.35589   0.18470   0.00000  Uiso   1.00
H605   H     0.89737   0.36463   0.20648   0.00000  Uiso   1.00
H606   H     0.71869   0.55560   0.48282   0.00000  Uiso   1.00
H607   H     0.78673   0.39095   0.34269   0.00000  Uiso   1.00
H608   H     0.74472   0.38260   0.31747   0.00000  Uiso   1.00
H609   H     0.74062   0.35378   0.35835   0.00000  Uiso   1.00
H610   H     0.76104   0.64278   0.29624   0.00000  Uiso   1.00
H611   H     0.80464   0.65251   0.31968   0.00000  Uiso   1.00
H612   H     0.91441   0.55433   0.05394   0.00000  Uiso   1.00
H613   H     0.87327   0.56074   0.03108   0.00000  Uiso   1.00
H614   H     0.88294   0.59764   0.07119   0.00000  Uiso   1.00
H615   H     0.81662   0.54840   0.09465   0.00000  Uiso   1.00
H616   H     0.85593   0.54865   0.11868   0.00000  Uiso   1.00
H617   H     0.76949   0.50479   0.07500   0.00000  Uiso   1.00
H618   H     0.89762   0.41973   0.12967   0.00000  Uiso   1.00
H619   H     0.93688   0.44614   0.40443   0.00000  Uiso   1.00
H620   H     0.95858   0.46496   0.44603   0.00000  Uiso   1.00
H621   H     0.97790   0.42040   0.41266   0.00000  Uiso   1.00
H622   H     0.93189   0.39715   0.47325   0.00000  Uiso   1.00
H623   H     0.90391   0.38089   0.43584   0.00000  Uiso   1.00
H624   H     0.68380   0.54674   0.37452   0.00000  Uiso   1.00
H625   H     0.71905   0.50742   0.36924   0.00000  Uiso   1.00
H626   H     0.67758   0.51651   0.41501   0.00000  Uiso   1.00
H627   H     0.71179   0.58504   0.43028   0.00000  Uiso   1.00
H628   H     0.84126   0.34195   0.09085   0.00000  Uiso   1.00
H629   H     0.75087   0.58511   0.38432   0.00000  Uiso   1.00
H630   H     0.88372   0.57818   0.44268   0.00000  Uiso   1.00
H631   H     0.89994   0.53250   0.45541   0.00000  Uiso   1.00
H632   H     0.93340   0.55815   0.41387   0.00000  Uiso   1.00
H633   H     0.89034   0.49244   0.39269   0.00000  Uiso   1.00
H634   H     0.88436   0.53865   0.37558   0.00000  Uiso   1.00
H635   H     0.82692   0.43620   0.41619   0.00000  Uiso   1.00
H636   H     0.80816   0.35218   0.06102   0.00000  Uiso   1.00
H637   H     0.83744   0.64062   0.04762   0.00000  Uiso   1.00
H638   H     0.90762   0.35566   0.03538   0.00000  Uiso   1.00
H639   H     0.87435   0.35632   0.00325   0.00000  Uiso   1.00
H640   H     0.67575   0.54965   0.20013   0.00000  Uiso   1.00
O641   O     0.83333   0.50000   0.25000   0.00000  Uiso   1.00
O642   O     0.82360   0.45726   0.16625   0.00000  Uiso   1.00
O643   O     0.79354   0.53979   0.33749   0.00000  Uiso   1.00
O644   O     0.87755   0.50826   0.15877   0.00000  Uiso   1.00
O645   O     0.83865   0.49468   0.33749   0.00000  Uiso   1.00
O646   O     0.69040   0.53561   0.21462   0.00000  Uiso   1.00
O647   O     0.89060   0.40295   0.10637   0.00000  Uiso   1.00
O648   O     0.85406   0.43171   0.42123   0.00000  Uiso   1.00
O649   O     0.84515   0.41434   0.27820   0.00000  Uiso   1.00
O650   O     0.81247   0.59469   0.26767   0.00000  Uiso   1.00
O651   O     0.74119   0.46584   0.23607   0.00000  Uiso   1.00
O652   O     0.93452   0.52512   0.21805   0.00000  Uiso   1.00
O653   O     0.73656   0.52293   0.27820   0.00000  Uiso   1.00
O654   O     0.92106   0.48610   0.26767   0.00000  Uiso   1.00
O655   O     0.80467   0.40236   0.23607   0.00000  Uiso   1.00
O656   O     0.87104   0.58860   0.21805   0.00000  Uiso   1.00
Zn657  Zn    0.85910   0.47423   0.28277   0.00000  Uiso   1.00
Zn658  Zn    0.80125   0.45711   0.22257   0.00000  Uiso   1.00
Zn659  Zn    0.87833   0.52997   0.21188   0.00000  Uiso   1.00
Zn660  Zn    0.79465   0.53868   0.28277   0.00000  Uiso   1.00
C661   C     0.05282   0.82651   0.25874   0.00000  Uiso   1.00
C662   C     0.18749   0.78282   0.45908   0.00000  Uiso   1.00
C663   C     0.21013   0.76426   0.47917   0.00000  Uiso   1.00
C664   C     0.28105   0.84028   0.24163   0.00000  Uiso   1.00
C665   C     0.20052   0.77188   0.02130   0.00000  Uiso   1.00
C666   C     0.17886   0.80676   0.04038   0.00000  Uiso   1.00
C667   C     0.20975   0.74549   0.04563   0.00000  Uiso   1.00
C668   C     0.21060   0.76112   0.08468   0.00000  Uiso   1.00
C669   C     0.18412   0.82523   0.07771   0.00000  Uiso   1.00
C670   C     0.32689   0.84361   0.24012   0.00000  Uiso   1.00
C671   C     0.00734   0.82211   0.26348   0.00000  Uiso   1.00
C672   C     0.09410   0.87751   0.42376   0.00000  Uiso   1.00
C673   C     0.17707   0.98833   0.23539   0.00000  Uiso   1.00
C674   C     0.15112   0.67988   0.26424   0.00000  Uiso   1.00
C675   C     0.15570   0.72325   0.25937   0.00000  Uiso   1.00
C676   C     0.17611   0.94429   0.24069   0.00000  Uiso   1.00
C677   C     0.18792   0.81219   0.14385   0.00000  Uiso   1.00
C678   C     0.14541   0.85479   0.35651   0.00000  Uiso   1.00
C679   C     0.13353   0.86179   0.40074   0.00000  Uiso   1.00
C680   C     0.19767   0.80102   0.10072   0.00000  Uiso   1.00
C681   C     0.08124   0.87604   0.46491   0.00000  Uiso   1.00
C682   C     0.21041   0.69877   0.03381   0.00000  Uiso   1.00
C683   C     0.16061   0.84920   0.42074   0.00000  Uiso   1.00
C684   C     0.17200   0.67376   0.06011   0.00000  Uiso   1.00
C685   C     0.31239   0.79128   0.29193   0.00000  Uiso   1.00
C686   C     0.00317   0.76776   0.31157   0.00000  Uiso   1.00
C687   C     0.20664   0.67375   0.19770   0.00000  Uiso   1.00
C688   C     0.23081   0.97772   0.16347   0.00000  Uiso   1.00
C689   C     0.11999   0.99956   0.30330   0.00000  Uiso   1.00
C690   C     0.09672   0.70074   0.33205   0.00000  Uiso   1.00
C691   C     0.18214   0.87203   0.08994   0.00000  Uiso   1.00
C692   C     0.21523   0.89759   0.05954   0.00000  Uiso   1.00
C693   C     0.24831   0.74150   0.45435   0.00000  Uiso   1.00
C694   C     0.14229   0.83914   0.46044   0.00000  Uiso   1.00
C695   C     0.28235   0.77012   0.42770   0.00000  Uiso   1.00
C696   C     0.06522   0.89749   0.40676   0.00000  Uiso   1.00
C697   C     0.03468   0.86496   0.39025   0.00000  Uiso   1.00
C698   C     0.20955   0.85545   0.40258   0.00000  Uiso   1.00
C699   C     0.23280   0.88269   0.43054   0.00000  Uiso   1.00
C700   C     0.10442   0.85671   0.48317   0.00000  Uiso   1.00
C701   C     0.16165   0.81497   0.47949   0.00000  Uiso   1.00
C702   C     0.15307   0.82218   0.02123   0.00000  Uiso   1.00
C703   C     0.11514   0.83952   0.04324   0.00000  Uiso   1.00
C704   C     0.09036   0.85545   0.02429   0.00000  Uiso   1.00
H705   H     0.06092   0.86800   0.04198   0.00000  Uiso   1.00
H706   H     0.02549   0.74825   0.28876   0.00000  Uiso   1.00
H707   H     0.02142   0.78971   0.32920   0.00000  Uiso   1.00
H708   H     0.31304   0.74700   0.33193   0.00000  Uiso   1.00
H709   H     0.28910   0.80833   0.31633   0.00000  Uiso   1.00
H710   H     0.29478   0.76722   0.27523   0.00000  Uiso   1.00
H711   H     0.25663   0.96547   0.17163   0.00000  Uiso   1.00
H712   H     0.20821   0.95204   0.15455   0.00000  Uiso   1.00
H713   H     0.24651   0.99517   0.13729   0.00000  Uiso   1.00
H714   H     0.18667   0.68922   0.18470   0.00000  Uiso   1.00
H715   H     0.23071   0.69797   0.20648   0.00000  Uiso   1.00
H716   H     0.05203   0.88893   0.48282   0.00000  Uiso   1.00
H717   H     0.12007   0.72428   0.34269   0.00000  Uiso   1.00
H718   H     0.07805   0.71594   0.31747   0.00000  Uiso   1.00
H719   H     0.07395   0.68712   0.35835   0.00000  Uiso   1.00
H720   H     0.09437   0.97611   0.29624   0.00000  Uiso   1.00
H721   H     0.13797   0.98584   0.31968   0.00000  Uiso   1.00
H722   H     0.24775   0.88766   0.05394   0.00000  Uiso   1.00
H723   H     0.20660   0.89407   0.03108   0.00000  Uiso   1.00
H724   H     0.21627   0.93097   0.07119   0.00000  Uiso   1.00
H725   H     0.14996   0.88173   0.09465   0.00000  Uiso   1.00
H726   H     0.18927   0.88199   0.11868   0.00000  Uiso   1.00
H727   H     0.10282   0.83812   0.07500   0.00000  Uiso   1.00
H728   H     0.23095   0.75306   0.12967   0.00000  Uiso   1.00
H729   H     0.27021   0.77948   0.40443   0.00000  Uiso   1.00
H730   H     0.29191   0.79829   0.44603   0.00000  Uiso   1.00
H731   H     0.31123   0.75373   0.41266   0.00000  Uiso   1.00
H732   H     0.26522   0.73049   0.47325   0.00000  Uiso   1.00
H733   H     0.23724   0.71423   0.43584   0.00000  Uiso   1.00
H734   H     0.01713   0.88007   0.37452   0.00000  Uiso   1.00
H735   H     0.05238   0.84076   0.36924   0.00000  Uiso   1.00
H736   H     0.01092   0.84984   0.41501   0.00000  Uiso   1.00
H737   H     0.04513   0.91838   0.43028   0.00000  Uiso   1.00
H738   H     0.17459   0.67529   0.09085   0.00000  Uiso   1.00
H739   H     0.08421   0.91844   0.38432   0.00000  Uiso   1.00
H740   H     0.21705   0.91151   0.44268   0.00000  Uiso   1.00
H741   H     0.23328   0.86583   0.45541   0.00000  Uiso   1.00
H742   H     0.26673   0.89148   0.41387   0.00000  Uiso   1.00
H743   H     0.22367   0.82577   0.39269   0.00000  Uiso   1.00
H744   H     0.21770   0.87198   0.37558   0.00000  Uiso   1.00
H745   H     0.16025   0.76953   0.41619   0.00000  Uiso   1.00
H746   H     0.14149   0.68551   0.06102   0.00000  Uiso   1.00
H747   H     0.17077   0.97395   0.04762   0.00000  Uiso   1.00
H748   H     0.24096   0.68899   0.03538   0.00000  Uiso   1.00
H749   H     0.20769   0.68965   0.00325   0.00000  Uiso   1.00
H750   H     0.00908   0.88298   0.20013   0.00000  Uiso   1.00
O751   O     0.16667   0.83333   0.25000   0.00000  Uiso   1.00
O752   O     0.15693   0.79060   0.16625   0.00000  Uiso   1.00
O753   O     0.12687   0.87313   0.33749   0.00000  Uiso   1.00
O754   O     0.21088   0.84159   0.15877   0.00000  Uiso   1.00
O755   O     0.17198   0.82802   0.33749   0.00000  Uiso   1.00
O756   O     0.02374   0.86894   0.21462   0.00000  Uiso   1.00
O757   O     0.22393   0.73628   0.10637   0.00000  Uiso   1.00
O758   O     0.18739   0.76504   0.42123   0.00000  Uiso   1.00
O759   O     0.17849   0.74768   0.27820   0.00000  Uiso   1.00
O760   O     0.14581   0.92803   0.26767   0.00000  Uiso   1.00
O761   O     0.07452   0.79917   0.23607   0.00000  Uiso   1.00
O762   O     0.26785   0.85845   0.21805   0.00000  Uiso   1.00
O763   O     0.06990   0.85627   0.27820   0.00000  Uiso   1.00
O764   O     0.25440   0.81944   0.26767   0.00000  Uiso   1.00
O765   O     0.13800   0.73570   0.23607   0.00000  Uiso   1.00
O766   O     0.20437   0.92193   0.21805   0.00000  Uiso   1.00
Zn767  Zn    0.19244   0.80756   0.28277   0.00000  Uiso   1.00
Zn768  Zn    0.13459   0.79044   0.22257   0.00000  Uiso   1.00
Zn769  Zn    0.21166   0.86331   0.21188   0.00000  Uiso   1.00
Zn770  Zn    0.12798   0.87202   0.28277   0.00000  Uiso   1.00
C771   C     0.38615   0.82651   0.25874   0.00000  Uiso   1.00
C772   C     0.52082   0.78282   0.45908   0.00000  Uiso   1.00
C773   C     0.54346   0.76426   0.47917   0.00000  Uiso   1.00
C774   C     0.61438   0.84028   0.24163   0.00000  Uiso   1.00
C775   C     0.53385   0.77188   0.02130   0.00000  Uiso   1.00
C776   C     0.51219   0.80676   0.04038   0.00000  Uiso   1.00
C777   C     0.54309   0.74549   0.04563   0.00000  Uiso   1.00
C778   C     0.54394   0.76112   0.08468   0.00000  Uiso   1.00
C779   C     0.51745   0.82523   0.07771   0.00000  Uiso   1.00
C780   C     0.66023   0.84361   0.24012   0.00000  Uiso   1.00
C781   C     0.34067   0.82211   0.26348   0.00000  Uiso   1.00
C782   C     0.42743   0.87751   0.42376   0.00000  Uiso   1.00
C783   C     0.51040   0.98833   0.23539   0.00000  Uiso   1.00
C784   C     0.48446   0.67988   0.26424   0.00000  Uiso   1.00
C785   C     0.48903   0.72325   0.25937   0.00000  Uiso   1.00
C786   C     0.50944   0.94429   0.24069   0.00000  Uiso   1.00
C787   C     0.52126   0.81219   0.14385   0.00000  Uiso   1.00
C788   C     0.47874   0.85479   0.35651   0.00000  Uiso   1.00
C789   C     0.46687   0.86179   0.40074   0.00000  Uiso   1.00
C790   C     0.53100   0.80102   0.10072   0.00000  Uiso   1.00
C791   C     0.41458   0.87604   0.46491   0.00000  Uiso   1.00
C792   C     0.54375   0.69877   0.03381   0.00000  Uiso   1.00
C793   C     0.49394   0.84920   0.42074   0.00000  Uiso   1.00
C794   C     0.50533   0.67376   0.06011   0.00000  Uiso   1.00
C795   C     0.64572   0.79128   0.29193   0.00000  Uiso   1.00
C796   C     0.33651   0.76776   0.31157   0.00000  Uiso   1.00
C797   C     0.53997   0.67375   0.19770   0.00000  Uiso   1.00
C798   C     0.56414   0.97772   0.16347   0.00000  Uiso   1.00
C799   C     0.45332   0.99956   0.30330   0.00000  Uiso   1.00
C800   C     0.43006   0.70074   0.33205   0.00000  Uiso   1.00
C801   C     0.51547   0.87203   0.08994   0.00000  Uiso   1.00
C802   C     0.54857   0.89759   0.05954   0.00000  Uiso   1.00
C803   C     0.58164   0.74150   0.45435   0.00000  Uiso   1.00
C804   C     0.47563   0.83914   0.46044   0.00000  Uiso   1.00
C805   C     0.61568   0.77012   0.42770   0.00000  Uiso   1.00
C806   C     0.39855   0.89749   0.40676   0.00000  Uiso   1.00
C807   C     0.36801   0.86496   0.39025   0.00000  Uiso   1.00
C808   C     0.54288   0.85545   0.40258   0.00000  Uiso   1.00
C809   C     0.56613   0.88269   0.43054   0.00000  Uiso   1.00
C810   C     0.43775   0.85671   0.48317   0.00000  Uiso   1.00
C811   C     0.49499   0.81497   0.47949   0.00000  Uiso   1.00
C812   C     0.48640   0.82218   0.02123   0.00000  Uiso   1.00
C813   C     0.44847   0.83952   0.04324   0.00000  Uiso   1.00
C814   C     0.42370   0.85545   0.02429   0.00000  Uiso   1.00
H815   H     0.39425   0.86800   0.04198   0.00000  Uiso   1.00
H816   H     0.35882   0.74825   0.28876   0.00000  Uiso   1.00
H817   H     0.35475   0.78971   0.32920   0.00000  Uiso   1.00
H818   H     0.64637   0.74700   0.33193   0.00000  Uiso   1.00
H819   H     0.62243   0.80833   0.31633   0.00000  Uiso   1.00
H820   H     0.62811   0.76722   0.27523   0.00000  Uiso   1.00
H821   H     0.58996   0.96547   0.17163   0.00000  Uiso   1.00
H822   H     0.54154   0.95204   0.15455   0.00000  Uiso   1.00
H823   H     0.57984   0.99517   0.13729   0.00000  Uiso   1.00
H824   H     0.52000   0.68922   0.18470   0.00000  Uiso   1.00
H825   H     0.56404   0.69797   0.20648   0.00000  Uiso   1.00
H826   H     0.38536   0.88893   0.48282   0.00000  Uiso   1.00
H827   H     0.45340   0.72428   0.34269   0.00000  Uiso   1.00
H828   H     0.41139   0.71594   0.31747   0.00000  Uiso   1.00
H829   H     0.40729   0.68712   0.35835   0.00000  Uiso   1.00
H830   H     0.42771   0.97611   0.29624   0.00000  Uiso   1.00
H831   H     0.47131   0.98584   0.31968   0.00000  Uiso   1.00
H832   H     0.58108   0.88766   0.05394   0.00000  Uiso   1.00
H833   H     0.53994   0.89407   0.03108   0.00000  Uiso   1.00
H834   H     0.54960   0.93097   0.07119   0.00000  Uiso   1.00
H835   H     0.48329   0.88173   0.09465   0.00000  Uiso   1.00
H836   H     0.52260   0.88199   0.11868   0.00000  Uiso   1.00
H837   H     0.43616   0.83812   0.07500   0.00000  Uiso   1.00
H838   H     0.56429   0.75306   0.12967   0.00000  Uiso   1.00
H839   H     0.60355   0.77948   0.40443   0.00000  Uiso   1.00
H840   H     0.62524   0.79829   0.44603   0.00000  Uiso   1.00
H841   H     0.64457   0.75373   0.41266   0.00000  Uiso   1.00
H842   H     0.59855   0.73049   0.47325   0.00000  Uiso   1.00
H843   H     0.57058   0.71423   0.43584   0.00000  Uiso   1.00
H844   H     0.35046   0.88007   0.37452   0.00000  Uiso   1.00
H845   H     0.38572   0.84076   0.36924   0.00000  Uiso   1.00
H846   H     0.34425   0.84984   0.41501   0.00000  Uiso   1.00
H847   H     0.37846   0.91838   0.43028   0.00000  Uiso   1.00
H848   H     0.50792   0.67529   0.09085   0.00000  Uiso   1.00
H849   H     0.41754   0.91844   0.38432   0.00000  Uiso   1.00
H850   H     0.55038   0.91151   0.44268   0.00000  Uiso   1.00
H851   H     0.56661   0.86583   0.45541   0.00000  Uiso   1.00
H852   H     0.60006   0.89148   0.41387   0.00000  Uiso   1.00
H853   H     0.55700   0.82577   0.39269   0.00000  Uiso   1.00
H854   H     0.55103   0.87198   0.37558   0.00000  Uiso   1.00
H855   H     0.49358   0.76953   0.41619   0.00000  Uiso   1.00
H856   H     0.47482   0.68551   0.06102   0.00000  Uiso   1.00
H857   H     0.50411   0.97395   0.04762   0.00000  Uiso   1.00
H858   H     0.57429   0.68899   0.03538   0.00000  Uiso   1.00
H859   H     0.54102   0.68965   0.00325   0.00000  Uiso   1.00
H860   H     0.34242   0.88298   0.20013   0.00000  Uiso   1.00
O861   O     0.50000   0.83333   0.25000   0.00000  Uiso   1.00
O862   O     0.49027   0.79060   0.16625   0.00000  Uiso   1.00
O863   O     0.46020   0.87313   0.33749   0.00000  Uiso   1.00
O864   O     0.54421   0.84159   0.15877   0.00000  Uiso   1.00
O865   O     0.50532   0.82802   0.33749   0.00000  Uiso   1.00
O866   O     0.35707   0.86894   0.21462   0.00000  Uiso   1.00
O867   O     0.55727   0.73628   0.10637   0.00000  Uiso   1.00
O868   O     0.52072   0.76504   0.42123   0.00000  Uiso   1.00
O869   O     0.51182   0.74768   0.27820   0.00000  Uiso   1.00
O870   O     0.47914   0.92803   0.26767   0.00000  Uiso   1.00
O871   O     0.40785   0.79917   0.23607   0.00000  Uiso   1.00
O872   O     0.60119   0.85845   0.21805   0.00000  Uiso   1.00
O873   O     0.40323   0.85627   0.27820   0.00000  Uiso   1.00
O874   O     0.58773   0.81944   0.26767   0.00000  Uiso   1.00
O875   O     0.47133   0.73570   0.23607   0.00000  Uiso   1.00
O876   O     0.53771   0.92193   0.21805   0.00000  Uiso   1.00
Zn877  Zn    0.52577   0.80756   0.28277   0.00000  Uiso   1.00
Zn878  Zn    0.46792   0.79044   0.22257   0.00000  Uiso   1.00
Zn879  Zn    0.54500   0.86331   0.21188   0.00000  Uiso   1.00
Zn880  Zn    0.46131   0.87202   0.28277   0.00000  Uiso   1.00
C881   C     0.71948   0.82651   0.25874   0.00000  Uiso   1.00
C882   C     0.85416   0.78282   0.45908   0.00000  Uiso   1.00
C883   C     0.87679   0.76426   0.47917   0.00000  Uiso   1.00
C884   C     0.94772   0.84028   0.24163   0.00000  Uiso   1.00
C885   C     0.86719   0.77188   0.02130   0.00000  Uiso   1.00
C886   C     0.84553   0.80676   0.04038   0.00000  Uiso   1.00
C887   C     0.87642   0.74549   0.04563   0.00000  Uiso   1.00
C888   C     0.87727   0.76112   0.08468   0.00000  Uiso   1.00
C889   C     0.85078   0.82523   0.07771   0.00000  Uiso   1.00
C890   C     0.99356   0.84361   0.24012   0.00000  Uiso   1.00
C891   C     0.67401   0.82211   0.26348   0.00000  Uiso   1.00
C892   C     0.76076   0.87751   0.42376   0.00000  Uiso   1.00
C893   C     0.84374   0.98833   0.23539   0.00000  Uiso   1.00
C894   C     0.81779   0.67988   0.26424   0.00000  Uiso   1.00
C895   C     0.82237   0.72325   0.25937   0.00000  Uiso   1.00
C896   C     0.84278   0.94429   0.24069   0.00000  Uiso   1.00
C897   C     0.85459   0.81219   0.14385   0.00000  Uiso   1.00
C898   C     0.81208   0.85479   0.35651   0.00000  Uiso   1.00
C899   C     0.80020   0.86179   0.40074   0.00000  Uiso   1.00
C900   C     0.86434   0.80102   0.10072   0.00000  Uiso   1.00
C901   C     0.74791   0.87604   0.46491   0.00000  Uiso   1.00
C902   C     0.87708   0.69877   0.03381   0.00000  Uiso   1.00
C903   C     0.82727   0.84920   0.42074   0.00000  Uiso   1.00
C904   C     0.83867   0.67376   0.06011   0.00000  Uiso   1.00
C905   C     0.97906   0.79128   0.29193   0.00000  Uiso   1.00
C906   C     0.66984   0.76776   0.31157   0.00000  Uiso   1.00
C907   C     0.87331   0.67375   0.19770   0.00000  Uiso   1.00
C908   C     0.89747   0.97772   0.16347   0.00000  Uiso   1.00
C909   C     0.78665   0.99956   0.30330   0.00000  Uiso   1.00
C910   C     0.76339   0.70074   0.33205   0.00000  Uiso   1.00
C911   C     0.84881   0.87203   0.08994   0.00000  Uiso   1.00
C912   C     0.88190   0.89759   0.05954   0.00000  Uiso   1.00
C913   C     0.91497   0.74150   0.45435   0.00000  Uiso   1.00
C914   C     0.80896   0.83914   0.46044   0.00000  Uiso   1.00
C915   C     0.94901   0.77012   0.42770   0.00000  Uiso   1.00
C916   C     0.73189   0.89749   0.40676   0.00000  Uiso   1.00
C917   C     0.70134   0.86496   0.39025   0.00000  Uiso   1.00
C918   C     0.87621   0.85545   0.40258   0.00000  Uiso   1.00
C919   C     0.89946   0.88269   0.43054   0.00000  Uiso   1.00
C920   C     0.77108   0.85671   0.48317   0.00000  Uiso   1.00
C921   C     0.82832   0.81497   0.47949   0.00000  Uiso   1.00
C922   C     0.81973   0.82218   0.02123   0.00000  Uiso   1.00
C923   C     0.78181   0.83952   0.04324   0.00000  Uiso   1.00
C924   C     0.75703   0.85545   0.02429   0.00000  Uiso   1.00
H925   H     0.72758   0.86800   0.04198   0.00000  Uiso   1.00
H926   H     0.69215   0.74825   0.28876   0.00000  Uiso   1.00
H927   H     0.68808   0.78971   0.32920   0.00000  Uiso   1.00
H928   H     0.97970   0.74700   0.33193   0.00000  Uiso   1.00
H929   H     0.95577   0.80833   0.31633   0.00000  Uiso   1.00
H930   H     0.96145   0.76722   0.27523   0.00000  Uiso   1.00
H931   H     0.92329   0.96547   0.17163   0.00000  Uiso   1.00
H932   H     0.87488   0.95204   0.15455   0.00000  Uiso   1.00
H933   H     0.91318   0.99517   0.13729   0.00000  Uiso   1.00
H934   H     0.85333   0.68922   0.18470   0.00000  Uiso   1.00
H935   H     0.89737   0.69797   0.20648   0.00000  Uiso   1.00
H936   H     0.71869   0.88893   0.48282   0.00000  Uiso   1.00
H937   H     0.78673   0.72428   0.34269   0.00000  Uiso   1.00
H938   H     0.74472   0.71594   0.31747   0.00000  Uiso   1.00
H939   H     0.74062   0.68712   0.35835   0.00000  Uiso   1.00
H940   H     0.76104   0.97611   0.29624   0.00000  Uiso   1.00
H941   H     0.80464   0.98584   0.31968   0.00000  Uiso   1.00
H942   H     0.91441   0.88766   0.05394   0.00000  Uiso   1.00
H943   H     0.87327   0.89407   0.03108   0.00000  Uiso   1.00
H944   H     0.88294   0.93097   0.07119   0.00000  Uiso   1.00
H945   H     0.81662   0.88173   0.09465   0.00000  Uiso   1.00
H946   H     0.85593   0.88199   0.11868   0.00000  Uiso   1.00
H947   H     0.76949   0.83812   0.07500   0.00000  Uiso   1.00
H948   H     0.89762   0.75306   0.12967   0.00000  Uiso   1.00
H949   H     0.93688   0.77948   0.40443   0.00000  Uiso   1.00
H950   H     0.95858   0.79829   0.44603   0.00000  Uiso   1.00
H951   H     0.97790   0.75373   0.41266   0.00000  Uiso   1.00
H952   H     0.93189   0.73049   0.47325   0.00000  Uiso   1.00
H953   H     0.90391   0.71423   0.43584   0.00000  Uiso   1.00
H954   H     0.68380   0.88007   0.37452   0.00000  Uiso   1.00
H955   H     0.71905   0.84076   0.36924   0.00000  Uiso   1.00
H956   H     0.67758   0.84984   0.41501   0.00000  Uiso   1.00
H957   H     0.71179   0.91838   0.43028   0.00000  Uiso   1.00
H958   H     0.84126   0.67529   0.09085   0.00000  Uiso   1.00
H959   H     0.75087   0.91844   0.38432   0.00000  Uiso   1.00
H960   H     0.88372   0.91151   0.44268   0.00000  Uiso   1.00
H961   H     0.89994   0.86583   0.45541   0.00000  Uiso   1.00
H962   H     0.93340   0.89148   0.41387   0.00000  Uiso   1.00
H963   H     0.89034   0.82577   0.39269   0.00000  Uiso   1.00
H964   H     0.88436   0.87198   0.37558   0.00000  Uiso   1.00
H965   H     0.82692   0.76953   0.41619   0.00000  Uiso   1.00
H966   H     0.80816   0.68551   0.06102   0.00000  Uiso   1.00
H967   H     0.83744   0.97395   0.04762   0.00000  Uiso   1.00
H968   H     0.90762   0.68899   0.03538   0.00000  Uiso   1.00
H969   H     0.87435   0.68965   0.00325   0.00000  Uiso   1.00
H970   H     0.67575   0.88298   0.20013   0.00000  Uiso   1.00
O971   O     0.83333   0.83333   0.25000   0.00000  Uiso   1.00
O972   O     0.82360   0.79060   0.16625   0.00000  Uiso   1.00
O973   O     0.79354   0.87313   0.33749   0.00000  Uiso   1.00
O974   O     0.87755   0.84159   0.15877   0.00000  Uiso   1.00
O975   O     0.83865   0.82802   0.33749   0.00000  Uiso   1.00
O976   O     0.69040   0.86894   0.21462   0.00000  Uiso   1.00
O977   O     0.89060   0.73628   0.10637   0.00000  Uiso   1.00
O978   O     0.85406   0.76504   0.42123   0.00000  Uiso   1.00
O979   O     0.84515   0.74768   0.27820   0.00000  Uiso   1.00
O980   O     0.81247   0.92803   0.26767   0.00000  Uiso   1.00
O981   O     0.74119   0.79917   0.23607   0.00000  Uiso   1.00
O982   O     0.93452   0.85845   0.21805   0.00000  Uiso   1.00
O983   O     0.73656   0.85627   0.27820   0.00000  Uiso   1.00
O984   O     0.92106   0.81944   0.26767   0.00000  Uiso   1.00
O985   O     0.80467   0.73570   0.23607   0.00000  Uiso   1.00
O986   O     0.87104   0.92193   0.21805   0.00000  Uiso   1.00
Zn987  Zn    0.85910   0.80756   0.28277   0.00000  Uiso   1.00
Zn988  Zn    0.80125   0.79044   0.22257   0.00000  Uiso   1.00
Zn989  Zn    0.87833   0.86331   0.21188   0.00000  Uiso   1.00
Zn990  Zn    0.79465   0.87202   0.28277   0.00000  Uiso   1.00
C991   C     0.05282   0.15984   0.75874   0.00000  Uiso   1.00
C992   C     0.18749   0.11616   0.95908   0.00000  Uiso   1.00
C993   C     0.21013   0.09759   0.97917   0.00000  Uiso   1.00
C994   C     0.28105   0.17361   0.74163   0.00000  Uiso   1.00
C995   C     0.20052   0.10521   0.52130   0.00000  Uiso   1.00
C996   C     0.17886   0.14009   0.54038   0.00000  Uiso   1.00
C997   C     0.20975   0.07882   0.54563   0.00000  Uiso   1.00
C998   C     0.21060   0.09446   0.58468   0.00000  Uiso   1.00
C999   C     0.18412   0.15856   0.57771   0.00000  Uiso   1.00
C1000  C     0.32689   0.17694   0.74012   0.00000  Uiso   1.00
C1001  C     0.00734   0.15544   0.76348   0.00000  Uiso   1.00
C1002  C     0.09410   0.21084   0.92376   0.00000  Uiso   1.00
C1003  C     0.17707   0.32167   0.73539   0.00000  Uiso   1.00
C1004  C     0.15112   0.01321   0.76424   0.00000  Uiso   1.00
C1005  C     0.15570   0.05658   0.75937   0.00000  Uiso   1.00
C1006  C     0.17611   0.27762   0.74069   0.00000  Uiso   1.00
C1007  C     0.18792   0.14552   0.64385   0.00000  Uiso   1.00
C1008  C     0.14541   0.18812   0.85651   0.00000  Uiso   1.00
C1009  C     0.13353   0.19512   0.90074   0.00000  Uiso   1.00
C1010  C     0.19767   0.13435   0.60072   0.00000  Uiso   1.00
C1011  C     0.08124   0.20937   0.96491   0.00000  Uiso   1.00
C1012  C     0.21041   0.03210   0.53381   0.00000  Uiso   1.00
C1013  C     0.16061   0.18253   0.92074   0.00000  Uiso   1.00
C1014  C     0.17200   0.00709   0.56011   0.00000  Uiso   1.00
C1015  C     0.31239   0.12461   0.79193   0.00000  Uiso   1.00
C1016  C     0.00317   0.10109   0.81157   0.00000  Uiso   1.00
C1017  C     0.20664   0.00709   0.69770   0.00000  Uiso   1.00
C1018  C     0.23081   0.31105   0.66347   0.00000  Uiso   1.00
C1019  C     0.11999   0.33290   0.80330   0.00000  Uiso   1.00
C1020  C     0.09672   0.03408   0.83205   0.00000  Uiso   1.00
C1021  C     0.18214   0.20536   0.58994   0.00000  Uiso   1.00
C1022  C     0.21523   0.23092   0.55954   0.00000  Uiso   1.00
C1023  C     0.24831   0.07484   0.95435   0.00000  Uiso   1.00
C1024  C     0.14229   0.17247   0.96044   0.00000  Uiso   1.00
C1025  C     0.28235   0.10345   0.92770   0.00000  Uiso   1.00
C1026  C     0.06522   0.23082   0.90676   0.00000  Uiso   1.00
C1027  C     0.03468   0.19829   0.89025   0.00000  Uiso   1.00
C1028  C     0.20955   0.18878   0.90258   0.00000  Uiso   1.00
C1029  C     0.23280   0.21602   0.93054   0.00000  Uiso   1.00
C1030  C     0.10442   0.19004   0.98317   0.00000  Uiso   1.00
C1031  C     0.16165   0.14830   0.97949   0.00000  Uiso   1.00
C1032  C     0.15307   0.15552   0.52123   0.00000  Uiso   1.00
C1033  C     0.11514   0.17285   0.54324   0.00000  Uiso   1.00
C1034  C     0.09036   0.18878   0.52429   0.00000  Uiso   1.00
H1035  H     0.06092   0.20133   0.54198   0.00000  Uiso   1.00
H1036  H     0.02549   0.08159   0.78876   0.00000  Uiso   1.00
H1037  H     0.02142   0.12304   0.82920   0.00000  Uiso   1.00
H1038  H     0.31304   0.08033   0.83193   0.00000  Uiso   1.00
H1039  H     0.28910   0.14166   0.81633   0.00000  Uiso   1.00
H1040  H     0.29478   0.10055   0.77523   0.00000  Uiso   1.00
H1041  H     0.25663   0.29881   0.67163   0.00000  Uiso   1.00
H1042  H     0.20821   0.28537   0.65455   0.00000  Uiso   1.00
H1043  H     0.24651   0.32850   0.63729   0.00000  Uiso   1.00
H1044  H     0.18667   0.02256   0.68470   0.00000  Uiso   1.00
H1045  H     0.23071   0.03130   0.70648   0.00000  Uiso   1.00
H1046  H     0.05203   0.22226   0.98282   0.00000  Uiso   1.00
H1047  H     0.12007   0.05761   0.84269   0.00000  Uiso   1.00
H1048  H     0.07805   0.04927   0.81747   0.00000  Uiso   1.00
H1049  H     0.07395   0.02045   0.85835   0.00000  Uiso   1.00
H1050  H     0.09437   0.30944   0.79624   0.00000  Uiso   1.00
H1051  H     0.13797   0.31917   0.81968   0.00000  Uiso   1.00
H1052  H     0.24775   0.22100   0.55394   0.00000  Uiso   1.00
H1053  H     0.20660   0.22740   0.53108   0.00000  Uiso   1.00
H1054  H     0.21627   0.26431   0.57119   0.00000  Uiso   1.00
H1055  H     0.14996   0.21506   0.59465   0.00000  Uiso   1.00
H1056  H     0.18927   0.21532   0.61868   0.00000  Uiso   1.00
H1057  H     0.10282   0.17146   0.57500   0.00000  Uiso   1.00
H1058  H     0.23095   0.08639   0.62967   0.00000  Uiso   1.00
H1059  H     0.27021   0.11281   0.90443   0.00000  Uiso   1.00
H1060  H     0.29191   0.13163   0.94603   0.00000  Uiso   1.00
H1061  H     0.31123   0.08707   0.91266   0.00000  Uiso   1.00
H1062  H     0.26522   0.06382   0.97325   0.00000  Uiso   1.00
H1063  H     0.23724   0.04756   0.93584   0.00000  Uiso   1.00
H1064  H     0.01713   0.21341   0.87452   0.00000  Uiso   1.00
H1065  H     0.05238   0.17409   0.86924   0.00000  Uiso   1.00
H1066  H     0.01092   0.18318   0.91501   0.00000  Uiso   1.00
H1067  H     0.04513   0.25171   0.93028   0.00000  Uiso   1.00
H1068  H     0.17459   0.00862   0.59085   0.00000  Uiso   1.00
H1069  H     0.08421   0.25178   0.88432   0.00000  Uiso   1.00
H1070  H     0.21705   0.24484   0.94268   0.00000  Uiso   1.00
H1071  H     0.23328   0.19916   0.95541   0.00000  Uiso   1.00
H1072  H     0.26673   0.22482   0.91387   0.00000  Uiso   1.00
H1073  H     0.22367   0.15911   0.89269   0.00000  Uiso   1.00
H1074  H     0.21770   0.20531   0.87558   0.00000  Uiso   1.00
H1075  H     0.16025   0.10287   0.91619   0.00000  Uiso   1.00
H1076  H     0.14149   0.01885   0.56102   0.00000  Uiso   1.00
H1077  H     0.17077   0.30728   0.54762   0.00000  Uiso   1.00
H1078  H     0.24096   0.02232   0.53538   0.00000  Uiso   1.00
H1079  H     0.20769   0.02298   0.50325   0.00000  Uiso   1.00
H1080  H     0.00908   0.21631   0.70013   0.00000  Uiso   1.00
O1081  O     0.16667   0.16667   0.75000   0.00000  Uiso   1.00
O1082  O     0.15693   0.12393   0.66625   0.00000  Uiso   1.00
O1083  O     0.12687   0.20646   0.83749   0.00000  Uiso   1.00
O1084  O     0.21088   0.17493   0.65877   0.00000  Uiso   1.00
O1085  O     0.17198   0.16135   0.83749   0.00000  Uiso   1.00
O1086  O     0.02374   0.20227   0.71462   0.00000  Uiso   1.00
O1087  O     0.22393   0.06961   0.60637   0.00000  Uiso   1.00
O1088  O     0.18739   0.09837   0.92123   0.00000  Uiso   1.00
O1089  O     0.17849   0.08101   0.77820   0.00000  Uiso   1.00
O1090  O     0.14581   0.26136   0.76767   0.00000  Uiso   1.00
O1091  O     0.07452   0.13251   0.73607   0.00000  Uiso   1.00
O1092  O     0.26785   0.19179   0.71805   0.00000  Uiso   1.00
O1093  O     0.06990   0.18960   0.77820   0.00000  Uiso   1.00
O1094  O     0.25440   0.15277   0.76767   0.00000  Uiso   1.00
O1095  O     0.13800   0.06903   0.73607   0.00000  Uiso   1.00
O1096  O     0.20437   0.25527   0.71805   0.00000  Uiso   1.00
Zn1097 Zn    0.19244   0.14090   0.78277   0.00000  Uiso   1.00
Zn1098 Zn    0.13459   0.12378   0.72257   0.00000  Uiso   1.00
Zn1099 Zn    0.21166   0.19664   0.71188   0.00000  Uiso   1.00
Zn1100 Zn    0.12798   0.20535   0.78277   0.00000  Uiso   1.00
C1101  C     0.38615   0.15984   0.75874   0.00000  Uiso   1.00
C1102  C     0.52082   0.11616   0.95908   0.00000  Uiso   1.00
C1103  C     0.54346   0.09759   0.97917   0.00000  Uiso   1.00
C1104  C     0.61438   0.17361   0.74163   0.00000  Uiso   1.00
C1105  C     0.53385   0.10521   0.52130   0.00000  Uiso   1.00
C1106  C     0.51219   0.14009   0.54038   0.00000  Uiso   1.00
C1107  C     0.54309   0.07882   0.54563   0.00000  Uiso   1.00
C1108  C     0.54394   0.09446   0.58468   0.00000  Uiso   1.00
C1109  C     0.51745   0.15856   0.57771   0.00000  Uiso   1.00
C1110  C     0.66023   0.17694   0.74012   0.00000  Uiso   1.00
C1111  C     0.34067   0.15544   0.76348   0.00000  Uiso   1.00
C1112  C     0.42743   0.21084   0.92376   0.00000  Uiso   1.00
C1113  C     0.51040   0.32167   0.73539   0.00000  Uiso   1.00
C1114  C     0.48446   0.01321   0.76424   0.00000  Uiso   1.00
C1115  C     0.48903   0.05658   0.75937   0.00000  Uiso   1.00
C1116  C     0.50944   0.27762   0.74069   0.00000  Uiso   1.00
C1117  C     0.52126   0.14552   0.64385   0.00000  Uiso   1.00
C1118  C     0.47874   0.18812   0.85651   0.00000  Uiso   1.00
C1119  C     0.46687   0.19512   0.90074   0.00000  Uiso   1.00
C1120  C     0.53100   0.13435   0.60072   0.00000  Uiso   1.00
C1121  C     0.41458   0.20937   0.96491   0.00000  Uiso   1.00
C1122  C     0.54375   0.03210   0.53381   0.00000  Uiso   1.00
C1123  C     0.49394   0.18253   0.92074   0.00000  Uiso   1.00
C1124  C     0.50533   0.00709   0.56011   0.00000  Uiso   1.00
C1125  C     0.64572   0.12461   0.79193   0.00000  Uiso   1.00
C1126  C     0.33651   0.10109   0.81157   0.00000  Uiso   1.00
C1127  C     0.53997   0.00709   0.69770   0.00000  Uiso   1.00
C1128  C     0.56414   0.31105   0.66347   0.00000  Uiso   1.00
C1129  C     0.45332   0.33290   0.80330   0.00000  Uiso   1.00
C1130  C     0.43006   0.03408   0.83205   0.00000  Uiso   1.00
C1131  C     0.51547   0.20536   0.58994   0.00000  Uiso   1.00
C1132  C     0.54857   0.23092   0.55954   0.00000  Uiso   1.00
C1133  C     0.58164   0.07484   0.95435   0.00000  Uiso   1.00
C1134  C     0.47563   0.17247   0.96044   0.00000  Uiso   1.00
C1135  C     0.61568   0.10345   0.92770   0.00000  Uiso   1.00
C1136  C     0.39855   0.23082   0.90676   0.00000  Uiso   1.00
C1137  C     0.36801   0.19829   0.89025   0.00000  Uiso   1.00
C1138  C     0.54288   0.18878   0.90258   0.00000  Uiso   1.00
C1139  C     0.56613   0.21602   0.93054   0.00000  Uiso   1.00
C1140  C     0.43775   0.19004   0.98317   0.00000  Uiso   1.00
C1141  C     0.49499   0.14830   0.97949   0.00000  Uiso   1.00
C1142  C     0.48640   0.15552   0.52123   0.00000  Uiso   1.00
C1143  C     0.44847   0.17285   0.54324   0.00000  Uiso   1.00
C1144  C     0.42370   0.18878   0.52429   0.00000  Uiso   1.00
H1145  H     0.39425   0.20133   0.54198   0.00000  Uiso   1.00
H1146  H     0.35882   0.08159   0.78876   0.00000  Uiso   1.00
H1147  H     0.35475   0.12304   0.82920   0.00000  Uiso   1.00
H1148  H     0.64637   0.08033   0.83193   0.00000  Uiso   1.00
H1149  H     0.62243   0.14166   0.81633   0.00000  Uiso   1.00
H1150  H     0.62811   0.10055   0.77523   0.00000  Uiso   1.00
H1151  H     0.58996   0.29881   0.67163   0.00000  Uiso   1.00
H1152  H     0.54154   0.28537   0.65455   0.00000  Uiso   1.00
H1153  H     0.57984   0.32850   0.63729   0.00000  Uiso   1.00
H1154  H     0.52000   0.02256   0.68470   0.00000  Uiso   1.00
H1155  H     0.56404   0.03130   0.70648   0.00000  Uiso   1.00
H1156  H     0.38536   0.22226   0.98282   0.00000  Uiso   1.00
H1157  H     0.45340   0.05761   0.84269   0.00000  Uiso   1.00
H1158  H     0.41139   0.04927   0.81747   0.00000  Uiso   1.00
H1159  H     0.40729   0.02045   0.85835   0.00000  Uiso   1.00
H1160  H     0.42771   0.30944   0.79624   0.00000  Uiso   1.00
H1161  H     0.47131   0.31917   0.81968   0.00000  Uiso   1.00
H1162  H     0.58108   0.22100   0.55394   0.00000  Uiso   1.00
H1163  H     0.53994   0.22740   0.53108   0.00000  Uiso   1.00
H1164  H     0.54960   0.26431   0.57119   0.00000  Uiso   1.00
H1165  H     0.48329   0.21506   0.59465   0.00000  Uiso   1.00
H1166  H     0.52260   0.21532   0.61868   0.00000  Uiso   1.00
H1167  H     0.43616   0.17146   0.57500   0.00000  Uiso   1.00
H1168  H     0.56429   0.08639   0.62967   0.00000  Uiso   1.00
H1169  H     0.60355   0.11281   0.90443   0.00000  Uiso   1.00
H1170  H     0.62524   0.13163   0.94603   0.00000  Uiso   1.00
H1171  H     0.64457   0.08707   0.91266   0.00000  Uiso   1.00
H1172  H     0.59855   0.06382   0.97325   0.00000  Uiso   1.00
H1173  H     0.57058   0.04756   0.93584   0.00000  Uiso   1.00
H1174  H     0.35046   0.21341   0.87452   0.00000  Uiso   1.00
H1175  H     0.38572   0.17409   0.86924   0.00000  Uiso   1.00
H1176  H     0.34425   0.18318   0.91501   0.00000  Uiso   1.00
H1177  H     0.37846   0.25171   0.93028   0.00000  Uiso   1.00
H1178  H     0.50792   0.00862   0.59085   0.00000  Uiso   1.00
H1179  H     0.41754   0.25178   0.88432   0.00000  Uiso   1.00
H1180  H     0.55038   0.24484   0.94268   0.00000  Uiso   1.00
H1181  H     0.56661   0.19916   0.95541   0.00000  Uiso   1.00
H1182  H     0.60006   0.22482   0.91387   0.00000  Uiso   1.00
H1183  H     0.55700   0.15911   0.89269   0.00000  Uiso   1.00
H1184  H     0.55103   0.20531   0.87558   0.00000  Uiso   1.00
H1185  H     0.49358   0.10287   0.91619   0.00000  Uiso   1.00
H1186  H     0.47482   0.01885   0.56102   0.00000  Uiso   1.00
H1187  H     0.50411   0.30728   0.54762   0.00000  Uiso   1.00
H1188  H     0.57429   0.02232   0.53538   0.00000  Uiso   1.00
H1189  H     0.54102   0.02298   0.50325   0.00000  Uiso   1.00
H1190  H     0.34242   0.21631   0.70013   0.00000  Uiso   1.00
O1191  O     0.50000   0.16667   0.75000   0.00000  Uiso   1.00
O1192  O     0.49027   0.12393   0.66625   0.00000  Uiso   1.00
O1193  O     0.46020   0.20646   0.83749   0.00000  Uiso   1.00
O1194  O     0.54421   0.17493   0.65877   0.00000  Uiso   1.00
O1195  O     0.50532   0.16135   0.83749   0.00000  Uiso   1.00
O1196  O     0.35707   0.20227   0.71462   0.00000  Uiso   1.00
O1197  O     0.55727   0.06961   0.60637   0.00000  Uiso   1.00
O1198  O     0.52072   0.09837   0.92123   0.00000  Uiso   1.00
O1199  O     0.51182   0.08101   0.77820   0.00000  Uiso   1.00
O1200  O     0.47914   0.26136   0.76767   0.00000  Uiso   1.00
O1201  O     0.40785   0.13251   0.73607   0.00000  Uiso   1.00
O1202  O     0.60119   0.19179   0.71805   0.00000  Uiso   1.00
O1203  O     0.40323   0.18960   0.77820   0.00000  Uiso   1.00
O1204  O     0.58773   0.15277   0.76767   0.00000  Uiso   1.00
O1205  O     0.47133   0.06903   0.73607   0.00000  Uiso   1.00
O1206  O     0.53771   0.25527   0.71805   0.00000  Uiso   1.00
Zn1207 Zn    0.52577   0.14090   0.78277   0.00000  Uiso   1.00
Zn1208 Zn    0.46792   0.12378   0.72257   0.00000  Uiso   1.00
Zn1209 Zn    0.54500   0.19664   0.71188   0.00000  Uiso   1.00
Zn1210 Zn    0.46131   0.20535   0.78277   0.00000  Uiso   1.00
C1211  C     0.71948   0.15984   0.75874   0.00000  Uiso   1.00
C1212  C     0.85416   0.11616   0.95908   0.00000  Uiso   1.00
C1213  C     0.87679   0.09759   0.97917   0.00000  Uiso   1.00
C1214  C     0.94772   0.17361   0.74163   0.00000  Uiso   1.00
C1215  C     0.86719   0.10521   0.52130   0.00000  Uiso   1.00
C1216  C     0.84553   0.14009   0.54038   0.00000  Uiso   1.00
C1217  C     0.87642   0.07882   0.54563   0.00000  Uiso   1.00
C1218  C     0.87727   0.09446   0.58468   0.00000  Uiso   1.00
C1219  C     0.85078   0.15856   0.57771   0.00000  Uiso   1.00
C1220  C     0.99356   0.17694   0.74012   0.00000  Uiso   1.00
C1221  C     0.67401   0.15544   0.76348   0.00000  Uiso   1.00
C1222  C     0.76076   0.21084   0.92376   0.00000  Uiso   1.00
C1223  C     0.84374   0.32167   0.73539   0.00000  Uiso   1.00
C1224  C     0.81779   0.01321   0.76424   0.00000  Uiso   1.00
C1225  C     0.82237   0.05658   0.75937   0.00000  Uiso   1.00
C1226  C     0.84278   0.27762   0.74069   0.00000  Uiso   1.00
C1227  C     0.85459   0.14552   0.64385   0.00000  Uiso   1.00
C1228  C     0.81208   0.18812   0.85651   0.00000  Uiso   1.00
C1229  C     0.80020   0.19512   0.90074   0.00000  Uiso   1.00
C1230  C     0.86434   0.13435   0.60072   0.00000  Uiso   1.00
C1231  C     0.74791   0.20937   0.96491   0.00000  Uiso   1.00
C1232  C     0.87708   0.03210   0.53381   0.00000  Uiso   1.00
C1233  C     0.82727   0.18253   0.92074   0.00000  Uiso   1.00
C1234  C     0.83867   0.00709   0.56011   0.00000  Uiso   1.00
C1235  C     0.97906   0.12461   0.79193   0.00000  Uiso   1.00
C1236  C     0.66984   0.10109   0.81157   0.00000  Uiso   1.00
C1237  C     0.87331   0.00709   0.69770   0.00000  Uiso   1.00
C1238  C     0.89747   0.31105   0.66347   0.00000  Uiso   1.00
C1239  C     0.78665   0.33290   0.80330   0.00000  Uiso   1.00
C1240  C     0.76339   0.03408   0.83205   0.00000  Uiso   1.00
C1241  C     0.84881   0.20536   0.58994   0.00000  Uiso   1.00
C1242  C     0.88190   0.23092   0.55954   0.00000  Uiso   1.00
C1243  C     0.91497   0.07484   0.95435   0.00000  Uiso   1.00
C1244  C     0.80896   0.17247   0.96044   0.00000  Uiso   1.00
C1245  C     0.94901   0.10345   0.92770   0.00000  Uiso   1.00
C1246  C     0.73189   0.23082   0.90676   0.00000  Uiso   1.00
C1247  C     0.70134   0.19829   0.89025   0.00000  Uiso   1.00
C1248  C     0.87621   0.18878   0.90258   0.00000  Uiso   1.00
C1249  C     0.89946   0.21602   0.93054   0.00000  Uiso   1.00
C1250  C     0.77108   0.19004   0.98317   0.00000  Uiso   1.00
C1251  C     0.82832   0.14830   0.97949   0.00000  Uiso   1.00
C1252  C     0.81973   0.15552   0.52123   0.00000  Uiso   1.00
C1253  C     0.78181   0.17285   0.54324   0.00000  Uiso   1.00
C1254  C     0.75703   0.18878   0.52429   0.00000  Uiso   1.00
H1255  H     0.72758   0.20133   0.54198   0.00000  Uiso   1.00
H1256  H     0.69215   0.08159   0.78876   0.00000  Uiso   1.00
H1257  H     0.68808   0.12304   0.82920   0.00000  Uiso   1.00
H1258  H     0.97970   0.08033   0.83193   0.00000  Uiso   1.00
H1259  H     0.95577   0.14166   0.81633   0.00000  Uiso   1.00
H1260  H     0.96145   0.10055   0.77523   0.00000  Uiso   1.00
H1261  H     0.92329   0.29881   0.67163   0.00000  Uiso   1.00
H1262  H     0.87488   0.28537   0.65455   0.00000  Uiso   1.00
H1263  H     0.91318   0.32850   0.63729   0.00000  Uiso   1.00
H1264  H     0.85333   0.02256   0.68470   0.00000  Uiso   1.00
H1265  H     0.89737   0.03130   0.70648   0.00000  Uiso   1.00
H1266  H     0.71869   0.22226   0.98282   0.00000  Uiso   1.00
H1267  H     0.78673   0.05761   0.84269   0.00000  Uiso   1.00
H1268  H     0.74472   0.04927   0.81747   0.00000  Uiso   1.00
H1269  H     0.74062   0.02045   0.85835   0.00000  Uiso   1.00
H1270  H     0.76104   0.30944   0.79624   0.00000  Uiso   1.00
H1271  H     0.80464   0.31917   0.81968   0.00000  Uiso   1.00
H1272  H     0.91441   0.22100   0.55394   0.00000  Uiso   1.00
H1273  H     0.87327   0.22740   0.53108   0.00000  Uiso   1.00
H1274  H     0.88294   0.26431   0.57119   0.00000  Uiso   1.00
H1275  H     0.81662   0.21506   0.59465   0.00000  Uiso   1.00
H1276  H     0.85593   0.21532   0.61868   0.00000  Uiso   1.00
H1277  H     0.76949   0.17146   0.57500   0.00000  Uiso   1.00
H1278  H     0.89762   0.08639   0.62967   0.00000  Uiso   1.00
H1279  H     0.93688   0.11281   0.90443   0.00000  Uiso   1.00
H1280  H     0.95858   0.13163   0.94603   0.00000  Uiso   1.00
H1281  H     0.97790   0.08707   0.91266   0.00000  Uiso   1.00
H1282  H     0.93189   0.06382   0.97325   0.00000  Uiso   1.00
H1283  H     0.90391   0.04756   0.93584   0.00000  Uiso   1.00
H1284  H     0.68380   0.21341   0.87452   0.00000  Uiso   1.00
H1285  H     0.71905   0.17409   0.86924   0.00000  Uiso   1.00
H1286  H     0.67758   0.18318   0.91501   0.00000  Uiso   1.00
H1287  H     0.71179   0.25171   0.93028   0.00000  Uiso   1.00
H1288  H     0.84126   0.00862   0.59085   0.00000  Uiso   1.00
H1289  H     0.75087   0.25178   0.88432   0.00000  Uiso   1.00
H1290  H     0.88372   0.24484   0.94268   0.00000  Uiso   1.00
H1291  H     0.89994   0.19916   0.95541   0.00000  Uiso   1.00
H1292  H     0.93340   0.22482   0.91387   0.00000  Uiso   1.00
H1293  H     0.89034   0.15911   0.89269   0.00000  Uiso   1.00
H1294  H     0.88436   0.20531   0.87558   0.00000  Uiso   1.00
H1295  H     0.82692   0.10287   0.91619   0.00000  Uiso   1.00
H1296  H     0.80816   0.01885   0.56102   0.00000  Uiso   1.00
H1297  H     0.83744   0.30728   0.54762   0.00000  Uiso   1.00
H1298  H     0.90762   0.02232   0.53538   0.00000  Uiso   1.00
H1299  H     0.87435   0.02298   0.50325   0.00000  Uiso   1.00
H1300  H     0.67575   0.21631   0.70013   0.00000  Uiso   1.00
O1301  O     0.83333   0.16667   0.75000   0.00000  Uiso   1.00
O1302  O     0.82360   0.12393   0.66625   0.00000  Uiso   1.00
O1303  O     0.79354   0.20646   0.83749   0.00000  Uiso   1.00
O1304  O     0.87755   0.17493   0.65877   0.00000  Uiso   1.00
O1305  O     0.83865   0.16135   0.83749   0.00000  Uiso   1.00
O1306  O     0.69040   0.20227   0.71462   0.00000  Uiso   1.00
O1307  O     0.89060   0.06961   0.60637   0.00000  Uiso   1.00
O1308  O     0.85406   0.09837   0.92123   0.00000  Uiso   1.00
O1309  O     0.84515   0.08101   0.77820   0.00000  Uiso   1.00
O1310  O     0.81247   0.26136   0.76767   0.00000  Uiso   1.00
O1311  O     0.74119   0.13251   0.73607   0.00000  Uiso   1.00
O1312  O     0.93452   0.19179   0.71805   0.00000  Uiso   1.00
O1313  O     0.73656   0.18960   0.77820   0.00000  Uiso   1.00
O1314  O     0.92106   0.15277   0.76767   0.00000  Uiso   1.00
O1315  O     0.80467   0.06903   0.73607   0.00000  Uiso   1.00
O1316  O     0.87104   0.25527   0.71805   0.00000  Uiso   1.00
Zn1317 Zn    0.85910   0.14090   0.78277   0.00000  Uiso   1.00
Zn1318 Zn    0.80125   0.12378   0.72257   0.00000  Uiso   1.00
Zn1319 Zn    0.87833   0.19664   0.71188   0.00000  Uiso   1.00
Zn1320 Zn    0.79465   0.20535   0.78277   0.00000  Uiso   1.00
C1321  C     0.05282   0.49318   0.75874   0.00000  Uiso   1.00
C1322  C     0.18749   0.44949   0.95908   0.00000  Uiso   1.00
C1323  C     0.21013   0.43093   0.97917   0.00000  Uiso   1.00
C1324  C     0.28105   0.50694   0.74163   0.00000  Uiso   1.00
C1325  C     0.20052   0.43855   0.52130   0.00000  Uiso   1.00
C1326  C     0.17886   0.47343   0.54038   0.00000  Uiso   1.00
C1327  C     0.20975   0.41216   0.54563   0.00000  Uiso   1.00
C1328  C     0.21060   0.42779   0.58468   0.00000  Uiso   1.00
C1329  C     0.18412   0.49190   0.57771   0.00000  Uiso   1.00
C1330  C     0.32689   0.51028   0.74012   0.00000  Uiso   1.00
C1331  C     0.00734   0.48878   0.76348   0.00000  Uiso   1.00
C1332  C     0.09410   0.54417   0.92376   0.00000  Uiso   1.00
C1333  C     0.17707   0.65500   0.73539   0.00000  Uiso   1.00
C1334  C     0.15112   0.34655   0.76424   0.00000  Uiso   1.00
C1335  C     0.15570   0.38992   0.75937   0.00000  Uiso   1.00
C1336  C     0.17611   0.61096   0.74069   0.00000  Uiso   1.00
C1337  C     0.18792   0.47886   0.64385   0.00000  Uiso   1.00
C1338  C     0.14541   0.52146   0.85651   0.00000  Uiso   1.00
C1339  C     0.13353   0.52846   0.90074   0.00000  Uiso   1.00
C1340  C     0.19767   0.46769   0.60072   0.00000  Uiso   1.00
C1341  C     0.08124   0.54270   0.96491   0.00000  Uiso   1.00
C1342  C     0.21041   0.36544   0.53381   0.00000  Uiso   1.00
C1343  C     0.16061   0.51586   0.92074   0.00000  Uiso   1.00
C1344  C     0.17200   0.34042   0.56011   0.00000  Uiso   1.00
C1345  C     0.31239   0.45794   0.79193   0.00000  Uiso   1.00
C1346  C     0.00317   0.43443   0.81157   0.00000  Uiso   1.00
C1347  C     0.20664   0.34042   0.69770   0.00000  Uiso   1.00
C1348  C     0.23081   0.64438   0.66347   0.00000  Uiso   1.00
C1349  C     0.11999   0.66623   0.80330   0.00000  Uiso   1.00
C1350  C     0.09672   0.36741   0.83205   0.00000  Uiso   1.00
C1351  C     0.18214   0.53870   0.58994   0.00000  Uiso   1.00
C1352  C     0.21523   0.56426   0.55954   0.00000  Uiso   1.00
C1353  C     0.24831   0.40817   0.95435   0.00000  Uiso   1.00
C1354  C     0.14229   0.50580   0.96044   0.00000  Uiso   1.00
C1355  C     0.28235   0.43679   0.92770   0.00000  Uiso   1.00
C1356  C     0.06522   0.56416   0.90676   0.00000  Uiso   1.00
C1357  C     0.03468   0.53162   0.89025   0.00000  Uiso   1.00
C1358  C     0.20955   0.52212   0.90258   0.00000  Uiso   1.00
C1359  C     0.23280   0.54936   0.93054   0.00000  Uiso   1.00
C1360  C     0.10442   0.52338   0.98317   0.00000  Uiso   1.00
C1361  C     0.16165   0.48164   0.97949   0.00000  Uiso   1.00
C1362  C     0.15307   0.48885   0.52123   0.00000  Uiso   1.00
C1363  C     0.11514   0.50618   0.54324   0.00000  Uiso   1.00
C1364  C     0.09036   0.52212   0.52429   0.00000  Uiso   1.00
H1365  H     0.06092   0.53466   0.54198   0.00000  Uiso   1.00
H1366  H     0.02549   0.41492   0.78876   0.00000  Uiso   1.00
H1367  H     0.02142   0.45637   0.82920   0.00000  Uiso   1.00
H1368  H     0.31304   0.41367   0.83193   0.00000  Uiso   1.00
H1369  H     0.28910   0.47500   0.81633   0.00000  Uiso   1.00
H1370  H     0.29478   0.43389   0.77523   0.00000  Uiso   1.00
H1371  H     0.25663   0.63214   0.67163   0.00000  Uiso   1.00
H1372  H     0.20821   0.61871   0.65455   0.00000  Uiso   1.00
H1373  H     0.24651   0.66183   0.63729   0.00000  Uiso   1.00
H1374  H     0.18667   0.35589   0.68470   0.00000  Uiso   1.00
H1375  H     0.23071   0.36463   0.70648   0.00000  Uiso   1.00
H1376  H     0.05203   0.55560   0.98282   0.00000  Uiso   1.00
H1377  H     0.12007   0.39095   0.84269   0.00000  Uiso   1.00
H1378  H     0.07805   0.38260   0.81747   0.00000  Uiso   1.00
H1379  H     0.07395   0.35378   0.85835   0.00000  Uiso   1.00
H1380  H     0.09437   0.64278   0.79624   0.00000  Uiso   1.00
H1381  H     0.13797   0.65251   0.81968   0.00000  Uiso   1.00
H1382  H     0.24775   0.55433   0.55394   0.00000  Uiso   1.00
H1383  H     0.20660   0.56074   0.53108   0.00000  Uiso   1.00
H1384  H     0.21627   0.59764   0.57119   0.00000  Uiso   1.00
H1385  H     0.14996   0.54840   0.59465   0.00000  Uiso   1.00
H1386  H     0.18927   0.54865   0.61868   0.00000  Uiso   1.00
H1387  H     0.10282   0.50479   0.57500   0.00000  Uiso   1.00
H1388  H     0.23095   0.41973   0.62967   0.00000  Uiso   1.00
H1389  H     0.27021   0.44614   0.90443   0.00000  Uiso   1.00
H1390  H     0.29191   0.46496   0.94603   0.00000  Uiso   1.00
H1391  H     0.31123   0.42040   0.91266   0.00000  Uiso   1.00
H1392  H     0.26522   0.39715   0.97325   0.00000  Uiso   1.00
H1393  H     0.23724   0.38089   0.93584   0.00000  Uiso   1.00
H1394  H     0.01713   0.54674   0.87452   0.00000  Uiso   1.00
H1395  H     0.05238   0.50742   0.86924   0.00000  Uiso   1.00
H1396  H     0.01092   0.51651   0.91501   0.00000  Uiso   1.00
H1397  H     0.04513   0.58504   0.93028   0.00000  Uiso   1.00
H1398  H     0.17459   0.34195   0.59085   0.00000  Uiso   1.00
H1399  H     0.08421   0.58511   0.88432   0.00000  Uiso   1.00
H1400  H     0.21705   0.57818   0.94268   0.00000  Uiso   1.00
H1401  H     0.23328   0.53250   0.95541   0.00000  Uiso   1.00
H1402  H     0.26673   0.55815   0.91387   0.00000  Uiso   1.00
H1403  H     0.22367   0.49244   0.89269   0.00000  Uiso   1.00
H1404  H     0.21770   0.53865   0.87558   0.00000  Uiso   1.00
H1405  H     0.16025   0.43620   0.91619   0.00000  Uiso   1.00
H1406  H     0.14149   0.35218   0.56102   0.00000  Uiso   1.00
H1407  H     0.17077   0.64062   0.54762   0.00000  Uiso   1.00
H1408  H     0.24096   0.35566   0.53538   0.00000  Uiso   1.00
H1409  H     0.20769   0.35632   0.50325   0.00000  Uiso   1.00
H1410  H     0.00908   0.54965   0.70013   0.00000  Uiso   1.00
O1411  O     0.16667   0.50000   0.75000   0.00000  Uiso   1.00
O1412  O     0.15693   0.45726   0.66625   0.00000  Uiso   1.00
O1413  O     0.12687   0.53979   0.83749   0.00000  Uiso   1.00
O1414  O     0.21088   0.50826   0.65877   0.00000  Uiso   1.00
O1415  O     0.17198   0.49468   0.83749   0.00000  Uiso   1.00
O1416  O     0.02374   0.53561   0.71462   0.00000  Uiso   1.00
O1417  O     0.22393   0.40295   0.60637   0.00000  Uiso   1.00
O1418  O     0.18739   0.43171   0.92123   0.00000  Uiso   1.00
O1419  O     0.17849   0.41434   0.77820   0.00000  Uiso   1.00
O1420  O     0.14581   0.59469   0.76767   0.00000  Uiso   1.00
O1421  O     0.07452   0.46584   0.73607   0.00000  Uiso   1.00
O1422  O     0.26785   0.52512   0.71805   0.00000  Uiso   1.00
O1423  O     0.06990   0.52293   0.77820   0.00000  Uiso   1.00
O1424  O     0.25440   0.48610   0.76767   0.00000  Uiso   1.00
O1425  O     0.13800   0.40236   0.73607   0.00000  Uiso   1.00
O1426  O     0.20437   0.58860   0.71805   0.00000  Uiso   1.00
Zn1427 Zn    0.19244   0.47423   0.78277   0.00000  Uiso   1.00
Zn1428 Zn    0.13459   0.45711   0.72257   0.00000  Uiso   1.00
Zn1429 Zn    0.21166   0.52997   0.71188   0.00000  Uiso   1.00
Zn1430 Zn    0.12798   0.53868   0.78277   0.00000  Uiso   1.00
C1431  C     0.38615   0.49318   0.75874   0.00000  Uiso   1.00
C1432  C     0.52082   0.44949   0.95908   0.00000  Uiso   1.00
C1433  C     0.54346   0.43093   0.97917   0.00000  Uiso   1.00
C1434  C     0.61438   0.50694   0.74163   0.00000  Uiso   1.00
C1435  C     0.53385   0.43855   0.52130   0.00000  Uiso   1.00
C1436  C     0.51219   0.47343   0.54038   0.00000  Uiso   1.00
C1437  C     0.54309   0.41216   0.54563   0.00000  Uiso   1.00
C1438  C     0.54394   0.42779   0.58468   0.00000  Uiso   1.00
C1439  C     0.51745   0.49190   0.57771   0.00000  Uiso   1.00
C1440  C     0.66023   0.51028   0.74012   0.00000  Uiso   1.00
C1441  C     0.34067   0.48878   0.76348   0.00000  Uiso   1.00
C1442  C     0.42743   0.54417   0.92376   0.00000  Uiso   1.00
C1443  C     0.51040   0.65500   0.73539   0.00000  Uiso   1.00
C1444  C     0.48446   0.34655   0.76424   0.00000  Uiso   1.00
C1445  C     0.48903   0.38992   0.75937   0.00000  Uiso   1.00
C1446  C     0.50944   0.61096   0.74069   0.00000  Uiso   1.00
C1447  C     0.52126   0.47886   0.64385   0.00000  Uiso   1.00
C1448  C     0.47874   0.52146   0.85651   0.00000  Uiso   1.00
C1449  C     0.46687   0.52846   0.90074   0.00000  Uiso   1.00
C1450  C     0.53100   0.46769   0.60072   0.00000  Uiso   1.00
C1451  C     0.41458   0.54270   0.96491   0.00000  Uiso   1.00
C1452  C     0.54375   0.36544   0.53381   0.00000  Uiso   1.00
C1453  C     0.49394   0.51586   0.92074   0.00000  Uiso   1.00
C1454  C     0.50533   0.34042   0.56011   0.00000  Uiso   1.00
C1455  C     0.64572   0.45794   0.79193   0.00000  Uiso   1.00
C1456  C     0.33651   0.43443   0.81157   0.00000  Uiso   1.00
C1457  C     0.53997   0.34042   0.69770   0.00000  Uiso   1.00
C1458  C     0.56414   0.64438   0.66347   0.00000  Uiso   1.00
C1459  C     0.45332   0.66623   0.80330   0.00000  Uiso   1.00
C1460  C     0.43006   0.36741   0.83205   0.00000  Uiso   1.00
C1461  C     0.51547   0.53870   0.58994   0.00000  Uiso   1.00
C1462  C     0.54857   0.56426   0.55954   0.00000  Uiso   1.00
C1463  C     0.58164   0.40817   0.95435   0.00000  Uiso   1.00
C1464  C     0.47563   0.50580   0.96044   0.00000  Uiso   1.00
C1465  C     0.61568   0.43679   0.92770   0.00000  Uiso   1.00
C1466  C     0.39855   0.56416   0.90676   0.00000  Uiso   1.00
C1467  C     0.36801   0.53162   0.89025   0.00000  Uiso   1.00
C1468  C     0.54288   0.52212   0.90258   0.00000  Uiso   1.00
C1469  C     0.56613   0.54936   0.93054   0.00000  Uiso   1.00
C1470  C     0.43775   0.52338   0.98317   0.00000  Uiso   1.00
C1471  C     0.49499   0.48164   0.97949   0.00000  Uiso   1.00
C1472  C     0.48640   0.48885   0.52123   0.00000  Uiso   1.00
C1473  C     0.44847   0.50618   0.54324   0.00000  Uiso   1.00
C1474  C     0.42370   0.52212   0.52429   0.00000  Uiso   1.00
H1475  H     0.39425   0.53466   0.54198   0.00000  Uiso   1.00
H1476  H     0.35882   0.41492   0.78876   0.00000  Uiso   1.00
H1477  H     0.35475   0.45637   0.82920   0.00000  Uiso   1.00
H1478  H     0.64637   0.41367   0.83193   0.00000  Uiso   1.00
H1479  H     0.62243   0.47500   0.81633   0.00000  Uiso   1.00
H1480  H     0.62811   0.43389   0.77523   0.00000  Uiso   1.00
H1481  H     0.58996   0.63214   0.67163   0.00000  Uiso   1.00
H1482  H     0.54154   0.61871   0.65455   0.00000  Uiso   1.00
H1483  H     0.57984   0.66183   0.63729   0.00000  Uiso   1.00
H1484  H     0.52000   0.35589   0.68470   0.00000  Uiso   1.00
H1485  H     0.56404   0.36463   0.70648   0.00000  Uiso   1.00
H1486  H     0.38536   0.55560   0.98282   0.00000  Uiso   1.00
H1487  H     0.45340   0.39095   0.84269   0.00000  Uiso   1.00
H1488  H     0.41139   0.38260   0.81747   0.00000  Uiso   1.00
H1489  H     0.40729   0.35378   0.85835   0.00000  Uiso   1.00
H1490  H     0.42771   0.64278   0.79624   0.00000  Uiso   1.00
H1491  H     0.47131   0.65251   0.81968   0.00000  Uiso   1.00
H1492  H     0.58108   0.55433   0.55394   0.00000  Uiso   1.00
H1493  H     0.53994   0.56074   0.53108   0.00000  Uiso   1.00
H1494  H     0.54960   0.59764   0.57119   0.00000  Uiso   1.00
H1495  H     0.48329   0.54840   0.59465   0.00000  Uiso   1.00
H1496  H     0.52260   0.54865   0.61868   0.00000  Uiso   1.00
H1497  H     0.43616   0.50479   0.57500   0.00000  Uiso   1.00
H1498  H     0.56429   0.41973   0.62967   0.00000  Uiso   1.00
H1499  H     0.60355   0.44614   0.90443   0.00000  Uiso   1.00
H1500  H     0.62524   0.46496   0.94603   0.00000  Uiso   1.00
H1501  H     0.64457   0.42040   0.91266   0.00000  Uiso   1.00
H1502  H     0.59855   0.39715   0.97325   0.00000  Uiso   1.00
H1503  H     0.57058   0.38089   0.93584   0.00000  Uiso   1.00
H1504  H     0.35046   0.54674   0.87452   0.00000  Uiso   1.00
H1505  H     0.38572   0.50742   0.86924   0.00000  Uiso   1.00
H1506  H     0.34425   0.51651   0.91501   0.00000  Uiso   1.00
H1507  H     0.37846   0.58504   0.93028   0.00000  Uiso   1.00
H1508  H     0.50792   0.34195   0.59085   0.00000  Uiso   1.00
H1509  H     0.41754   0.58511   0.88432   0.00000  Uiso   1.00
H1510  H     0.55038   0.57818   0.94268   0.00000  Uiso   1.00
H1511  H     0.56661   0.53250   0.95541   0.00000  Uiso   1.00
H1512  H     0.60006   0.55815   0.91387   0.00000  Uiso   1.00
H1513  H     0.55700   0.49244   0.89269   0.00000  Uiso   1.00
H1514  H     0.55103   0.53865   0.87558   0.00000  Uiso   1.00
H1515  H     0.49358   0.43620   0.91619   0.00000  Uiso   1.00
H1516  H     0.47482   0.35218   0.56102   0.00000  Uiso   1.00
H1517  H     0.50411   0.64062   0.54762   0.00000  Uiso   1.00
H1518  H     0.57429   0.35566   0.53538   0.00000  Uiso   1.00
H1519  H     0.54102   0.35632   0.50325   0.00000  Uiso   1.00
H1520  H     0.34242   0.54965   0.70013   0.00000  Uiso   1.00
O1521  O     0.50000   0.50000   0.75000   0.00000  Uiso   1.00
O1522  O     0.49027   0.45726   0.66625   0.00000  Uiso   1.00
O1523  O     0.46020   0.53979   0.83749   0.00000  Uiso   1.00
O1524  O     0.54421   0.50826   0.65877   0.00000  Uiso   1.00
O1525  O     0.50532   0.49468   0.83749   0.00000  Uiso   1.00
O1526  O     0.35707   0.53561   0.71462   0.00000  Uiso   1.00
O1527  O     0.55727   0.40295   0.60637   0.00000  Uiso   1.00
O1528  O     0.52072   0.43171   0.92123   0.00000  Uiso   1.00
O1529  O     0.51182   0.41434   0.77820   0.00000  Uiso   1.00
O1530  O     0.47914   0.59469   0.76767   0.00000  Uiso   1.00
O1531  O     0.40785   0.46584   0.73607   0.00000  Uiso   1.00
O1532  O     0.60119   0.52512   0.71805   0.00000  Uiso   1.00
O1533  O     0.40323   0.52293   0.77820   0.00000  Uiso   1.00
O1534  O     0.58773   0.48610   0.76767   0.00000  Uiso   1.00
O1535  O     0.47133   0.40236   0.73607   0.00000  Uiso   1.00
O1536  O     0.53771   0.58860   0.71805   0.00000  Uiso   1.00
Zn1537 Zn    0.52577   0.47423   0.78277   0.00000  Uiso   1.00
Zn1538 Zn    0.46792   0.45711   0.72257   0.00000  Uiso   1.00
Zn1539 Zn    0.54500   0.52997   0.71188   0.00000  Uiso   1.00
Zn1540 Zn    0.46131   0.53868   0.78277   0.00000  Uiso   1.00
C1541  C     0.71948   0.49318   0.75874   0.00000  Uiso   1.00
C1542  C     0.85416   0.44949   0.95908   0.00000  Uiso   1.00
C1543  C     0.87679   0.43093   0.97917   0.00000  Uiso   1.00
C1544  C     0.94772   0.50694   0.74163   0.00000  Uiso   1.00
C1545  C     0.86719   0.43855   0.52130   0.00000  Uiso   1.00
C1546  C     0.84553   0.47343   0.54038   0.00000  Uiso   1.00
C1547  C     0.87642   0.41216   0.54563   0.00000  Uiso   1.00
C1548  C     0.87727   0.42779   0.58468   0.00000  Uiso   1.00
C1549  C     0.85078   0.49190   0.57771   0.00000  Uiso   1.00
C1550  C     0.99356   0.51028   0.74012   0.00000  Uiso   1.00
C1551  C     0.67401   0.48878   0.76348   0.00000  Uiso   1.00
C1552  C     0.76076   0.54417   0.92376   0.00000  Uiso   1.00
C1553  C     0.84374   0.65500   0.73539   0.00000  Uiso   1.00
C1554  C     0.81779   0.34655   0.76424   0.00000  Uiso   1.00
C1555  C     0.82237   0.38992   0.75937   0.00000  Uiso   1.00
C1556  C     0.84278   0.61096   0.74069   0.00000  Uiso   1.00
C1557  C     0.85459   0.47886   0.64385   0.00000  Uiso   1.00
C1558  C     0.81208   0.52146   0.85651   0.00000  Uiso   1.00
C1559  C     0.80020   0.52846   0.90074   0.00000  Uiso   1.00
C1560  C     0.86434   0.46769   0.60072   0.00000  Uiso   1.00
C1561  C     0.74791   0.54270   0.96491   0.00000  Uiso   1.00
C1562  C     0.87708   0.36544   0.53381   0.00000  Uiso   1.00
C1563  C     0.82727   0.51586   0.92074   0.00000  Uiso   1.00
C1564  C     0.83867   0.34042   0.56011   0.00000  Uiso   1.00
C1565  C     0.97906   0.45794   0.79193   0.00000  Uiso   1.00
C1566  C     0.66984   0.43443   0.81157   0.00000  Uiso   1.00
C1567  C     0.87331   0.34042   0.69770   0.00000  Uiso   1.00
C1568  C     0.89747   0.64438   0.66347   0.00000  Uiso   1.00
C1569  C     0.78665   0.66623   0.80330   0.00000  Uiso   1.00
C1570  C     0.76339   0.36741   0.83205   0.00000  Uiso   1.00
C1571  C     0.84881   0.53870   0.58994   0.00000  Uiso   1.00
C1572  C     0.88190   0.56426   0.55954   0.00000  Uiso   1.00
C1573  C     0.91497   0.40817   0.95435   0.00000  Uiso   1.00
C1574  C     0.80896   0.50580   0.96044   0.00000  Uiso   1.00
C1575  C     0.94901   0.43679   0.92770   0.00000  Uiso   1.00
C1576  C     0.73189   0.56416   0.90676   0.00000  Uiso   1.00
C1577  C     0.70134   0.53162   0.89025   0.00000  Uiso   1.00
C1578  C     0.87621   0.52212   0.90258   0.00000  Uiso   1.00
C1579  C     0.89946   0.54936   0.93054   0.00000  Uiso   1.00
C1580  C     0.77108   0.52338   0.98317   0.00000  Uiso   1.00
C1581  C     0.82832   0.48164   0.97949   0.00000  Uiso   1.00
C1582  C     0.81973   0.48885   0.52123   0.00000  Uiso   1.00
C1583  C     0.78181   0.50618   0.54324   0.00000  Uiso   1.00
C1584  C     0.75703   0.52212   0.52429   0.00000  Uiso   1.00
H1585  H     0.72758   0.53466   0.54198   0.00000  Uiso   1.00
H1586  H     0.69215   0.41492   0.78876   0.00000  Uiso   1.00
H1587  H     0.68808   0.45637   0.82920   0.00000  Uiso   1.00
H1588  H     0.97970   0.41367   0.83193   0.00000  Uiso   1.00
H1589  H     0.95577   0.47500   0.81633   0.00000  Uiso   1.00
H1590  H     0.96145   0.43389   0.77523   0.00000  Uiso   1.00
H1591  H     0.92329   0.63214   0.67163   0.00000  Uiso   1.00
H1592  H     0.87488   0.61871   0.65455   0.00000  Uiso   1.00
H1593  H     0.91318   0.66183   0.63729   0.00000  Uiso   1.00
H1594  H     0.85333   0.35589   0.68470   0.00000  Uiso   1.00
H1595  H     0.89737   0.36463   0.70648   0.00000  Uiso   1.00
H1596  H     0.71869   0.55560   0.98282   0.00000  Uiso   1.00
H1597  H     0.78673   0.39095   0.84269   0.00000  Uiso   1.00
H1598  H     0.74472   0.38260   0.81747   0.00000  Uiso   1.00
H1599  H     0.74062   0.35378   0.85835   0.00000  Uiso   1.00
H1600  H     0.76104   0.64278   0.79624   0.00000  Uiso   1.00
H1601  H     0.80464   0.65251   0.81968   0.00000  Uiso   1.00
H1602  H     0.91441   0.55433   0.55394   0.00000  Uiso   1.00
H1603  H     0.87327   0.56074   0.53108   0.00000  Uiso   1.00
H1604  H     0.88294   0.59764   0.57119   0.00000  Uiso   1.00
H1605  H     0.81662   0.54840   0.59465   0.00000  Uiso   1.00
H1606  H     0.85593   0.54865   0.61868   0.00000  Uiso   1.00
H1607  H     0.76949   0.50479   0.57500   0.00000  Uiso   1.00
H1608  H     0.89762   0.41973   0.62967   0.00000  Uiso   1.00
H1609  H     0.93688   0.44614   0.90443   0.00000  Uiso   1.00
H1610  H     0.95858   0.46496   0.94603   0.00000  Uiso   1.00
H1611  H     0.97790   0.42040   0.91266   0.00000  Uiso   1.00
H1612  H     0.93189   0.39715   0.97325   0.00000  Uiso   1.00
H1613  H     0.90391   0.38089   0.93584   0.00000  Uiso   1.00
H1614  H     0.68380   0.54674   0.87452   0.00000  Uiso   1.00
H1615  H     0.71905   0.50742   0.86924   0.00000  Uiso   1.00
H1616  H     0.67758   0.51651   0.91501   0.00000  Uiso   1.00
H1617  H     0.71179   0.58504   0.93028   0.00000  Uiso   1.00
H1618  H     0.84126   0.34195   0.59085   0.00000  Uiso   1.00
H1619  H     0.75087   0.58511   0.88432   0.00000  Uiso   1.00
H1620  H     0.88372   0.57818   0.94268   0.00000  Uiso   1.00
H1621  H     0.89994   0.53250   0.95541   0.00000  Uiso   1.00
H1622  H     0.93340   0.55815   0.91387   0.00000  Uiso   1.00
H1623  H     0.89034   0.49244   0.89269   0.00000  Uiso   1.00
H1624  H     0.88436   0.53865   0.87558   0.00000  Uiso   1.00
H1625  H     0.82692   0.43620   0.91619   0.00000  Uiso   1.00
H1626  H     0.80816   0.35218   0.56102   0.00000  Uiso   1.00
H1627  H     0.83744   0.64062   0.54762   0.00000  Uiso   1.00
H1628  H     0.90762   0.35566   0.53538   0.00000  Uiso   1.00
H1629  H     0.87435   0.35632   0.50325   0.00000  Uiso   1.00
H1630  H     0.67575   0.54965   0.70013   0.00000  Uiso   1.00
O1631  O     0.83333   0.50000   0.75000   0.00000  Uiso   1.00
O1632  O     0.82360   0.45726   0.66625   0.00000  Uiso   1.00
O1633  O     0.79354   0.53979   0.83749   0.00000  Uiso   1.00
O1634  O     0.87755   0.50826   0.65877   0.00000  Uiso   1.00
O1635  O     0.83865   0.49468   0.83749   0.00000  Uiso   1.00
O1636  O     0.69040   0.53561   0.71462   0.00000  Uiso   1.00
O1637  O     0.89060   0.40295   0.60637   0.00000  Uiso   1.00
O1638  O     0.85406   0.43171   0.92123   0.00000  Uiso   1.00
O1639  O     0.84515   0.41434   0.77820   0.00000  Uiso   1.00
O1640  O     0.81247   0.59469   0.76767   0.00000  Uiso   1.00
O1641  O     0.74119   0.46584   0.73607   0.00000  Uiso   1.00
O1642  O     0.93452   0.52512   0.71805   0.00000  Uiso   1.00
O1643  O     0.73656   0.52293   0.77820   0.00000  Uiso   1.00
O1644  O     0.92106   0.48610   0.76767   0.00000  Uiso   1.00
O1645  O     0.80467   0.40236   0.73607   0.00000  Uiso   1.00
O1646  O     0.87104   0.58860   0.71805   0.00000  Uiso   1.00
Zn1647 Zn    0.85910   0.47423   0.78277   0.00000  Uiso   1.00
Zn1648 Zn    0.80125   0.45711   0.72257   0.00000  Uiso   1.00
Zn1649 Zn    0.87833   0.52997   0.71188   0.00000  Uiso   1.00
Zn1650 Zn    0.79465   0.53868   0.78277   0.00000  Uiso   1.00
C1651  C     0.05282   0.82651   0.75874   0.00000  Uiso   1.00
C1652  C     0.18749   0.78282   0.95908   0.00000  Uiso   1.00
C1653  C     0.21013   0.76426   0.97917   0.00000  Uiso   1.00
C1654  C     0.28105   0.84028   0.74163   0.00000  Uiso   1.00
C1655  C     0.20052   0.77188   0.52130   0.00000  Uiso   1.00
C1656  C     0.17886   0.80676   0.54038   0.00000  Uiso   1.00
C1657  C     0.20975   0.74549   0.54563   0.00000  Uiso   1.00
C1658  C     0.21060   0.76112   0.58468   0.00000  Uiso   1.00
C1659  C     0.18412   0.82523   0.57771   0.00000  Uiso   1.00
C1660  C     0.32689   0.84361   0.74012   0.00000  Uiso   1.00
C1661  C     0.00734   0.82211   0.76348   0.00000  Uiso   1.00
C1662  C     0.09410   0.87751   0.92376   0.00000  Uiso   1.00
C1663  C     0.17707   0.98833   0.73539   0.00000  Uiso   1.00
C1664  C     0.15112   0.67988   0.76424   0.00000  Uiso   1.00
C1665  C     0.15570   0.72325   0.75937   0.00000  Uiso   1.00
C1666  C     0.17611   0.94429   0.74069   0.00000  Uiso   1.00
C1667  C     0.18792   0.81219   0.64385   0.00000  Uiso   1.00
C1668  C     0.14541   0.85479   0.85651   0.00000  Uiso   1.00
C1669  C     0.13353   0.86179   0.90074   0.00000  Uiso   1.00
C1670  C     0.19767   0.80102   0.60072   0.00000  Uiso   1.00
C1671  C     0.08124   0.87604   0.96491   0.00000  Uiso   1.00
C1672  C     0.21041   0.69877   0.53381   0.00000  Uiso   1.00
C1673  C     0.16061   0.84920   0.92074   0.00000  Uiso   1.00
C1674  C     0.17200   0.67376   0.56011   0.00000  Uiso   1.00
C1675  C     0.31239   0.79128   0.79193   0.00000  Uiso   1.00
C1676  C     0.00317   0.76776   0.81157   0.00000  Uiso   1.00
C1677  C     0.20664   0.67375   0.69770   0.00000  Uiso   1.00
C1678  C     0.23081   0.97772   0.66347   0.00000  Uiso   1.00
C1679  C     0.11999   0.99956   0.80330   0.00000  Uiso   1.00
C1680  C     0.09672   0.70074   0.83205   0.00000  Uiso   1.00
C1681  C     0.18214   0.87203   0.58994   0.00000  Uiso   1.00
C1682  C     0.21523   0.89759   0.55954   0.00000  Uiso   1.00
C1683  C     0.24831   0.74150   0.95435   0.00000  Uiso   1.00
C1684  C     0.14229   0.83914   0.96044   0.00000  Uiso   1.00
C1685  C     0.28235   0.77012   0.92770   0.00000  Uiso   1.00
C1686  C     0.06522   0.89749   0.90676   0.00000  Uiso   1.00
C1687  C     0.03468   0.86496   0.89025   0.00000  Uiso   1.00
C1688  C     0.20955   0.85545   0.90258   0.00000  Uiso   1.00
C1689  C     0.23280   0.88269   0.93054   0.00000  Uiso   1.00
C1690  C     0.10442   0.85671   0.98317   0.00000  Uiso   1.00
C1691  C     0.16165   0.81497   0.97949   0.00000  Uiso   1.00
C1692  C     0.15307   0.82218   0.52123   0.00000  Uiso   1.00
C1693  C     0.11514   0.83952   0.54324   0.00000  Uiso   1.00
C1694  C     0.09036   0.85545   0.52429   0.00000  Uiso   1.00
H1695  H     0.06092   0.86800   0.54198   0.00000  Uiso   1.00
H1696  H     0.02549   0.74825   0.78876   0.00000  Uiso   1.00
H1697  H     0.02142   0.78971   0.82920   0.00000  Uiso   1.00
H1698  H     0.31304   0.74700   0.83193   0.00000  Uiso   1.00
H1699  H     0.28910   0.80833   0.81633   0.00000  Uiso   1.00
H1700  H     0.29478   0.76722   0.77523   0.00000  Uiso   1.00
H1701  H     0.25663   0.96547   0.67163   0.00000  Uiso   1.00
H1702  H     0.20821   0.95204   0.65455   0.00000  Uiso   1.00
H1703  H     0.24651   0.99517   0.63729   0.00000  Uiso   1.00
H1704  H     0.18667   0.68922   0.68470   0.00000  Uiso   1.00
H1705  H     0.23071   0.69797   0.70648   0.00000  Uiso   1.00
H1706  H     0.05203   0.88893   0.98282   0.00000  Uiso   1.00
H1707  H     0.12007   0.72428   0.84269   0.00000  Uiso   1.00
H1708  H     0.07805   0.71594   0.81747   0.00000  Uiso   1.00
H1709  H     0.07395   0.68712   0.85835   0.00000  Uiso   1.00
H1710  H     0.09437   0.97611   0.79624   0.00000  Uiso   1.00
H1711  H     0.13797   0.98584   0.81968   0.00000  Uiso   1.00
H1712  H     0.24775   0.88766   0.55394   0.00000  Uiso   1.00
H1713  H     0.20660   0.89407   0.53108   0.00000  Uiso   1.00
H1714  H     0.21627   0.93097   0.57119   0.00000  Uiso   1.00
H1715  H     0.14996   0.88173   0.59465   0.00000  Uiso   1.00
H1716  H     0.18927   0.88199   0.61868   0.00000  Uiso   1.00
H1717  H     0.10282   0.83812   0.57500   0.00000  Uiso   1.00
H1718  H     0.23095   0.75306   0.62967   0.00000  Uiso   1.00
H1719  H     0.27021   0.77948   0.90443   0.00000  Uiso   1.00
H1720  H     0.29191   0.79829   0.94603   0.00000  Uiso   1.00
H1721  H     0.31123   0.75373   0.91266   0.00000  Uiso   1.00
H1722  H     0.26522   0.73049   0.97325   0.00000  Uiso   1.00
H1723  H     0.23724   0.71423   0.93584   0.00000  Uiso   1.00
H1724  H     0.01713   0.88007   0.87452   0.00000  Uiso   1.00
H1725  H     0.05238   0.84076   0.86924   0.00000  Uiso   1.00
H1726  H     0.01092   0.84984   0.91501   0.00000  Uiso   1.00
H1727  H     0.04513   0.91838   0.93028   0.00000  Uiso   1.00
H1728  H     0.17459   0.67529   0.59085   0.00000  Uiso   1.00
H1729  H     0.08421   0.91844   0.88432   0.00000  Uiso   1.00
H1730  H     0.21705   0.91151   0.94268   0.00000  Uiso   1.00
H1731  H     0.23328   0.86583   0.95541   0.00000  Uiso   1.00
H1732  H     0.26673   0.89148   0.91387   0.00000  Uiso   1.00
H1733  H     0.22367   0.82577   0.89269   0.00000  Uiso   1.00
H1734  H     0.21770   0.87198   0.87558   0.00000  Uiso   1.00
H1735  H     0.16025   0.76953   0.91619   0.00000  Uiso   1.00
H1736  H     0.14149   0.68551   0.56102   0.00000  Uiso   1.00
H1737  H     0.17077   0.97395   0.54762   0.00000  Uiso   1.00
H1738  H     0.24096   0.68899   0.53538   0.00000  Uiso   1.00
H1739  H     0.20769   0.68965   0.50325   0.00000  Uiso   1.00
H1740  H     0.00908   0.88298   0.70013   0.00000  Uiso   1.00
O1741  O     0.16667   0.83333   0.75000   0.00000  Uiso   1.00
O1742  O     0.15693   0.79060   0.66625   0.00000  Uiso   1.00
O1743  O     0.12687   0.87313   0.83749   0.00000  Uiso   1.00
O1744  O     0.21088   0.84159   0.65877   0.00000  Uiso   1.00
O1745  O     0.17198   0.82802   0.83749   0.00000  Uiso   1.00
O1746  O     0.02374   0.86894   0.71462   0.00000  Uiso   1.00
O1747  O     0.22393   0.73628   0.60637   0.00000  Uiso   1.00
O1748  O     0.18739   0.76504   0.92123   0.00000  Uiso   1.00
O1749  O     0.17849   0.74768   0.77820   0.00000  Uiso   1.00
O1750  O     0.14581   0.92803   0.76767   0.00000  Uiso   1.00
O1751  O     0.07452   0.79917   0.73607   0.00000  Uiso   1.00
O1752  O     0.26785   0.85845   0.71805   0.00000  Uiso   1.00
O1753  O     0.06990   0.85627   0.77820   0.00000  Uiso   1.00
O1754  O     0.25440   0.81944   0.76767   0.00000  Uiso   1.00
O1755  O     0.13800   0.73570   0.73607   0.00000  Uiso   1.00
O1756  O     0.20437   0.92193   0.71805   0.00000  Uiso   1.00
Zn1757 Zn    0.19244   0.80756   0.78277   0.00000  Uiso   1.00
Zn1758 Zn    0.13459   0.79044   0.72257   0.00000  Uiso   1.00
Zn1759 Zn    0.21166   0.86331   0.71188   0.00000  Uiso   1.00
Zn1760 Zn    0.12798   0.87202   0.78277   0.00000  Uiso   1.00
C1761  C     0.38615   0.82651   0.75874   0.00000  Uiso   1.00
C1762  C     0.52082   0.78282   0.95908   0.00000  Uiso   1.00
C1763  C     0.54346   0.76426   0.97917   0.00000  Uiso   1.00
C1764  C     0.61438   0.84028   0.74163   0.00000  Uiso   1.00
C1765  C     0.53385   0.77188   0.52130   0.00000  Uiso   1.00
C1766  C     0.51219   0.80676   0.54038   0.00000  Uiso   1.00
C1767  C     0.54309   0.74549   0.54563   0.00000  Uiso   1.00
C1768  C     0.54394   0.76112   0.58468   0.00000  Uiso   1.00
C1769  C     0.51745   0.82523   0.57771   0.00000  Uiso   1.00
C1770  C     0.66023   0.84361   0.74012   0.00000  Uiso   1.00
C1771  C     0.34067   0.82211   0.76348   0.00000  Uiso   1.00
C1772  C     0.42743   0.87751   0.92376   0.00000  Uiso   1.00
C1773  C     0.51040   0.98833   0.73539   0.00000  Uiso   1.00
C1774  C     0.48446   0.67988   0.76424   0.00000  Uiso   1.00
C1775  C     0.48903   0.72325   0.75937   0.00000  Uiso   1.00
C1776  C     0.50944   0.94429   0.74069   0.00000  Uiso   1.00
C1777  C     0.52126   0.81219   0.64385   0.00000  Uiso   1.00
C1778  C     0.47874   0.85479   0.85651   0.00000  Uiso   1.00
C1779  C     0.46687   0.86179   0.90074   0.00000  Uiso   1.00
C1780  C     0.53100   0.80102   0.60072   0.00000  Uiso   1.00
C1781  C     0.41458   0.87604   0.96491   0.00000  Uiso   1.00
C1782  C     0.54375   0.69877   0.53381   0.00000  Uiso   1.00
C1783  C     0.49394   0.84920   0.92074   0.00000  Uiso   1.00
C1784  C     0.50533   0.67376   0.56011   0.00000  Uiso   1.00
C1785  C     0.64572   0.79128   0.79193   0.00000  Uiso   1.00
C1786  C     0.33651   0.76776   0.81157   0.00000  Uiso   1.00
C1787  C     0.53997   0.67375   0.69770   0.00000  Uiso   1.00
C1788  C     0.56414   0.97772   0.66347   0.00000  Uiso   1.00
C1789  C     0.45332   0.99956   0.80330   0.00000  Uiso   1.00
C1790  C     0.43006   0.70074   0.83205   0.00000  Uiso   1.00
C1791  C     0.51547   0.87203   0.58994   0.00000  Uiso   1.00
C1792  C     0.54857   0.89759   0.55954   0.00000  Uiso   1.00
C1793  C     0.58164   0.74150   0.95435   0.00000  Uiso   1.00
C1794  C     0.47563   0.83914   0.96044   0.00000  Uiso   1.00
C1795  C     0.61568   0.77012   0.92770   0.00000  Uiso   1.00
C1796  C     0.39855   0.89749   0.90676   0.00000  Uiso   1.00
C1797  C     0.36801   0.86496   0.89025   0.00000  Uiso   1.00
C1798  C     0.54288   0.85545   0.90258   0.00000  Uiso   1.00
C1799  C     0.56613   0.88269   0.93054   0.00000  Uiso   1.00
C1800  C     0.43775   0.85671   0.98317   0.00000  Uiso   1.00
C1801  C     0.49499   0.81497   0.97949   0.00000  Uiso   1.00
C1802  C     0.48640   0.82218   0.52123   0.00000  Uiso   1.00
C1803  C     0.44847   0.83952   0.54324   0.00000  Uiso   1.00
C1804  C     0.42370   0.85545   0.52429   0.00000  Uiso   1.00
H1805  H     0.39425   0.86800   0.54198   0.00000  Uiso   1.00
H1806  H     0.35882   0.74825   0.78876   0.00000  Uiso   1.00
H1807  H     0.35475   0.78971   0.82920   0.00000  Uiso   1.00
H1808  H     0.64637   0.74700   0.83193   0.00000  Uiso   1.00
H1809  H     0.62243   0.80833   0.81633   0.00000  Uiso   1.00
H1810  H     0.62811   0.76722   0.77523   0.00000  Uiso   1.00
H1811  H     0.58996   0.96547   0.67163   0.00000  Uiso   1.00
H1812  H     0.54154   0.95204   0.65455   0.00000  Uiso   1.00
H1813  H     0.57984   0.99517   0.63729   0.00000  Uiso   1.00
H1814  H     0.52000   0.68922   0.68470   0.00000  Uiso   1.00
H1815  H     0.56404   0.69797   0.70648   0.00000  Uiso   1.00
H1816  H     0.38536   0.88893   0.98282   0.00000  Uiso   1.00
H1817  H     0.45340   0.72428   0.84269   0.00000  Uiso   1.00
H1818  H     0.41139   0.71594   0.81747   0.00000  Uiso   1.00
H1819  H     0.40729   0.68712   0.85835   0.00000  Uiso   1.00
H1820  H     0.42771   0.97611   0.79624   0.00000  Uiso   1.00
H1821  H     0.47131   0.98584   0.81968   0.00000  Uiso   1.00
H1822  H     0.58108   0.88766   0.55394   0.00000  Uiso   1.00
H1823  H     0.53994   0.89407   0.53108   0.00000  Uiso   1.00
H1824  H     0.54960   0.93097   0.57119   0.00000  Uiso   1.00
H1825  H     0.48329   0.88173   0.59465   0.00000  Uiso   1.00
H1826  H     0.52260   0.88199   0.61868   0.00000  Uiso   1.00
H1827  H     0.43616   0.83812   0.57500   0.00000  Uiso   1.00
H1828  H     0.56429   0.75306   0.62967   0.00000  Uiso   1.00
H1829  H     0.60355   0.77948   0.90443   0.00000  Uiso   1.00
H1830  H     0.62524   0.79829   0.94603   0.00000  Uiso   1.00
H1831  H     0.64457   0.75373   0.91266   0.00000  Uiso   1.00
H1832  H     0.59855   0.73049   0.97325   0.00000  Uiso   1.00
H1833  H     0.57058   0.71423   0.93584   0.00000  Uiso   1.00
H1834  H     0.35046   0.88007   0.87452   0.00000  Uiso   1.00
H1835  H     0.38572   0.84076   0.86924   0.00000  Uiso   1.00
H1836  H     0.34425   0.84984   0.91501   0.00000  Uiso   1.00
H1837  H     0.37846   0.91838   0.93028   0.00000  Uiso   1.00
H1838  H     0.50792   0.67529   0.59085   0.00000  Uiso   1.00
H1839  H     0.41754   0.91844   0.88432   0.00000  Uiso   1.00
H1840  H     0.55038   0.91151   0.94268   0.00000  Uiso   1.00
H1841  H     0.56661   0.86583   0.95541   0.00000  Uiso   1.00
H1842  H     0.60006   0.89148   0.91387   0.00000  Uiso   1.00
H1843  H     0.55700   0.82577   0.89269   0.00000  Uiso   1.00
H1844  H     0.55103   0.87198   0.87558   0.00000  Uiso   1.00
H1845  H     0.49358   0.76953   0.91619   0.00000  Uiso   1.00
H1846  H     0.47482   0.68551   0.56102   0.00000  Uiso   1.00
H1847  H     0.50411   0.97395   0.54762   0.00000  Uiso   1.00
H1848  H     0.57429   0.68899   0.53538   0.00000  Uiso   1.00
H1849  H     0.54102   0.68965   0.50325   0.00000  Uiso   1.00
H1850  H     0.34242   0.88298   0.70013   0.00000  Uiso   1.00
O1851  O     0.50000   0.83333   0.75000   0.00000  Uiso   1.00
O1852  O     0.49027   0.79060   0.66625   0.00000  Uiso   1.00
O1853  O     0.46020   0.87313   0.83749   0.00000  Uiso   1.00
O1854  O     0.54421   0.84159   0.65877   0.00000  Uiso   1.00
O1855  O     0.50532   0.82802   0.83749   0.00000  Uiso   1.00
O1856  O     0.35707   0.86894   0.71462   0.00000  Uiso   1.00
O1857  O     0.55727   0.73628   0.60637   0.00000  Uiso   1.00
O1858  O     0.52072   0.76504   0.92123   0.00000  Uiso   1.00
O1859  O     0.51182   0.74768   0.77820   0.00000  Uiso   1.00
O1860  O     0.47914   0.92803   0.76767   0.00000  Uiso   1.00
O1861  O     0.40785   0.79917   0.73607   0.00000  Uiso   1.00
O1862  O     0.60119   0.85845   0.71805   0.00000  Uiso   1.00
O1863  O     0.40323   0.85627   0.77820   0.00000  Uiso   1.00
O1864  O     0.58773   0.81944   0.76767   0.00000  Uiso   1.00
O1865  O     0.47133   0.73570   0.73607   0.00000  Uiso   1.00
O1866  O     0.53771   0.92193   0.71805   0.00000  Uiso   1.00
Zn1867 Zn    0.52577   0.80756   0.78277   0.00000  Uiso   1.00
Zn1868 Zn    0.46792   0.79044   0.72257   0.00000  Uiso   1.00
Zn1869 Zn    0.54500   0.86331   0.71188   0.00000  Uiso   1.00
Zn1870 Zn    0.46131   0.87202   0.78277   0.00000  Uiso   1.00
C1871  C     0.71948   0.82651   0.75874   0.00000  Uiso   1.00
C1872  C     0.85416   0.78282   0.95908   0.00000  Uiso   1.00
C1873  C     0.87679   0.76426   0.97917   0.00000  Uiso   1.00
C1874  C     0.94772   0.84028   0.74163   0.00000  Uiso   1.00
C1875  C     0.86719   0.77188   0.52130   0.00000  Uiso   1.00
C1876  C     0.84553   0.80676   0.54038   0.00000  Uiso   1.00
C1877  C     0.87642   0.74549   0.54563   0.00000  Uiso   1.00
C1878  C     0.87727   0.76112   0.58468   0.00000  Uiso   1.00
C1879  C     0.85078   0.82523   0.57771   0.00000  Uiso   1.00
C1880  C     0.99356   0.84361   0.74012   0.00000  Uiso   1.00
C1881  C     0.67401   0.82211   0.76348   0.00000  Uiso   1.00
C1882  C     0.76076   0.87751   0.92376   0.00000  Uiso   1.00
C1883  C     0.84374   0.98833   0.73539   0.00000  Uiso   1.00
C1884  C     0.81779   0.67988   0.76424   0.00000  Uiso   1.00
C1885  C     0.82237   0.72325   0.75937   0.00000  Uiso   1.00
C1886  C     0.84278   0.94429   0.74069   0.00000  Uiso   1.00
C1887  C     0.85459   0.81219   0.64385   0.00000  Uiso   1.00
C1888  C     0.81208   0.85479   0.85651   0.00000  Uiso   1.00
C1889  C     0.80020   0.86179   0.90074   0.00000  Uiso   1.00
C1890  C     0.86434   0.80102   0.60072   0.00000  Uiso   1.00
C1891  C     0.74791   0.87604   0.96491   0.00000  Uiso   1.00
C1892  C     0.87708   0.69877   0.53381   0.00000  Uiso   1.00
C1893  C     0.82727   0.84920   0.92074   0.00000  Uiso   1.00
C1894  C     0.83867   0.67376   0.56011   0.00000  Uiso   1.00
C1895  C     0.97906   0.79128   0.79193   0.00000  Uiso   1.00
C1896  C     0.66984   0.76776   0.81157   0.00000  Uiso   1.00
C1897  C     0.87331   0.67375   0.69770   0.00000  Uiso   1.00
C1898  C     0.89747   0.97772   0.66347   0.00000  Uiso   1.00
C1899  C     0.78665   0.99956   0.80330   0.00000  Uiso   1.00
C1900  C     0.76339   0.70074   0.83205   0.00000  Uiso   1.00
C1901  C     0.84881   0.87203   0.58994   0.00000  Uiso   1.00
C1902  C     0.88190   0.89759   0.55954   0.00000  Uiso   1.00
C1903  C     0.91497   0.74150   0.95435   0.00000  Uiso   1.00
C1904  C     0.80896   0.83914   0.96044   0.00000  Uiso   1.00
C1905  C     0.94901   0.77012   0.92770   0.00000  Uiso   1.00
C1906  C     0.73189   0.89749   0.90676   0.00000  Uiso   1.00
C1907  C     0.70134   0.86496   0.89025   0.00000  Uiso   1.00
C1908  C     0.87621   0.85545   0.90258   0.00000  Uiso   1.00
C1909  C     0.89946   0.88269   0.93054   0.00000  Uiso   1.00
C1910  C     0.77108   0.85671   0.98317   0.00000  Uiso   1.00
C1911  C     0.82832   0.81497   0.97949   0.00000  Uiso   1.00
C1912  C     0.81973   0.82218   0.52123   0.00000  Uiso   1.00
C1913  C     0.78181   0.83952   0.54324   0.00000  Uiso   1.00
C1914  C     0.75703   0.85545   0.52429   0.00000  Uiso   1.00
H1915  H     0.72758   0.86800   0.54198   0.00000  Uiso   1.00
H1916  H     0.69215   0.74825   0.78876   0.00000  Uiso   1.00
H1917  H     0.68808   0.78971   0.82920   0.00000  Uiso   1.00
H1918  H     0.97970   0.74700   0.83193   0.00000  Uiso   1.00
H1919  H     0.95577   0.80833   0.81633   0.00000  Uiso   1.00
H1920  H     0.96145   0.76722   0.77523   0.00000  Uiso   1.00
H1921  H     0.92329   0.96547   0.67163   0.00000  Uiso   1.00
H1922  H     0.87488   0.95204   0.65455   0.00000  Uiso   1.00
H1923  H     0.91318   0.99517   0.63729   0.00000  Uiso   1.00
H1924  H     0.85333   0.68922   0.68470   0.00000  Uiso   1.00
H1925  H     0.89737   0.69797   0.70648   0.00000  Uiso   1.00
H1926  H     0.71869   0.88893   0.98282   0.00000  Uiso   1.00
H1927  H     0.78673   0.72428   0.84269   0.00000  Uiso   1.00
H1928  H     0.74472   0.71594   0.81747   0.00000  Uiso   1.00
H1929  H     0.74062   0.68712   0.85835   0.00000  Uiso   1.00
H1930  H     0.76104   0.97611   0.79624   0.00000  Uiso   1.00
H1931  H     0.80464   0.98584   0.81968   0.00000  Uiso   1.00
H1932  H     0.91441   0.88766   0.55394   0.00000  Uiso   1.00
H1933  H     0.87327   0.89407   0.53108   0.00000  Uiso   1.00
H1934  H     0.88294   0.93097   0.57119   0.00000  Uiso   1.00
H1935  H     0.81662   0.88173   0.59465   0.00000  Uiso   1.00
H1936  H     0.85593   0.88199   0.61868   0.00000  Uiso   1.00
H1937  H     0.76949   0.83812   0.57500   0.00000  Uiso   1.00
H1938  H     0.89762   0.75306   0.62967   0.00000  Uiso   1.00
H1939  H     0.93688   0.77948   0.90443   0.00000  Uiso   1.00
H1940  H     0.95858   0.79829   0.94603   0.00000  Uiso   1.00
H1941  H     0.97790   0.75373   0.91266   0.00000  Uiso   1.00
H1942  H     0.93189   0.73049   0.97325   0.00000  Uiso   1.00
H1943  H     0.90391   0.71423   0.93584   0.00000  Uiso   1.00
H1944  H     0.68380   0.88007   0.87452   0.00000  Uiso   1.00
H1945  H     0.71905   0.84076   0.86924   0.00000  Uiso   1.00
H1946  H     0.67758   0.84984   0.91501   0.00000  Uiso   1.00
H1947  H     0.71179   0.91838   0.93028   0.00000  Uiso   1.00
H1948  H     0.84126   0.67529   0.59085   0.00000  Uiso   1.00
H1949  H     0.75087   0.91844   0.88432   0.00000  Uiso   1.00
H1950  H     0.88372   0.91151   0.94268   0.00000  Uiso   1.00
H1951  H     0.89994   0.86583   0.95541   0.00000  Uiso   1.00
H1952  H     0.93340   0.89148   0.91387   0.00000  Uiso   1.00
H1953  H     0.89034   0.82577   0.89269   0.00000  Uiso   1.00
H1954  H     0.88436   0.87198   0.87558   0.00000  Uiso   1.00
H1955  H     0.82692   0.76953   0.91619   0.00000  Uiso   1.00
H1956  H     0.80816   0.68551   0.56102   0.00000  Uiso   1.00
H1957  H     0.83744   0.97395   0.54762   0.00000  Uiso   1.00
H1958  H     0.90762   0.68899   0.53538   0.00000  Uiso   1.00
H1959  H     0.87435   0.68965   0.50325   0.00000  Uiso   1.00
H1960  H     0.67575   0.88298   0.70013   0.00000  Uiso   1.00
O1961  O     0.83333   0.83333   0.75000   0.00000  Uiso   1.00
O1962  O     0.82360   0.79060   0.66625   0.00000  Uiso   1.00
O1963  O     0.79354   0.87313   0.83749   0.00000  Uiso   1.00
O1964  O     0.87755   0.84159   0.65877   0.00000  Uiso   1.00
O1965  O     0.83865   0.82802   0.83749   0.00000  Uiso   1.00
O1966  O     0.69040   0.86894   0.71462   0.00000  Uiso   1.00
O1967  O     0.89060   0.73628   0.60637   0.00000  Uiso   1.00
O1968  O     0.85406   0.76504   0.92123   0.00000  Uiso   1.00
O1969  O     0.84515   0.74768   0.77820   0.00000  Uiso   1.00
O1970  O     0.81247   0.92803   0.76767   0.00000  Uiso   1.00
O1971  O     0.74119   0.79917   0.73607   0.00000  Uiso   1.00
O1972  O     0.93452   0.85845   0.71805   0.00000  Uiso   1.00
O1973  O     0.73656   0.85627   0.77820   0.00000  Uiso   1.00
O1974  O     0.92106   0.81944   0.76767   0.00000  Uiso   1.00
O1975  O     0.80467   0.73570   0.73607   0.00000  Uiso   1.00
O1976  O     0.87104   0.92193   0.71805   0.00000  Uiso   1.00
Zn1977 Zn    0.85910   0.80756   0.78277   0.00000  Uiso   1.00
Zn1978 Zn    0.80125   0.79044   0.72257   0.00000  Uiso   1.00
Zn1979 Zn    0.87833   0.86331   0.71188   0.00000  Uiso   1.00
Zn1980 Zn    0.79465   0.87202   0.78277   0.00000  Uiso   1.00
loop_
_geom_bond_atom_site_label_1
_geom_bond_atom_site_label_2
_geom_bond_distance
_geom_bond_site_symmetry_2
_ccdc_geom_bond_type
C1     C11     1.435   .     S
C1     O103    1.269   .     A
C1     O101    1.262   .     A
C2     O98     1.382   .     S
C2     C41     1.423   .     A
C2     C3      1.410   .     A
C3     C33     1.524   .     S
C3     C995    1.422   .     S
C4     O102    1.290   .     A
C4     C10     1.473   .     S
C4     O104    1.268   .     A
C5     C7      1.421   .     A
C5     C6      1.412   .     A
C5     C993    1.422   1_554 S
C6     C9      1.419   .     A
C6     C42     1.409   .     A
C7     C8      1.410   .     A
C7     C22     1.528   .     S
C8     C20     1.419   .     A
C8     O97     1.385   .     S
C9     C20     1.409   .     A
C9     C31     1.536   .     S
C10    C121    1.363   .     S
C10    O206    1.388   .     S
C11    C230    1.363   1_455 S
C11    C245    1.536   1_455 S
C12    C36     1.519   .     S
C12    C21     1.398   .     A
C12    C19     1.431   .     A
C13    C16     1.474   .     S
C13    C344    1.371   .     S
C13    C357    1.547   .     S
C14    C15     1.435   .     S
C14    C673    1.371   1_545 S
C14    C689    1.537   1_545 S
C15    O99     1.267   .     A
C15    O105    1.275   .     A
C16    O106    1.275   .     A
C16    O100    1.270   .     A
C17    O92     1.279   .     A
C17    C20     1.467   .     S
C17    O94     1.283   .     A
C18    C19     1.489   .     S
C18    O95     1.298   .     A
C18    O93     1.281   .     A
C19    C23     1.419   .     A
C21    H56     1.085   .     S
C21    C40     1.392   .     A
C22    H88     1.111   .     S
C22    C24     1.532   .     S
C22    H89     1.106   .     S
C23    C34     1.421   .     A
C23    C38     1.535   .     S
C24    H78     1.109   .     S
C24    H86     1.111   .     S
C24    H747    1.111   1_545 S
C25    H50     1.112   .     S
C25    H49     1.112   .     S
C25    C121    1.536   .     S
C25    C136    1.533   .     S
C26    H46     1.110   .     S
C26    H47     1.108   .     S
C26    C245    1.533   1_455 S
C26    H268    1.110   1_455 S
C27    H54     1.111   .     S
C27    H55     1.112   .     S
C27    C673    1.547   1_545 S
C27    C688    1.530   1_545 S
C28    H51     1.110   .     S
C28    H53     1.111   .     S
C28    H52     1.110   .     S
C28    C357    1.530   .     S
C29    H61     1.112   .     S
C29    H60     1.111   .     S
C29    C344    1.537   .     S
C29    C360    1.535   .     S
C30    H57     1.111   .     S
C30    H58     1.111   .     S
C30    H59     1.111   .     S
C30    C689    1.535   1_545 S
C31    H66     1.103   .     S
C31    C32     1.529   .     S
C31    H65     1.103   .     S
C32    H64     1.111   .     S
C32    H63     1.110   .     S
C32    H62     1.111   .     S
C33    H72     1.108   .     S
C33    H73     1.111   .     S
C33    C35     1.529   .     S
C34    C40     1.415   .     A
C34    C41     1.425   .     A
C35    H70     1.110   .     S
C35    H71     1.111   .     S
C35    H69     1.109   .     S
C36    C37     1.526   .     S
C36    H77     1.112   .     S
C36    H79     1.108   .     S
C37    H74     1.110   .     S
C37    H75     1.107   .     S
C37    H76     1.108   .     S
C38    H83     1.103   .     S
C38    C39     1.531   .     S
C38    H84     1.110   .     S
C39    H81     1.108   .     S
C39    H82     1.111   .     S
C39    H80     1.111   .     S
C40    C1034   1.395   .     S
C41    C1032   1.411   .     S
C42    C43     1.406   .     A
C42    C1031   1.411   1_554 S
C43    C44     1.386   .     A
C43    H67     1.082   .     S
C44    H45     1.084   .     S
C44    C1030   1.395   1_554 S
H48    C136    1.110   .     S
H68    O97     0.989   .     S
H85    O98     0.990   .     S
H87    C354    1.111   .     S
H90    O96     0.990   .     S
O91    Zn110   1.932   .     S
O91    Zn107   1.957   .     S
O91    Zn108   1.948   .     S
O91    Zn109   1.934   .     S
O92    Zn108   1.911   .     S
O93    Zn110   1.921   .     S
O94    Zn109   1.918   .     S
O95    Zn107   1.908   .     S
O96    C230    1.388   1_455 S
O99    Zn107   1.941   .     S
O100   Zn110   1.942   .     S
O101   Zn108   1.935   .     S
O102   Zn109   1.945   .     S
O103   Zn110   1.943   .     S
O104   Zn107   1.934   .     S
O105   Zn108   1.945   .     S
O106   Zn109   1.941   .     S
C111   C121    1.435   .     S
C111   O213    1.269   .     A
C111   O211    1.262   .     A
C112   O208    1.382   .     S
C112   C151    1.423   .     A
C112   C113    1.410   .     A
C113   C143    1.524   .     S
C113   C1105   1.422   .     S
C114   O212    1.290   .     A
C114   C120    1.473   .     S
C114   O214    1.268   .     A
C115   C117    1.421   .     A
C115   C116    1.412   .     A
C115   C1103   1.422   1_554 S
C116   C119    1.419   .     A
C116   C152    1.409   .     A
C117   C118    1.410   .     A
C117   C132    1.528   .     S
C118   C130    1.419   .     A
C118   O207    1.385   .     S
C119   C130    1.409   .     A
C119   C141    1.536   .     S
C120   C231    1.363   .     S
C120   O316    1.388   .     S
C122   C146    1.519   .     S
C122   C131    1.398   .     A
C122   C129    1.431   .     A
C123   C126    1.474   .     S
C123   C454    1.371   .     S
C123   C467    1.547   .     S
C124   C125    1.435   .     S
C124   C783    1.371   1_545 S
C124   C799    1.537   1_545 S
C125   O209    1.267   .     A
C125   O215    1.275   .     A
C126   O216    1.275   .     A
C126   O210    1.270   .     A
C127   O202    1.279   .     A
C127   C130    1.467   .     S
C127   O204    1.283   .     A
C128   C129    1.489   .     S
C128   O205    1.298   .     A
C128   O203    1.281   .     A
C129   C133    1.419   .     A
C131   H166    1.085   .     S
C131   C150    1.392   .     A
C132   H198    1.111   .     S
C132   C134    1.532   .     S
C132   H199    1.106   .     S
C133   C144    1.421   .     A
C133   C148    1.535   .     S
C134   H188    1.109   .     S
C134   H196    1.111   .     S
C134   H857    1.111   1_545 S
C135   H160    1.112   .     S
C135   H159    1.112   .     S
C135   C231    1.536   .     S
C135   C246    1.533   .     S
C136   H156    1.110   .     S
C136   H157    1.108   .     S
C137   H164    1.111   .     S
C137   H165    1.112   .     S
C137   C783    1.547   1_545 S
C137   C798    1.530   1_545 S
C138   H161    1.110   .     S
C138   H163    1.111   .     S
C138   H162    1.110   .     S
C138   C467    1.530   .     S
C139   H171    1.112   .     S
C139   H170    1.111   .     S
C139   C454    1.537   .     S
C139   C470    1.535   .     S
C140   H167    1.111   .     S
C140   H168    1.111   .     S
C140   H169    1.111   .     S
C140   C799    1.535   1_545 S
C141   H176    1.103   .     S
C141   C142    1.529   .     S
C141   H175    1.103   .     S
C142   H174    1.111   .     S
C142   H173    1.110   .     S
C142   H172    1.111   .     S
C143   H182    1.108   .     S
C143   H183    1.111   .     S
C143   C145    1.529   .     S
C144   C150    1.415   .     A
C144   C151    1.425   .     A
C145   H180    1.110   .     S
C145   H181    1.111   .     S
C145   H179    1.109   .     S
C146   C147    1.526   .     S
C146   H187    1.112   .     S
C146   H189    1.108   .     S
C147   H184    1.110   .     S
C147   H185    1.107   .     S
C147   H186    1.108   .     S
C148   H193    1.103   .     S
C148   C149    1.531   .     S
C148   H194    1.110   .     S
C149   H191    1.108   .     S
C149   H192    1.111   .     S
C149   H190    1.111   .     S
C150   C1144   1.395   .     S
C151   C1142   1.411   .     S
C152   C153    1.406   .     A
C152   C1141   1.411   1_554 S
C153   C154    1.386   .     A
C153   H177    1.082   .     S
C154   H155    1.084   .     S
C154   C1140   1.395   1_554 S
H158   C246    1.110   .     S
H178   O207    0.989   .     S
H195   O208    0.990   .     S
H197   C464    1.111   .     S
H200   O206    0.990   .     S
O201   Zn220   1.932   .     S
O201   Zn217   1.957   .     S
O201   Zn218   1.948   .     S
O201   Zn219   1.934   .     S
O202   Zn218   1.911   .     S
O203   Zn220   1.921   .     S
O204   Zn219   1.918   .     S
O205   Zn217   1.908   .     S
O209   Zn217   1.941   .     S
O210   Zn220   1.942   .     S
O211   Zn218   1.935   .     S
O212   Zn219   1.945   .     S
O213   Zn220   1.943   .     S
O214   Zn217   1.934   .     S
O215   Zn218   1.945   .     S
O216   Zn219   1.941   .     S
C221   C231    1.435   .     S
C221   O323    1.269   .     A
C221   O321    1.262   .     A
C222   O318    1.382   .     S
C222   C261    1.423   .     A
C222   C223    1.410   .     A
C223   C253    1.524   .     S
C223   C1215   1.422   .     S
C224   O322    1.290   .     A
C224   C230    1.473   .     S
C224   O324    1.268   .     A
C225   C227    1.421   .     A
C225   C226    1.412   .     A
C225   C1213   1.422   1_554 S
C226   C229    1.419   .     A
C226   C262    1.409   .     A
C227   C228    1.410   .     A
C227   C242    1.528   .     S
C228   C240    1.419   .     A
C228   O317    1.385   .     S
C229   C240    1.409   .     A
C229   C251    1.536   .     S
C230   C11     1.363   1_655 S
C230   O96     1.388   1_655 S
C232   C256    1.519   .     S
C232   C241    1.398   .     A
C232   C239    1.431   .     A
C233   C236    1.474   .     S
C233   C564    1.371   .     S
C233   C577    1.547   .     S
C234   C235    1.435   .     S
C234   C893    1.371   1_545 S
C234   C909    1.537   1_545 S
C235   O319    1.267   .     A
C235   O325    1.275   .     A
C236   O326    1.275   .     A
C236   O320    1.270   .     A
C237   O312    1.279   .     A
C237   C240    1.467   .     S
C237   O314    1.283   .     A
C238   C239    1.489   .     S
C238   O315    1.298   .     A
C238   O313    1.281   .     A
C239   C243    1.419   .     A
C241   H276    1.085   .     S
C241   C260    1.392   .     A
C242   H308    1.111   .     S
C242   C244    1.532   .     S
C242   H309    1.106   .     S
C243   C254    1.421   .     A
C243   C258    1.535   .     S
C244   H298    1.109   .     S
C244   H306    1.111   .     S
C244   H967    1.111   1_545 S
C245   H270    1.112   .     S
C245   H269    1.112   .     S
C245   C11     1.536   1_655 S
C245   C26     1.533   1_655 S
C246   H266    1.110   .     S
C246   H267    1.108   .     S
C247   H274    1.111   .     S
C247   H275    1.112   .     S
C247   C893    1.547   1_545 S
C247   C908    1.530   1_545 S
C248   H271    1.110   .     S
C248   H273    1.111   .     S
C248   H272    1.110   .     S
C248   C577    1.530   .     S
C249   H281    1.112   .     S
C249   H280    1.111   .     S
C249   C564    1.537   .     S
C249   C580    1.535   .     S
C250   H277    1.111   .     S
C250   H278    1.111   .     S
C250   H279    1.111   .     S
C250   C909    1.535   1_545 S
C251   H286    1.103   .     S
C251   C252    1.529   .     S
C251   H285    1.103   .     S
C252   H284    1.111   .     S
C252   H283    1.110   .     S
C252   H282    1.111   .     S
C253   H292    1.108   .     S
C253   H293    1.111   .     S
C253   C255    1.529   .     S
C254   C260    1.415   .     A
C254   C261    1.425   .     A
C255   H290    1.110   .     S
C255   H291    1.111   .     S
C255   H289    1.109   .     S
C256   C257    1.526   .     S
C256   H297    1.112   .     S
C256   H299    1.108   .     S
C257   H294    1.110   .     S
C257   H295    1.107   .     S
C257   H296    1.108   .     S
C258   H303    1.103   .     S
C258   C259    1.531   .     S
C258   H304    1.110   .     S
C259   H301    1.108   .     S
C259   H302    1.111   .     S
C259   H300    1.111   .     S
C260   C1254   1.395   .     S
C261   C1252   1.411   .     S
C262   C263    1.406   .     A
C262   C1251   1.411   1_554 S
C263   C264    1.386   .     A
C263   H287    1.082   .     S
C264   H265    1.084   .     S
C264   C1250   1.395   1_554 S
H268   C26     1.110   1_655 S
H288   O317    0.989   .     S
H305   O318    0.990   .     S
H307   C574    1.111   .     S
H310   O316    0.990   .     S
O311   Zn330   1.932   .     S
O311   Zn327   1.957   .     S
O311   Zn328   1.948   .     S
O311   Zn329   1.934   .     S
O312   Zn328   1.911   .     S
O313   Zn330   1.921   .     S
O314   Zn329   1.918   .     S
O315   Zn327   1.908   .     S
O319   Zn327   1.941   .     S
O320   Zn330   1.942   .     S
O321   Zn328   1.935   .     S
O322   Zn329   1.945   .     S
O323   Zn330   1.943   .     S
O324   Zn327   1.934   .     S
O325   Zn328   1.945   .     S
O326   Zn329   1.941   .     S
C331   C341    1.435   .     S
C331   O433    1.269   .     A
C331   O431    1.262   .     A
C332   O428    1.382   .     S
C332   C371    1.423   .     A
C332   C333    1.410   .     A
C333   C363    1.524   .     S
C333   C1325   1.422   .     S
C334   O432    1.290   .     A
C334   C340    1.473   .     S
C334   O434    1.268   .     A
C335   C337    1.421   .     A
C335   C336    1.412   .     A
C335   C1323   1.422   1_554 S
C336   C339    1.419   .     A
C336   C372    1.409   .     A
C337   C338    1.410   .     A
C337   C352    1.528   .     S
C338   C350    1.419   .     A
C338   O427    1.385   .     S
C339   C350    1.409   .     A
C339   C361    1.536   .     S
C340   C451    1.363   .     S
C340   O536    1.388   .     S
C341   C560    1.363   1_455 S
C341   C575    1.536   1_455 S
C342   C366    1.519   .     S
C342   C351    1.398   .     A
C342   C349    1.431   .     A
C343   C346    1.474   .     S
C343   C674    1.371   .     S
C343   C687    1.547   .     S
C344   C345    1.435   .     S
C345   O429    1.267   .     A
C345   O435    1.275   .     A
C346   O436    1.275   .     A
C346   O430    1.270   .     A
C347   O422    1.279   .     A
C347   C350    1.467   .     S
C347   O424    1.283   .     A
C348   C349    1.489   .     S
C348   O425    1.298   .     A
C348   O423    1.281   .     A
C349   C353    1.419   .     A
C351   H386    1.085   .     S
C351   C370    1.392   .     A
C352   H418    1.111   .     S
C352   C354    1.532   .     S
C352   H419    1.106   .     S
C353   C364    1.421   .     A
C353   C368    1.535   .     S
C354   H408    1.109   .     S
C354   H416    1.111   .     S
C355   H380    1.112   .     S
C355   H379    1.112   .     S
C355   C451    1.536   .     S
C355   C466    1.533   .     S
C356   H376    1.110   .     S
C356   H377    1.108   .     S
C356   C575    1.533   1_455 S
C356   H598    1.110   1_455 S
C357   H384    1.111   .     S
C357   H385    1.112   .     S
C358   H381    1.110   .     S
C358   H383    1.111   .     S
C358   H382    1.110   .     S
C358   C687    1.530   .     S
C359   H391    1.112   .     S
C359   H390    1.111   .     S
C359   C674    1.537   .     S
C359   C690    1.535   .     S
C360   H387    1.111   .     S
C360   H388    1.111   .     S
C360   H389    1.111   .     S
C361   H396    1.103   .     S
C361   C362    1.529   .     S
C361   H395    1.103   .     S
C362   H394    1.111   .     S
C362   H393    1.110   .     S
C362   H392    1.111   .     S
C363   H402    1.108   .     S
C363   H403    1.111   .     S
C363   C365    1.529   .     S
C364   C370    1.415   .     A
C364   C371    1.425   .     A
C365   H400    1.110   .     S
C365   H401    1.111   .     S
C365   H399    1.109   .     S
C366   C367    1.526   .     S
C366   H407    1.112   .     S
C366   H409    1.108   .     S
C367   H404    1.110   .     S
C367   H405    1.107   .     S
C367   H406    1.108   .     S
C368   H413    1.103   .     S
C368   C369    1.531   .     S
C368   H414    1.110   .     S
C369   H411    1.108   .     S
C369   H412    1.111   .     S
C369   H410    1.111   .     S
C370   C1364   1.395   .     S
C371   C1362   1.411   .     S
C372   C373    1.406   .     A
C372   C1361   1.411   1_554 S
C373   C374    1.386   .     A
C373   H397    1.082   .     S
C374   H375    1.084   .     S
C374   C1360   1.395   1_554 S
H378   C466    1.110   .     S
H398   O427    0.989   .     S
H415   O428    0.990   .     S
H417   C684    1.111   .     S
H420   O426    0.990   .     S
O421   Zn440   1.932   .     S
O421   Zn437   1.957   .     S
O421   Zn438   1.948   .     S
O421   Zn439   1.934   .     S
O422   Zn438   1.911   .     S
O423   Zn440   1.921   .     S
O424   Zn439   1.918   .     S
O425   Zn437   1.908   .     S
O426   C560    1.388   1_455 S
O429   Zn437   1.941   .     S
O430   Zn440   1.942   .     S
O431   Zn438   1.935   .     S
O432   Zn439   1.945   .     S
O433   Zn440   1.943   .     S
O434   Zn437   1.934   .     S
O435   Zn438   1.945   .     S
O436   Zn439   1.941   .     S
C441   C451    1.435   .     S
C441   O543    1.269   .     A
C441   O541    1.262   .     A
C442   O538    1.382   .     S
C442   C481    1.423   .     A
C442   C443    1.410   .     A
C443   C473    1.524   .     S
C443   C1435   1.422   .     S
C444   O542    1.290   .     A
C444   C450    1.473   .     S
C444   O544    1.268   .     A
C445   C447    1.421   .     A
C445   C446    1.412   .     A
C445   C1433   1.422   1_554 S
C446   C449    1.419   .     A
C446   C482    1.409   .     A
C447   C448    1.410   .     A
C447   C462    1.528   .     S
C448   C460    1.419   .     A
C448   O537    1.385   .     S
C449   C460    1.409   .     A
C449   C471    1.536   .     S
C450   C561    1.363   .     S
C450   O646    1.388   .     S
C452   C476    1.519   .     S
C452   C461    1.398   .     A
C452   C459    1.431   .     A
C453   C456    1.474   .     S
C453   C784    1.371   .     S
C453   C797    1.547   .     S
C454   C455    1.435   .     S
C455   O539    1.267   .     A
C455   O545    1.275   .     A
C456   O546    1.275   .     A
C456   O540    1.270   .     A
C457   O532    1.279   .     A
C457   C460    1.467   .     S
C457   O534    1.283   .     A
C458   C459    1.489   .     S
C458   O535    1.298   .     A
C458   O533    1.281   .     A
C459   C463    1.419   .     A
C461   H496    1.085   .     S
C461   C480    1.392   .     A
C462   H528    1.111   .     S
C462   C464    1.532   .     S
C462   H529    1.106   .     S
C463   C474    1.421   .     A
C463   C478    1.535   .     S
C464   H518    1.109   .     S
C464   H526    1.111   .     S
C465   H490    1.112   .     S
C465   H489    1.112   .     S
C465   C561    1.536   .     S
C465   C576    1.533   .     S
C466   H486    1.110   .     S
C466   H487    1.108   .     S
C467   H494    1.111   .     S
C467   H495    1.112   .     S
C468   H491    1.110   .     S
C468   H493    1.111   .     S
C468   H492    1.110   .     S
C468   C797    1.530   .     S
C469   H501    1.112   .     S
C469   H500    1.111   .     S
C469   C784    1.537   .     S
C469   C800    1.535   .     S
C470   H497    1.111   .     S
C470   H498    1.111   .     S
C470   H499    1.111   .     S
C471   H506    1.103   .     S
C471   C472    1.529   .     S
C471   H505    1.103   .     S
C472   H504    1.111   .     S
C472   H503    1.110   .     S
C472   H502    1.111   .     S
C473   H512    1.108   .     S
C473   H513    1.111   .     S
C473   C475    1.529   .     S
C474   C480    1.415   .     A
C474   C481    1.425   .     A
C475   H510    1.110   .     S
C475   H511    1.111   .     S
C475   H509    1.109   .     S
C476   C477    1.526   .     S
C476   H517    1.112   .     S
C476   H519    1.108   .     S
C477   H514    1.110   .     S
C477   H515    1.107   .     S
C477   H516    1.108   .     S
C478   H523    1.103   .     S
C478   C479    1.531   .     S
C478   H524    1.110   .     S
C479   H521    1.108   .     S
C479   H522    1.111   .     S
C479   H520    1.111   .     S
C480   C1474   1.395   .     S
C481   C1472   1.411   .     S
C482   C483    1.406   .     A
C482   C1471   1.411   1_554 S
C483   C484    1.386   .     A
C483   H507    1.082   .     S
C484   H485    1.084   .     S
C484   C1470   1.395   1_554 S
H488   C576    1.110   .     S
H508   O537    0.989   .     S
H525   O538    0.990   .     S
H527   C794    1.111   .     S
H530   O536    0.990   .     S
O531   Zn550   1.932   .     S
O531   Zn547   1.957   .     S
O531   Zn548   1.948   .     S
O531   Zn549   1.934   .     S
O532   Zn548   1.911   .     S
O533   Zn550   1.921   .     S
O534   Zn549   1.918   .     S
O535   Zn547   1.908   .     S
O539   Zn547   1.941   .     S
O540   Zn550   1.942   .     S
O541   Zn548   1.935   .     S
O542   Zn549   1.945   .     S
O543   Zn550   1.943   .     S
O544   Zn547   1.934   .     S
O545   Zn548   1.945   .     S
O546   Zn549   1.941   .     S
C551   C561    1.435   .     S
C551   O653    1.269   .     A
C551   O651    1.262   .     A
C552   O648    1.382   .     S
C552   C591    1.423   .     A
C552   C553    1.410   .     A
C553   C583    1.524   .     S
C553   C1545   1.422   .     S
C554   O652    1.290   .     A
C554   C560    1.473   .     S
C554   O654    1.268   .     A
C555   C557    1.421   .     A
C555   C556    1.412   .     A
C555   C1543   1.422   1_554 S
C556   C559    1.419   .     A
C556   C592    1.409   .     A
C557   C558    1.410   .     A
C557   C572    1.528   .     S
C558   C570    1.419   .     A
C558   O647    1.385   .     S
C559   C570    1.409   .     A
C559   C581    1.536   .     S
C560   C341    1.363   1_655 S
C560   O426    1.388   1_655 S
C562   C586    1.519   .     S
C562   C571    1.398   .     A
C562   C569    1.431   .     A
C563   C566    1.474   .     S
C563   C894    1.371   .     S
C563   C907    1.547   .     S
C564   C565    1.435   .     S
C565   O649    1.267   .     A
C565   O655    1.275   .     A
C566   O656    1.275   .     A
C566   O650    1.270   .     A
C567   O642    1.279   .     A
C567   C570    1.467   .     S
C567   O644    1.283   .     A
C568   C569    1.489   .     S
C568   O645    1.298   .     A
C568   O643    1.281   .     A
C569   C573    1.419   .     A
C571   H606    1.085   .     S
C571   C590    1.392   .     A
C572   H638    1.111   .     S
C572   C574    1.532   .     S
C572   H639    1.106   .     S
C573   C584    1.421   .     A
C573   C588    1.535   .     S
C574   H628    1.109   .     S
C574   H636    1.111   .     S
C575   H600    1.112   .     S
C575   H599    1.112   .     S
C575   C341    1.536   1_655 S
C575   C356    1.533   1_655 S
C576   H596    1.110   .     S
C576   H597    1.108   .     S
C577   H604    1.111   .     S
C577   H605    1.112   .     S
C578   H601    1.110   .     S
C578   H603    1.111   .     S
C578   H602    1.110   .     S
C578   C907    1.530   .     S
C579   H611    1.112   .     S
C579   H610    1.111   .     S
C579   C894    1.537   .     S
C579   C910    1.535   .     S
C580   H607    1.111   .     S
C580   H608    1.111   .     S
C580   H609    1.111   .     S
C581   H616    1.103   .     S
C581   C582    1.529   .     S
C581   H615    1.103   .     S
C582   H614    1.111   .     S
C582   H613    1.110   .     S
C582   H612    1.111   .     S
C583   H622    1.108   .     S
C583   H623    1.111   .     S
C583   C585    1.529   .     S
C584   C590    1.415   .     A
C584   C591    1.425   .     A
C585   H620    1.110   .     S
C585   H621    1.111   .     S
C585   H619    1.109   .     S
C586   C587    1.526   .     S
C586   H627    1.112   .     S
C586   H629    1.108   .     S
C587   H624    1.110   .     S
C587   H625    1.107   .     S
C587   H626    1.108   .     S
C588   H633    1.103   .     S
C588   C589    1.531   .     S
C588   H634    1.110   .     S
C589   H631    1.108   .     S
C589   H632    1.111   .     S
C589   H630    1.111   .     S
C590   C1584   1.395   .     S
C591   C1582   1.411   .     S
C592   C593    1.406   .     A
C592   C1581   1.411   1_554 S
C593   C594    1.386   .     A
C593   H617    1.082   .     S
C594   H595    1.084   .     S
C594   C1580   1.395   1_554 S
H598   C356    1.110   1_655 S
H618   O647    0.989   .     S
H635   O648    0.990   .     S
H637   C904    1.111   .     S
H640   O646    0.990   .     S
O641   Zn660   1.932   .     S
O641   Zn657   1.957   .     S
O641   Zn658   1.948   .     S
O641   Zn659   1.934   .     S
O642   Zn658   1.911   .     S
O643   Zn660   1.921   .     S
O644   Zn659   1.918   .     S
O645   Zn657   1.908   .     S
O649   Zn657   1.941   .     S
O650   Zn660   1.942   .     S
O651   Zn658   1.935   .     S
O652   Zn659   1.945   .     S
O653   Zn660   1.943   .     S
O654   Zn657   1.934   .     S
O655   Zn658   1.945   .     S
O656   Zn659   1.941   .     S
C661   C671    1.435   .     S
C661   O763    1.269   .     A
C661   O761    1.262   .     A
C662   O758    1.382   .     S
C662   C701    1.423   .     A
C662   C663    1.410   .     A
C663   C693    1.524   .     S
C663   C1655   1.422   .     S
C664   O762    1.290   .     A
C664   C670    1.473   .     S
C664   O764    1.268   .     A
C665   C667    1.421   .     A
C665   C666    1.412   .     A
C665   C1653   1.422   1_554 S
C666   C669    1.419   .     A
C666   C702    1.409   .     A
C667   C668    1.410   .     A
C667   C682    1.528   .     S
C668   C680    1.419   .     A
C668   O757    1.385   .     S
C669   C680    1.409   .     A
C669   C691    1.536   .     S
C670   C781    1.363   .     S
C670   O866    1.388   .     S
C671   C890    1.363   1_455 S
C671   C905    1.536   1_455 S
C672   C696    1.519   .     S
C672   C681    1.398   .     A
C672   C679    1.431   .     A
C673   C676    1.474   .     S
C673   C14     1.371   1_565 S
C673   C27     1.547   1_565 S
C674   C675    1.435   .     S
C675   O759    1.267   .     A
C675   O765    1.275   .     A
C676   O766    1.275   .     A
C676   O760    1.270   .     A
C677   O752    1.279   .     A
C677   C680    1.467   .     S
C677   O754    1.283   .     A
C678   C679    1.489   .     S
C678   O755    1.298   .     A
C678   O753    1.281   .     A
C679   C683    1.419   .     A
C681   H716    1.085   .     S
C681   C700    1.392   .     A
C682   H748    1.111   .     S
C682   C684    1.532   .     S
C682   H749    1.106   .     S
C683   C694    1.421   .     A
C683   C698    1.535   .     S
C684   H738    1.109   .     S
C684   H746    1.111   .     S
C685   H710    1.112   .     S
C685   H709    1.112   .     S
C685   C781    1.536   .     S
C685   C796    1.533   .     S
C686   H706    1.110   .     S
C686   H707    1.108   .     S
C686   C905    1.533   1_455 S
C686   H928    1.110   1_455 S
C687   H714    1.111   .     S
C687   H715    1.112   .     S
C688   H711    1.110   .     S
C688   H713    1.111   .     S
C688   H712    1.110   .     S
C688   C27     1.530   1_565 S
C689   H721    1.112   .     S
C689   H720    1.111   .     S
C689   C14     1.537   1_565 S
C689   C30     1.535   1_565 S
C690   H717    1.111   .     S
C690   H718    1.111   .     S
C690   H719    1.111   .     S
C691   H726    1.103   .     S
C691   C692    1.529   .     S
C691   H725    1.103   .     S
C692   H724    1.111   .     S
C692   H723    1.110   .     S
C692   H722    1.111   .     S
C693   H732    1.108   .     S
C693   H733    1.111   .     S
C693   C695    1.529   .     S
C694   C700    1.415   .     A
C694   C701    1.425   .     A
C695   H730    1.110   .     S
C695   H731    1.111   .     S
C695   H729    1.109   .     S
C696   C697    1.526   .     S
C696   H737    1.112   .     S
C696   H739    1.108   .     S
C697   H734    1.110   .     S
C697   H735    1.107   .     S
C697   H736    1.108   .     S
C698   H743    1.103   .     S
C698   C699    1.531   .     S
C698   H744    1.110   .     S
C699   H741    1.108   .     S
C699   H742    1.111   .     S
C699   H740    1.111   .     S
C700   C1694   1.395   .     S
C701   C1692   1.411   .     S
C702   C703    1.406   .     A
C702   C1691   1.411   1_554 S
C703   C704    1.386   .     A
C703   H727    1.082   .     S
C704   H705    1.084   .     S
C704   C1690   1.395   1_554 S
H708   C796    1.110   .     S
H728   O757    0.989   .     S
H745   O758    0.990   .     S
H747   C24     1.111   1_565 S
H750   O756    0.990   .     S
O751   Zn770   1.932   .     S
O751   Zn767   1.957   .     S
O751   Zn768   1.948   .     S
O751   Zn769   1.934   .     S
O752   Zn768   1.911   .     S
O753   Zn770   1.921   .     S
O754   Zn769   1.918   .     S
O755   Zn767   1.908   .     S
O756   C890    1.388   1_455 S
O759   Zn767   1.941   .     S
O760   Zn770   1.942   .     S
O761   Zn768   1.935   .     S
O762   Zn769   1.945   .     S
O763   Zn770   1.943   .     S
O764   Zn767   1.934   .     S
O765   Zn768   1.945   .     S
O766   Zn769   1.941   .     S
C771   C781    1.435   .     S
C771   O873    1.269   .     A
C771   O871    1.262   .     A
C772   O868    1.382   .     S
C772   C811    1.423   .     A
C772   C773    1.410   .     A
C773   C803    1.524   .     S
C773   C1765   1.422   .     S
C774   O872    1.290   .     A
C774   C780    1.473   .     S
C774   O874    1.268   .     A
C775   C777    1.421   .     A
C775   C776    1.412   .     A
C775   C1763   1.422   1_554 S
C776   C779    1.419   .     A
C776   C812    1.409   .     A
C777   C778    1.410   .     A
C777   C792    1.528   .     S
C778   C790    1.419   .     A
C778   O867    1.385   .     S
C779   C790    1.409   .     A
C779   C801    1.536   .     S
C780   C891    1.363   .     S
C780   O976    1.388   .     S
C782   C806    1.519   .     S
C782   C791    1.398   .     A
C782   C789    1.431   .     A
C783   C786    1.474   .     S
C783   C124    1.371   1_565 S
C783   C137    1.547   1_565 S
C784   C785    1.435   .     S
C785   O869    1.267   .     A
C785   O875    1.275   .     A
C786   O876    1.275   .     A
C786   O870    1.270   .     A
C787   O862    1.279   .     A
C787   C790    1.467   .     S
C787   O864    1.283   .     A
C788   C789    1.489   .     S
C788   O865    1.298   .     A
C788   O863    1.281   .     A
C789   C793    1.419   .     A
C791   H826    1.085   .     S
C791   C810    1.392   .     A
C792   H858    1.111   .     S
C792   C794    1.532   .     S
C792   H859    1.106   .     S
C793   C804    1.421   .     A
C793   C808    1.535   .     S
C794   H848    1.109   .     S
C794   H856    1.111   .     S
C795   H820    1.112   .     S
C795   H819    1.112   .     S
C795   C891    1.536   .     S
C795   C906    1.533   .     S
C796   H816    1.110   .     S
C796   H817    1.108   .     S
C797   H824    1.111   .     S
C797   H825    1.112   .     S
C798   H821    1.110   .     S
C798   H823    1.111   .     S
C798   H822    1.110   .     S
C798   C137    1.530   1_565 S
C799   H831    1.112   .     S
C799   H830    1.111   .     S
C799   C124    1.537   1_565 S
C799   C140    1.535   1_565 S
C800   H827    1.111   .     S
C800   H828    1.111   .     S
C800   H829    1.111   .     S
C801   H836    1.103   .     S
C801   C802    1.529   .     S
C801   H835    1.103   .     S
C802   H834    1.111   .     S
C802   H833    1.110   .     S
C802   H832    1.111   .     S
C803   H842    1.108   .     S
C803   H843    1.111   .     S
C803   C805    1.529   .     S
C804   C810    1.415   .     A
C804   C811    1.425   .     A
C805   H840    1.110   .     S
C805   H841    1.111   .     S
C805   H839    1.109   .     S
C806   C807    1.526   .     S
C806   H847    1.112   .     S
C806   H849    1.108   .     S
C807   H844    1.110   .     S
C807   H845    1.107   .     S
C807   H846    1.108   .     S
C808   H853    1.103   .     S
C808   C809    1.531   .     S
C808   H854    1.110   .     S
C809   H851    1.108   .     S
C809   H852    1.111   .     S
C809   H850    1.111   .     S
C810   C1804   1.395   .     S
C811   C1802   1.411   .     S
C812   C813    1.406   .     A
C812   C1801   1.411   1_554 S
C813   C814    1.386   .     A
C813   H837    1.082   .     S
C814   H815    1.084   .     S
C814   C1800   1.395   1_554 S
H818   C906    1.110   .     S
H838   O867    0.989   .     S
H855   O868    0.990   .     S
H857   C134    1.111   1_565 S
H860   O866    0.990   .     S
O861   Zn880   1.932   .     S
O861   Zn877   1.957   .     S
O861   Zn878   1.948   .     S
O861   Zn879   1.934   .     S
O862   Zn878   1.911   .     S
O863   Zn880   1.921   .     S
O864   Zn879   1.918   .     S
O865   Zn877   1.908   .     S
O869   Zn877   1.941   .     S
O870   Zn880   1.942   .     S
O871   Zn878   1.935   .     S
O872   Zn879   1.945   .     S
O873   Zn880   1.943   .     S
O874   Zn877   1.934   .     S
O875   Zn878   1.945   .     S
O876   Zn879   1.941   .     S
C881   C891    1.435   .     S
C881   O983    1.269   .     A
C881   O981    1.262   .     A
C882   O978    1.382   .     S
C882   C921    1.423   .     A
C882   C883    1.410   .     A
C883   C913    1.524   .     S
C883   C1875   1.422   .     S
C884   O982    1.290   .     A
C884   C890    1.473   .     S
C884   O984    1.268   .     A
C885   C887    1.421   .     A
C885   C886    1.412   .     A
C885   C1873   1.422   1_554 S
C886   C889    1.419   .     A
C886   C922    1.409   .     A
C887   C888    1.410   .     A
C887   C902    1.528   .     S
C888   C900    1.419   .     A
C888   O977    1.385   .     S
C889   C900    1.409   .     A
C889   C911    1.536   .     S
C890   C671    1.363   1_655 S
C890   O756    1.388   1_655 S
C892   C916    1.519   .     S
C892   C901    1.398   .     A
C892   C899    1.431   .     A
C893   C896    1.474   .     S
C893   C234    1.371   1_565 S
C893   C247    1.547   1_565 S
C894   C895    1.435   .     S
C895   O979    1.267   .     A
C895   O985    1.275   .     A
C896   O986    1.275   .     A
C896   O980    1.270   .     A
C897   O972    1.279   .     A
C897   C900    1.467   .     S
C897   O974    1.283   .     A
C898   C899    1.489   .     S
C898   O975    1.298   .     A
C898   O973    1.281   .     A
C899   C903    1.419   .     A
C901   H936    1.085   .     S
C901   C920    1.392   .     A
C902   H968    1.111   .     S
C902   C904    1.532   .     S
C902   H969    1.106   .     S
C903   C914    1.421   .     A
C903   C918    1.535   .     S
C904   H958    1.109   .     S
C904   H966    1.111   .     S
C905   H930    1.112   .     S
C905   H929    1.112   .     S
C905   C671    1.536   1_655 S
C905   C686    1.533   1_655 S
C906   H926    1.110   .     S
C906   H927    1.108   .     S
C907   H934    1.111   .     S
C907   H935    1.112   .     S
C908   H931    1.110   .     S
C908   H933    1.111   .     S
C908   H932    1.110   .     S
C908   C247    1.530   1_565 S
C909   H941    1.112   .     S
C909   H940    1.111   .     S
C909   C234    1.537   1_565 S
C909   C250    1.535   1_565 S
C910   H937    1.111   .     S
C910   H938    1.111   .     S
C910   H939    1.111   .     S
C911   H946    1.103   .     S
C911   C912    1.529   .     S
C911   H945    1.103   .     S
C912   H944    1.111   .     S
C912   H943    1.110   .     S
C912   H942    1.111   .     S
C913   H952    1.108   .     S
C913   H953    1.111   .     S
C913   C915    1.529   .     S
C914   C920    1.415   .     A
C914   C921    1.425   .     A
C915   H950    1.110   .     S
C915   H951    1.111   .     S
C915   H949    1.109   .     S
C916   C917    1.526   .     S
C916   H957    1.112   .     S
C916   H959    1.108   .     S
C917   H954    1.110   .     S
C917   H955    1.107   .     S
C917   H956    1.108   .     S
C918   H963    1.103   .     S
C918   C919    1.531   .     S
C918   H964    1.110   .     S
C919   H961    1.108   .     S
C919   H962    1.111   .     S
C919   H960    1.111   .     S
C920   C1914   1.395   .     S
C921   C1912   1.411   .     S
C922   C923    1.406   .     A
C922   C1911   1.411   1_554 S
C923   C924    1.386   .     A
C923   H947    1.082   .     S
C924   H925    1.084   .     S
C924   C1910   1.395   1_554 S
H928   C686    1.110   1_655 S
H948   O977    0.989   .     S
H965   O978    0.990   .     S
H967   C244    1.111   1_565 S
H970   O976    0.990   .     S
O971   Zn990   1.932   .     S
O971   Zn987   1.957   .     S
O971   Zn988   1.948   .     S
O971   Zn989   1.934   .     S
O972   Zn988   1.911   .     S
O973   Zn990   1.921   .     S
O974   Zn989   1.918   .     S
O975   Zn987   1.908   .     S
O979   Zn987   1.941   .     S
O980   Zn990   1.942   .     S
O981   Zn988   1.935   .     S
O982   Zn989   1.945   .     S
O983   Zn990   1.943   .     S
O984   Zn987   1.934   .     S
O985   Zn988   1.945   .     S
O986   Zn989   1.941   .     S
C991   C1001   1.435   .     S
C991   O1093   1.269   .     A
C991   O1091   1.262   .     A
C992   O1088   1.382   .     S
C992   C1031   1.423   .     A
C992   C993    1.410   .     A
C993   C1023   1.524   .     S
C993   C5      1.422   1_556 S
C994   O1092   1.290   .     A
C994   C1000   1.473   .     S
C994   O1094   1.268   .     A
C995   C997    1.421   .     A
C995   C996    1.412   .     A
C996   C999    1.419   .     A
C996   C1032   1.409   .     A
C997   C998    1.410   .     A
C997   C1012   1.528   .     S
C998   C1010   1.419   .     A
C998   O1087   1.385   .     S
C999   C1010   1.409   .     A
C999   C1021   1.536   .     S
C1000  C1111   1.363   .     S
C1000  O1196   1.388   .     S
C1001  C1220   1.363   1_455 S
C1001  C1235   1.536   1_455 S
C1002  C1026   1.519   .     S
C1002  C1011   1.398   .     A
C1002  C1009   1.431   .     A
C1003  C1006   1.474   .     S
C1003  C1334   1.371   .     S
C1003  C1347   1.547   .     S
C1004  C1005   1.435   .     S
C1004  C1663   1.371   1_545 S
C1004  C1679   1.537   1_545 S
C1005  O1089   1.267   .     A
C1005  O1095   1.275   .     A
C1006  O1096   1.275   .     A
C1006  O1090   1.270   .     A
C1007  O1082   1.279   .     A
C1007  C1010   1.467   .     S
C1007  O1084   1.283   .     A
C1008  C1009   1.489   .     S
C1008  O1085   1.298   .     A
C1008  O1083   1.281   .     A
C1009  C1013   1.419   .     A
C1011  H1046   1.085   .     S
C1011  C1030   1.392   .     A
C1012  H1078   1.111   .     S
C1012  C1014   1.532   .     S
C1012  H1079   1.106   .     S
C1013  C1024   1.421   .     A
C1013  C1028   1.535   .     S
C1014  H1068   1.109   .     S
C1014  H1076   1.111   .     S
C1014  H1737   1.111   1_545 S
C1015  H1040   1.112   .     S
C1015  H1039   1.112   .     S
C1015  C1111   1.536   .     S
C1015  C1126   1.533   .     S
C1016  H1036   1.110   .     S
C1016  H1037   1.108   .     S
C1016  C1235   1.533   1_455 S
C1016  H1258   1.110   1_455 S
C1017  H1044   1.111   .     S
C1017  H1045   1.112   .     S
C1017  C1663   1.547   1_545 S
C1017  C1678   1.530   1_545 S
C1018  H1041   1.110   .     S
C1018  H1043   1.111   .     S
C1018  H1042   1.110   .     S
C1018  C1347   1.530   .     S
C1019  H1051   1.112   .     S
C1019  H1050   1.111   .     S
C1019  C1334   1.537   .     S
C1019  C1350   1.535   .     S
C1020  H1047   1.111   .     S
C1020  H1048   1.111   .     S
C1020  H1049   1.111   .     S
C1020  C1679   1.535   1_545 S
C1021  H1056   1.103   .     S
C1021  C1022   1.529   .     S
C1021  H1055   1.103   .     S
C1022  H1054   1.111   .     S
C1022  H1053   1.110   .     S
C1022  H1052   1.111   .     S
C1023  H1062   1.108   .     S
C1023  H1063   1.111   .     S
C1023  C1025   1.529   .     S
C1024  C1030   1.415   .     A
C1024  C1031   1.425   .     A
C1025  H1060   1.110   .     S
C1025  H1061   1.111   .     S
C1025  H1059   1.109   .     S
C1026  C1027   1.526   .     S
C1026  H1067   1.112   .     S
C1026  H1069   1.108   .     S
C1027  H1064   1.110   .     S
C1027  H1065   1.107   .     S
C1027  H1066   1.108   .     S
C1028  H1073   1.103   .     S
C1028  C1029   1.531   .     S
C1028  H1074   1.110   .     S
C1029  H1071   1.108   .     S
C1029  H1072   1.111   .     S
C1029  H1070   1.111   .     S
C1030  C44     1.395   1_556 S
C1031  C42     1.411   1_556 S
C1032  C1033   1.406   .     A
C1033  C1034   1.386   .     A
C1033  H1057   1.082   .     S
C1034  H1035   1.084   .     S
H1038  C1126   1.110   .     S
H1058  O1087   0.989   .     S
H1075  O1088   0.990   .     S
H1077  C1344   1.111   .     S
H1080  O1086   0.990   .     S
O1081  Zn1100  1.932   .     S
O1081  Zn1097  1.957   .     S
O1081  Zn1098  1.948   .     S
O1081  Zn1099  1.934   .     S
O1082  Zn1098  1.911   .     S
O1083  Zn1100  1.921   .     S
O1084  Zn1099  1.918   .     S
O1085  Zn1097  1.908   .     S
O1086  C1220   1.388   1_455 S
O1089  Zn1097  1.941   .     S
O1090  Zn1100  1.942   .     S
O1091  Zn1098  1.935   .     S
O1092  Zn1099  1.945   .     S
O1093  Zn1100  1.943   .     S
O1094  Zn1097  1.934   .     S
O1095  Zn1098  1.945   .     S
O1096  Zn1099  1.941   .     S
C1101  C1111   1.435   .     S
C1101  O1203   1.269   .     A
C1101  O1201   1.262   .     A
C1102  O1198   1.382   .     S
C1102  C1141   1.423   .     A
C1102  C1103   1.410   .     A
C1103  C1133   1.524   .     S
C1103  C115    1.422   1_556 S
C1104  O1202   1.290   .     A
C1104  C1110   1.473   .     S
C1104  O1204   1.268   .     A
C1105  C1107   1.421   .     A
C1105  C1106   1.412   .     A
C1106  C1109   1.419   .     A
C1106  C1142   1.409   .     A
C1107  C1108   1.410   .     A
C1107  C1122   1.528   .     S
C1108  C1120   1.419   .     A
C1108  O1197   1.385   .     S
C1109  C1120   1.409   .     A
C1109  C1131   1.536   .     S
C1110  C1221   1.363   .     S
C1110  O1306   1.388   .     S
C1112  C1136   1.519   .     S
C1112  C1121   1.398   .     A
C1112  C1119   1.431   .     A
C1113  C1116   1.474   .     S
C1113  C1444   1.371   .     S
C1113  C1457   1.547   .     S
C1114  C1115   1.435   .     S
C1114  C1773   1.371   1_545 S
C1114  C1789   1.537   1_545 S
C1115  O1199   1.267   .     A
C1115  O1205   1.275   .     A
C1116  O1206   1.275   .     A
C1116  O1200   1.270   .     A
C1117  O1192   1.279   .     A
C1117  C1120   1.467   .     S
C1117  O1194   1.283   .     A
C1118  C1119   1.489   .     S
C1118  O1195   1.298   .     A
C1118  O1193   1.281   .     A
C1119  C1123   1.419   .     A
C1121  H1156   1.085   .     S
C1121  C1140   1.392   .     A
C1122  H1188   1.111   .     S
C1122  C1124   1.532   .     S
C1122  H1189   1.106   .     S
C1123  C1134   1.421   .     A
C1123  C1138   1.535   .     S
C1124  H1178   1.109   .     S
C1124  H1186   1.111   .     S
C1124  H1847   1.111   1_545 S
C1125  H1150   1.112   .     S
C1125  H1149   1.112   .     S
C1125  C1221   1.536   .     S
C1125  C1236   1.533   .     S
C1126  H1146   1.110   .     S
C1126  H1147   1.108   .     S
C1127  H1154   1.111   .     S
C1127  H1155   1.112   .     S
C1127  C1773   1.547   1_545 S
C1127  C1788   1.530   1_545 S
C1128  H1151   1.110   .     S
C1128  H1153   1.111   .     S
C1128  H1152   1.110   .     S
C1128  C1457   1.530   .     S
C1129  H1161   1.112   .     S
C1129  H1160   1.111   .     S
C1129  C1444   1.537   .     S
C1129  C1460   1.535   .     S
C1130  H1157   1.111   .     S
C1130  H1158   1.111   .     S
C1130  H1159   1.111   .     S
C1130  C1789   1.535   1_545 S
C1131  H1166   1.103   .     S
C1131  C1132   1.529   .     S
C1131  H1165   1.103   .     S
C1132  H1164   1.111   .     S
C1132  H1163   1.110   .     S
C1132  H1162   1.111   .     S
C1133  H1172   1.108   .     S
C1133  H1173   1.111   .     S
C1133  C1135   1.529   .     S
C1134  C1140   1.415   .     A
C1134  C1141   1.425   .     A
C1135  H1170   1.110   .     S
C1135  H1171   1.111   .     S
C1135  H1169   1.109   .     S
C1136  C1137   1.526   .     S
C1136  H1177   1.112   .     S
C1136  H1179   1.108   .     S
C1137  H1174   1.110   .     S
C1137  H1175   1.107   .     S
C1137  H1176   1.108   .     S
C1138  H1183   1.103   .     S
C1138  C1139   1.531   .     S
C1138  H1184   1.110   .     S
C1139  H1181   1.108   .     S
C1139  H1182   1.111   .     S
C1139  H1180   1.111   .     S
C1140  C154    1.395   1_556 S
C1141  C152    1.411   1_556 S
C1142  C1143   1.406   .     A
C1143  C1144   1.386   .     A
C1143  H1167   1.082   .     S
C1144  H1145   1.084   .     S
H1148  C1236   1.110   .     S
H1168  O1197   0.989   .     S
H1185  O1198   0.990   .     S
H1187  C1454   1.111   .     S
H1190  O1196   0.990   .     S
O1191  Zn1210  1.932   .     S
O1191  Zn1207  1.957   .     S
O1191  Zn1208  1.948   .     S
O1191  Zn1209  1.934   .     S
O1192  Zn1208  1.911   .     S
O1193  Zn1210  1.921   .     S
O1194  Zn1209  1.918   .     S
O1195  Zn1207  1.908   .     S
O1199  Zn1207  1.941   .     S
O1200  Zn1210  1.942   .     S
O1201  Zn1208  1.935   .     S
O1202  Zn1209  1.945   .     S
O1203  Zn1210  1.943   .     S
O1204  Zn1207  1.934   .     S
O1205  Zn1208  1.945   .     S
O1206  Zn1209  1.941   .     S
C1211  C1221   1.435   .     S
C1211  O1313   1.269   .     A
C1211  O1311   1.262   .     A
C1212  O1308   1.382   .     S
C1212  C1251   1.423   .     A
C1212  C1213   1.410   .     A
C1213  C1243   1.524   .     S
C1213  C225    1.422   1_556 S
C1214  O1312   1.290   .     A
C1214  C1220   1.473   .     S
C1214  O1314   1.268   .     A
C1215  C1217   1.421   .     A
C1215  C1216   1.412   .     A
C1216  C1219   1.419   .     A
C1216  C1252   1.409   .     A
C1217  C1218   1.410   .     A
C1217  C1232   1.528   .     S
C1218  C1230   1.419   .     A
C1218  O1307   1.385   .     S
C1219  C1230   1.409   .     A
C1219  C1241   1.536   .     S
C1220  C1001   1.363   1_655 S
C1220  O1086   1.388   1_655 S
C1222  C1246   1.519   .     S
C1222  C1231   1.398   .     A
C1222  C1229   1.431   .     A
C1223  C1226   1.474   .     S
C1223  C1554   1.371   .     S
C1223  C1567   1.547   .     S
C1224  C1225   1.435   .     S
C1224  C1883   1.371   1_545 S
C1224  C1899   1.537   1_545 S
C1225  O1309   1.267   .     A
C1225  O1315   1.275   .     A
C1226  O1316   1.275   .     A
C1226  O1310   1.270   .     A
C1227  O1302   1.279   .     A
C1227  C1230   1.467   .     S
C1227  O1304   1.283   .     A
C1228  C1229   1.489   .     S
C1228  O1305   1.298   .     A
C1228  O1303   1.281   .     A
C1229  C1233   1.419   .     A
C1231  H1266   1.085   .     S
C1231  C1250   1.392   .     A
C1232  H1298   1.111   .     S
C1232  C1234   1.532   .     S
C1232  H1299   1.106   .     S
C1233  C1244   1.421   .     A
C1233  C1248   1.535   .     S
C1234  H1288   1.109   .     S
C1234  H1296   1.111   .     S
C1234  H1957   1.111   1_545 S
C1235  H1260   1.112   .     S
C1235  H1259   1.112   .     S
C1235  C1001   1.536   1_655 S
C1235  C1016   1.533   1_655 S
C1236  H1256   1.110   .     S
C1236  H1257   1.108   .     S
C1237  H1264   1.111   .     S
C1237  H1265   1.112   .     S
C1237  C1883   1.547   1_545 S
C1237  C1898   1.530   1_545 S
C1238  H1261   1.110   .     S
C1238  H1263   1.111   .     S
C1238  H1262   1.110   .     S
C1238  C1567   1.530   .     S
C1239  H1271   1.112   .     S
C1239  H1270   1.111   .     S
C1239  C1554   1.537   .     S
C1239  C1570   1.535   .     S
C1240  H1267   1.111   .     S
C1240  H1268   1.111   .     S
C1240  H1269   1.111   .     S
C1240  C1899   1.535   1_545 S
C1241  H1276   1.103   .     S
C1241  C1242   1.529   .     S
C1241  H1275   1.103   .     S
C1242  H1274   1.111   .     S
C1242  H1273   1.110   .     S
C1242  H1272   1.111   .     S
C1243  H1282   1.108   .     S
C1243  H1283   1.111   .     S
C1243  C1245   1.529   .     S
C1244  C1250   1.415   .     A
C1244  C1251   1.425   .     A
C1245  H1280   1.110   .     S
C1245  H1281   1.111   .     S
C1245  H1279   1.109   .     S
C1246  C1247   1.526   .     S
C1246  H1287   1.112   .     S
C1246  H1289   1.108   .     S
C1247  H1284   1.110   .     S
C1247  H1285   1.107   .     S
C1247  H1286   1.108   .     S
C1248  H1293   1.103   .     S
C1248  C1249   1.531   .     S
C1248  H1294   1.110   .     S
C1249  H1291   1.108   .     S
C1249  H1292   1.111   .     S
C1249  H1290   1.111   .     S
C1250  C264    1.395   1_556 S
C1251  C262    1.411   1_556 S
C1252  C1253   1.406   .     A
C1253  C1254   1.386   .     A
C1253  H1277   1.082   .     S
C1254  H1255   1.084   .     S
H1258  C1016   1.110   1_655 S
H1278  O1307   0.989   .     S
H1295  O1308   0.990   .     S
H1297  C1564   1.111   .     S
H1300  O1306   0.990   .     S
O1301  Zn1320  1.932   .     S
O1301  Zn1317  1.957   .     S
O1301  Zn1318  1.948   .     S
O1301  Zn1319  1.934   .     S
O1302  Zn1318  1.911   .     S
O1303  Zn1320  1.921   .     S
O1304  Zn1319  1.918   .     S
O1305  Zn1317  1.908   .     S
O1309  Zn1317  1.941   .     S
O1310  Zn1320  1.942   .     S
O1311  Zn1318  1.935   .     S
O1312  Zn1319  1.945   .     S
O1313  Zn1320  1.943   .     S
O1314  Zn1317  1.934   .     S
O1315  Zn1318  1.945   .     S
O1316  Zn1319  1.941   .     S
C1321  C1331   1.435   .     S
C1321  O1423   1.269   .     A
C1321  O1421   1.262   .     A
C1322  O1418   1.382   .     S
C1322  C1361   1.423   .     A
C1322  C1323   1.410   .     A
C1323  C1353   1.524   .     S
C1323  C335    1.422   1_556 S
C1324  O1422   1.290   .     A
C1324  C1330   1.473   .     S
C1324  O1424   1.268   .     A
C1325  C1327   1.421   .     A
C1325  C1326   1.412   .     A
C1326  C1329   1.419   .     A
C1326  C1362   1.409   .     A
C1327  C1328   1.410   .     A
C1327  C1342   1.528   .     S
C1328  C1340   1.419   .     A
C1328  O1417   1.385   .     S
C1329  C1340   1.409   .     A
C1329  C1351   1.536   .     S
C1330  C1441   1.363   .     S
C1330  O1526   1.388   .     S
C1331  C1550   1.363   1_455 S
C1331  C1565   1.536   1_455 S
C1332  C1356   1.519   .     S
C1332  C1341   1.398   .     A
C1332  C1339   1.431   .     A
C1333  C1336   1.474   .     S
C1333  C1664   1.371   .     S
C1333  C1677   1.547   .     S
C1334  C1335   1.435   .     S
C1335  O1419   1.267   .     A
C1335  O1425   1.275   .     A
C1336  O1426   1.275   .     A
C1336  O1420   1.270   .     A
C1337  O1412   1.279   .     A
C1337  C1340   1.467   .     S
C1337  O1414   1.283   .     A
C1338  C1339   1.489   .     S
C1338  O1415   1.298   .     A
C1338  O1413   1.281   .     A
C1339  C1343   1.419   .     A
C1341  H1376   1.085   .     S
C1341  C1360   1.392   .     A
C1342  H1408   1.111   .     S
C1342  C1344   1.532   .     S
C1342  H1409   1.106   .     S
C1343  C1354   1.421   .     A
C1343  C1358   1.535   .     S
C1344  H1398   1.109   .     S
C1344  H1406   1.111   .     S
C1345  H1370   1.112   .     S
C1345  H1369   1.112   .     S
C1345  C1441   1.536   .     S
C1345  C1456   1.533   .     S
C1346  H1366   1.110   .     S
C1346  H1367   1.108   .     S
C1346  C1565   1.533   1_455 S
C1346  H1588   1.110   1_455 S
C1347  H1374   1.111   .     S
C1347  H1375   1.112   .     S
C1348  H1371   1.110   .     S
C1348  H1373   1.111   .     S
C1348  H1372   1.110   .     S
C1348  C1677   1.530   .     S
C1349  H1381   1.112   .     S
C1349  H1380   1.111   .     S
C1349  C1664   1.537   .     S
C1349  C1680   1.535   .     S
C1350  H1377   1.111   .     S
C1350  H1378   1.111   .     S
C1350  H1379   1.111   .     S
C1351  H1386   1.103   .     S
C1351  C1352   1.529   .     S
C1351  H1385   1.103   .     S
C1352  H1384   1.111   .     S
C1352  H1383   1.110   .     S
C1352  H1382   1.111   .     S
C1353  H1392   1.108   .     S
C1353  H1393   1.111   .     S
C1353  C1355   1.529   .     S
C1354  C1360   1.415   .     A
C1354  C1361   1.425   .     A
C1355  H1390   1.110   .     S
C1355  H1391   1.111   .     S
C1355  H1389   1.109   .     S
C1356  C1357   1.526   .     S
C1356  H1397   1.112   .     S
C1356  H1399   1.108   .     S
C1357  H1394   1.110   .     S
C1357  H1395   1.107   .     S
C1357  H1396   1.108   .     S
C1358  H1403   1.103   .     S
C1358  C1359   1.531   .     S
C1358  H1404   1.110   .     S
C1359  H1401   1.108   .     S
C1359  H1402   1.111   .     S
C1359  H1400   1.111   .     S
C1360  C374    1.395   1_556 S
C1361  C372    1.411   1_556 S
C1362  C1363   1.406   .     A
C1363  C1364   1.386   .     A
C1363  H1387   1.082   .     S
C1364  H1365   1.084   .     S
H1368  C1456   1.110   .     S
H1388  O1417   0.989   .     S
H1405  O1418   0.990   .     S
H1407  C1674   1.111   .     S
H1410  O1416   0.990   .     S
O1411  Zn1430  1.932   .     S
O1411  Zn1427  1.957   .     S
O1411  Zn1428  1.948   .     S
O1411  Zn1429  1.934   .     S
O1412  Zn1428  1.911   .     S
O1413  Zn1430  1.921   .     S
O1414  Zn1429  1.918   .     S
O1415  Zn1427  1.908   .     S
O1416  C1550   1.388   1_455 S
O1419  Zn1427  1.941   .     S
O1420  Zn1430  1.942   .     S
O1421  Zn1428  1.935   .     S
O1422  Zn1429  1.945   .     S
O1423  Zn1430  1.943   .     S
O1424  Zn1427  1.934   .     S
O1425  Zn1428  1.945   .     S
O1426  Zn1429  1.941   .     S
C1431  C1441   1.435   .     S
C1431  O1533   1.269   .     A
C1431  O1531   1.262   .     A
C1432  O1528   1.382   .     S
C1432  C1471   1.423   .     A
C1432  C1433   1.410   .     A
C1433  C1463   1.524   .     S
C1433  C445    1.422   1_556 S
C1434  O1532   1.290   .     A
C1434  C1440   1.473   .     S
C1434  O1534   1.268   .     A
C1435  C1437   1.421   .     A
C1435  C1436   1.412   .     A
C1436  C1439   1.419   .     A
C1436  C1472   1.409   .     A
C1437  C1438   1.410   .     A
C1437  C1452   1.528   .     S
C1438  C1450   1.419   .     A
C1438  O1527   1.385   .     S
C1439  C1450   1.409   .     A
C1439  C1461   1.536   .     S
C1440  C1551   1.363   .     S
C1440  O1636   1.388   .     S
C1442  C1466   1.519   .     S
C1442  C1451   1.398   .     A
C1442  C1449   1.431   .     A
C1443  C1446   1.474   .     S
C1443  C1774   1.371   .     S
C1443  C1787   1.547   .     S
C1444  C1445   1.435   .     S
C1445  O1529   1.267   .     A
C1445  O1535   1.275   .     A
C1446  O1536   1.275   .     A
C1446  O1530   1.270   .     A
C1447  O1522   1.279   .     A
C1447  C1450   1.467   .     S
C1447  O1524   1.283   .     A
C1448  C1449   1.489   .     S
C1448  O1525   1.298   .     A
C1448  O1523   1.281   .     A
C1449  C1453   1.419   .     A
C1451  H1486   1.085   .     S
C1451  C1470   1.392   .     A
C1452  H1518   1.111   .     S
C1452  C1454   1.532   .     S
C1452  H1519   1.106   .     S
C1453  C1464   1.421   .     A
C1453  C1468   1.535   .     S
C1454  H1508   1.109   .     S
C1454  H1516   1.111   .     S
C1455  H1480   1.112   .     S
C1455  H1479   1.112   .     S
C1455  C1551   1.536   .     S
C1455  C1566   1.533   .     S
C1456  H1476   1.110   .     S
C1456  H1477   1.108   .     S
C1457  H1484   1.111   .     S
C1457  H1485   1.112   .     S
C1458  H1481   1.110   .     S
C1458  H1483   1.111   .     S
C1458  H1482   1.110   .     S
C1458  C1787   1.530   .     S
C1459  H1491   1.112   .     S
C1459  H1490   1.111   .     S
C1459  C1774   1.537   .     S
C1459  C1790   1.535   .     S
C1460  H1487   1.111   .     S
C1460  H1488   1.111   .     S
C1460  H1489   1.111   .     S
C1461  H1496   1.103   .     S
C1461  C1462   1.529   .     S
C1461  H1495   1.103   .     S
C1462  H1494   1.111   .     S
C1462  H1493   1.110   .     S
C1462  H1492   1.111   .     S
C1463  H1502   1.108   .     S
C1463  H1503   1.111   .     S
C1463  C1465   1.529   .     S
C1464  C1470   1.415   .     A
C1464  C1471   1.425   .     A
C1465  H1500   1.110   .     S
C1465  H1501   1.111   .     S
C1465  H1499   1.109   .     S
C1466  C1467   1.526   .     S
C1466  H1507   1.112   .     S
C1466  H1509   1.108   .     S
C1467  H1504   1.110   .     S
C1467  H1505   1.107   .     S
C1467  H1506   1.108   .     S
C1468  H1513   1.103   .     S
C1468  C1469   1.531   .     S
C1468  H1514   1.110   .     S
C1469  H1511   1.108   .     S
C1469  H1512   1.111   .     S
C1469  H1510   1.111   .     S
C1470  C484    1.395   1_556 S
C1471  C482    1.411   1_556 S
C1472  C1473   1.406   .     A
C1473  C1474   1.386   .     A
C1473  H1497   1.082   .     S
C1474  H1475   1.084   .     S
H1478  C1566   1.110   .     S
H1498  O1527   0.989   .     S
H1515  O1528   0.990   .     S
H1517  C1784   1.111   .     S
H1520  O1526   0.990   .     S
O1521  Zn1540  1.932   .     S
O1521  Zn1537  1.957   .     S
O1521  Zn1538  1.948   .     S
O1521  Zn1539  1.934   .     S
O1522  Zn1538  1.911   .     S
O1523  Zn1540  1.921   .     S
O1524  Zn1539  1.918   .     S
O1525  Zn1537  1.908   .     S
O1529  Zn1537  1.941   .     S
O1530  Zn1540  1.942   .     S
O1531  Zn1538  1.935   .     S
O1532  Zn1539  1.945   .     S
O1533  Zn1540  1.943   .     S
O1534  Zn1537  1.934   .     S
O1535  Zn1538  1.945   .     S
O1536  Zn1539  1.941   .     S
C1541  C1551   1.435   .     S
C1541  O1643   1.269   .     A
C1541  O1641   1.262   .     A
C1542  O1638   1.382   .     S
C1542  C1581   1.423   .     A
C1542  C1543   1.410   .     A
C1543  C1573   1.524   .     S
C1543  C555    1.422   1_556 S
C1544  O1642   1.290   .     A
C1544  C1550   1.473   .     S
C1544  O1644   1.268   .     A
C1545  C1547   1.421   .     A
C1545  C1546   1.412   .     A
C1546  C1549   1.419   .     A
C1546  C1582   1.409   .     A
C1547  C1548   1.410   .     A
C1547  C1562   1.528   .     S
C1548  C1560   1.419   .     A
C1548  O1637   1.385   .     S
C1549  C1560   1.409   .     A
C1549  C1571   1.536   .     S
C1550  C1331   1.363   1_655 S
C1550  O1416   1.388   1_655 S
C1552  C1576   1.519   .     S
C1552  C1561   1.398   .     A
C1552  C1559   1.431   .     A
C1553  C1556   1.474   .     S
C1553  C1884   1.371   .     S
C1553  C1897   1.547   .     S
C1554  C1555   1.435   .     S
C1555  O1639   1.267   .     A
C1555  O1645   1.275   .     A
C1556  O1646   1.275   .     A
C1556  O1640   1.270   .     A
C1557  O1632   1.279   .     A
C1557  C1560   1.467   .     S
C1557  O1634   1.283   .     A
C1558  C1559   1.489   .     S
C1558  O1635   1.298   .     A
C1558  O1633   1.281   .     A
C1559  C1563   1.419   .     A
C1561  H1596   1.085   .     S
C1561  C1580   1.392   .     A
C1562  H1628   1.111   .     S
C1562  C1564   1.532   .     S
C1562  H1629   1.106   .     S
C1563  C1574   1.421   .     A
C1563  C1578   1.535   .     S
C1564  H1618   1.109   .     S
C1564  H1626   1.111   .     S
C1565  H1590   1.112   .     S
C1565  H1589   1.112   .     S
C1565  C1331   1.536   1_655 S
C1565  C1346   1.533   1_655 S
C1566  H1586   1.110   .     S
C1566  H1587   1.108   .     S
C1567  H1594   1.111   .     S
C1567  H1595   1.112   .     S
C1568  H1591   1.110   .     S
C1568  H1593   1.111   .     S
C1568  H1592   1.110   .     S
C1568  C1897   1.530   .     S
C1569  H1601   1.112   .     S
C1569  H1600   1.111   .     S
C1569  C1884   1.537   .     S
C1569  C1900   1.535   .     S
C1570  H1597   1.111   .     S
C1570  H1598   1.111   .     S
C1570  H1599   1.111   .     S
C1571  H1606   1.103   .     S
C1571  C1572   1.529   .     S
C1571  H1605   1.103   .     S
C1572  H1604   1.111   .     S
C1572  H1603   1.110   .     S
C1572  H1602   1.111   .     S
C1573  H1612   1.108   .     S
C1573  H1613   1.111   .     S
C1573  C1575   1.529   .     S
C1574  C1580   1.415   .     A
C1574  C1581   1.425   .     A
C1575  H1610   1.110   .     S
C1575  H1611   1.111   .     S
C1575  H1609   1.109   .     S
C1576  C1577   1.526   .     S
C1576  H1617   1.112   .     S
C1576  H1619   1.108   .     S
C1577  H1614   1.110   .     S
C1577  H1615   1.107   .     S
C1577  H1616   1.108   .     S
C1578  H1623   1.103   .     S
C1578  C1579   1.531   .     S
C1578  H1624   1.110   .     S
C1579  H1621   1.108   .     S
C1579  H1622   1.111   .     S
C1579  H1620   1.111   .     S
C1580  C594    1.395   1_556 S
C1581  C592    1.411   1_556 S
C1582  C1583   1.406   .     A
C1583  C1584   1.386   .     A
C1583  H1607   1.082   .     S
C1584  H1585   1.084   .     S
H1588  C1346   1.110   1_655 S
H1608  O1637   0.989   .     S
H1625  O1638   0.990   .     S
H1627  C1894   1.111   .     S
H1630  O1636   0.990   .     S
O1631  Zn1650  1.932   .     S
O1631  Zn1647  1.957   .     S
O1631  Zn1648  1.948   .     S
O1631  Zn1649  1.934   .     S
O1632  Zn1648  1.911   .     S
O1633  Zn1650  1.921   .     S
O1634  Zn1649  1.918   .     S
O1635  Zn1647  1.908   .     S
O1639  Zn1647  1.941   .     S
O1640  Zn1650  1.942   .     S
O1641  Zn1648  1.935   .     S
O1642  Zn1649  1.945   .     S
O1643  Zn1650  1.943   .     S
O1644  Zn1647  1.934   .     S
O1645  Zn1648  1.945   .     S
O1646  Zn1649  1.941   .     S
C1651  C1661   1.435   .     S
C1651  O1753   1.269   .     A
C1651  O1751   1.262   .     A
C1652  O1748   1.382   .     S
C1652  C1691   1.423   .     A
C1652  C1653   1.410   .     A
C1653  C1683   1.524   .     S
C1653  C665    1.422   1_556 S
C1654  O1752   1.290   .     A
C1654  C1660   1.473   .     S
C1654  O1754   1.268   .     A
C1655  C1657   1.421   .     A
C1655  C1656   1.412   .     A
C1656  C1659   1.419   .     A
C1656  C1692   1.409   .     A
C1657  C1658   1.410   .     A
C1657  C1672   1.528   .     S
C1658  C1670   1.419   .     A
C1658  O1747   1.385   .     S
C1659  C1670   1.409   .     A
C1659  C1681   1.536   .     S
C1660  C1771   1.363   .     S
C1660  O1856   1.388   .     S
C1661  C1880   1.363   1_455 S
C1661  C1895   1.536   1_455 S
C1662  C1686   1.519   .     S
C1662  C1671   1.398   .     A
C1662  C1669   1.431   .     A
C1663  C1666   1.474   .     S
C1663  C1004   1.371   1_565 S
C1663  C1017   1.547   1_565 S
C1664  C1665   1.435   .     S
C1665  O1749   1.267   .     A
C1665  O1755   1.275   .     A
C1666  O1756   1.275   .     A
C1666  O1750   1.270   .     A
C1667  O1742   1.279   .     A
C1667  C1670   1.467   .     S
C1667  O1744   1.283   .     A
C1668  C1669   1.489   .     S
C1668  O1745   1.298   .     A
C1668  O1743   1.281   .     A
C1669  C1673   1.419   .     A
C1671  H1706   1.085   .     S
C1671  C1690   1.392   .     A
C1672  H1738   1.111   .     S
C1672  C1674   1.532   .     S
C1672  H1739   1.106   .     S
C1673  C1684   1.421   .     A
C1673  C1688   1.535   .     S
C1674  H1728   1.109   .     S
C1674  H1736   1.111   .     S
C1675  H1700   1.112   .     S
C1675  H1699   1.112   .     S
C1675  C1771   1.536   .     S
C1675  C1786   1.533   .     S
C1676  H1696   1.110   .     S
C1676  H1697   1.108   .     S
C1676  C1895   1.533   1_455 S
C1676  H1918   1.110   1_455 S
C1677  H1704   1.111   .     S
C1677  H1705   1.112   .     S
C1678  H1701   1.110   .     S
C1678  H1703   1.111   .     S
C1678  H1702   1.110   .     S
C1678  C1017   1.530   1_565 S
C1679  H1711   1.112   .     S
C1679  H1710   1.111   .     S
C1679  C1004   1.537   1_565 S
C1679  C1020   1.535   1_565 S
C1680  H1707   1.111   .     S
C1680  H1708   1.111   .     S
C1680  H1709   1.111   .     S
C1681  H1716   1.103   .     S
C1681  C1682   1.529   .     S
C1681  H1715   1.103   .     S
C1682  H1714   1.111   .     S
C1682  H1713   1.110   .     S
C1682  H1712   1.111   .     S
C1683  H1722   1.108   .     S
C1683  H1723   1.111   .     S
C1683  C1685   1.529   .     S
C1684  C1690   1.415   .     A
C1684  C1691   1.425   .     A
C1685  H1720   1.110   .     S
C1685  H1721   1.111   .     S
C1685  H1719   1.109   .     S
C1686  C1687   1.526   .     S
C1686  H1727   1.112   .     S
C1686  H1729   1.108   .     S
C1687  H1724   1.110   .     S
C1687  H1725   1.107   .     S
C1687  H1726   1.108   .     S
C1688  H1733   1.103   .     S
C1688  C1689   1.531   .     S
C1688  H1734   1.110   .     S
C1689  H1731   1.108   .     S
C1689  H1732   1.111   .     S
C1689  H1730   1.111   .     S
C1690  C704    1.395   1_556 S
C1691  C702    1.411   1_556 S
C1692  C1693   1.406   .     A
C1693  C1694   1.386   .     A
C1693  H1717   1.082   .     S
C1694  H1695   1.084   .     S
H1698  C1786   1.110   .     S
H1718  O1747   0.989   .     S
H1735  O1748   0.990   .     S
H1737  C1014   1.111   1_565 S
H1740  O1746   0.990   .     S
O1741  Zn1760  1.932   .     S
O1741  Zn1757  1.957   .     S
O1741  Zn1758  1.948   .     S
O1741  Zn1759  1.934   .     S
O1742  Zn1758  1.911   .     S
O1743  Zn1760  1.921   .     S
O1744  Zn1759  1.918   .     S
O1745  Zn1757  1.908   .     S
O1746  C1880   1.388   1_455 S
O1749  Zn1757  1.941   .     S
O1750  Zn1760  1.942   .     S
O1751  Zn1758  1.935   .     S
O1752  Zn1759  1.945   .     S
O1753  Zn1760  1.943   .     S
O1754  Zn1757  1.934   .     S
O1755  Zn1758  1.945   .     S
O1756  Zn1759  1.941   .     S
C1761  C1771   1.435   .     S
C1761  O1863   1.269   .     A
C1761  O1861   1.262   .     A
C1762  O1858   1.382   .     S
C1762  C1801   1.423   .     A
C1762  C1763   1.410   .     A
C1763  C1793   1.524   .     S
C1763  C775    1.422   1_556 S
C1764  O1862   1.290   .     A
C1764  C1770   1.473   .     S
C1764  O1864   1.268   .     A
C1765  C1767   1.421   .     A
C1765  C1766   1.412   .     A
C1766  C1769   1.419   .     A
C1766  C1802   1.409   .     A
C1767  C1768   1.410   .     A
C1767  C1782   1.528   .     S
C1768  C1780   1.419   .     A
C1768  O1857   1.385   .     S
C1769  C1780   1.409   .     A
C1769  C1791   1.536   .     S
C1770  C1881   1.363   .     S
C1770  O1966   1.388   .     S
C1772  C1796   1.519   .     S
C1772  C1781   1.398   .     A
C1772  C1779   1.431   .     A
C1773  C1776   1.474   .     S
C1773  C1114   1.371   1_565 S
C1773  C1127   1.547   1_565 S
C1774  C1775   1.435   .     S
C1775  O1859   1.267   .     A
C1775  O1865   1.275   .     A
C1776  O1866   1.275   .     A
C1776  O1860   1.270   .     A
C1777  O1852   1.279   .     A
C1777  C1780   1.467   .     S
C1777  O1854   1.283   .     A
C1778  C1779   1.489   .     S
C1778  O1855   1.298   .     A
C1778  O1853   1.281   .     A
C1779  C1783   1.419   .     A
C1781  H1816   1.085   .     S
C1781  C1800   1.392   .     A
C1782  H1848   1.111   .     S
C1782  C1784   1.532   .     S
C1782  H1849   1.106   .     S
C1783  C1794   1.421   .     A
C1783  C1798   1.535   .     S
C1784  H1838   1.109   .     S
C1784  H1846   1.111   .     S
C1785  H1810   1.112   .     S
C1785  H1809   1.112   .     S
C1785  C1881   1.536   .     S
C1785  C1896   1.533   .     S
C1786  H1806   1.110   .     S
C1786  H1807   1.108   .     S
C1787  H1814   1.111   .     S
C1787  H1815   1.112   .     S
C1788  H1811   1.110   .     S
C1788  H1813   1.111   .     S
C1788  H1812   1.110   .     S
C1788  C1127   1.530   1_565 S
C1789  H1821   1.112   .     S
C1789  H1820   1.111   .     S
C1789  C1114   1.537   1_565 S
C1789  C1130   1.535   1_565 S
C1790  H1817   1.111   .     S
C1790  H1818   1.111   .     S
C1790  H1819   1.111   .     S
C1791  H1826   1.103   .     S
C1791  C1792   1.529   .     S
C1791  H1825   1.103   .     S
C1792  H1824   1.111   .     S
C1792  H1823   1.110   .     S
C1792  H1822   1.111   .     S
C1793  H1832   1.108   .     S
C1793  H1833   1.111   .     S
C1793  C1795   1.529   .     S
C1794  C1800   1.415   .     A
C1794  C1801   1.425   .     A
C1795  H1830   1.110   .     S
C1795  H1831   1.111   .     S
C1795  H1829   1.109   .     S
C1796  C1797   1.526   .     S
C1796  H1837   1.112   .     S
C1796  H1839   1.108   .     S
C1797  H1834   1.110   .     S
C1797  H1835   1.107   .     S
C1797  H1836   1.108   .     S
C1798  H1843   1.103   .     S
C1798  C1799   1.531   .     S
C1798  H1844   1.110   .     S
C1799  H1841   1.108   .     S
C1799  H1842   1.111   .     S
C1799  H1840   1.111   .     S
C1800  C814    1.395   1_556 S
C1801  C812    1.411   1_556 S
C1802  C1803   1.406   .     A
C1803  C1804   1.386   .     A
C1803  H1827   1.082   .     S
C1804  H1805   1.084   .     S
H1808  C1896   1.110   .     S
H1828  O1857   0.989   .     S
H1845  O1858   0.990   .     S
H1847  C1124   1.111   1_565 S
H1850  O1856   0.990   .     S
O1851  Zn1870  1.932   .     S
O1851  Zn1867  1.957   .     S
O1851  Zn1868  1.948   .     S
O1851  Zn1869  1.934   .     S
O1852  Zn1868  1.911   .     S
O1853  Zn1870  1.921   .     S
O1854  Zn1869  1.918   .     S
O1855  Zn1867  1.908   .     S
O1859  Zn1867  1.941   .     S
O1860  Zn1870  1.942   .     S
O1861  Zn1868  1.935   .     S
O1862  Zn1869  1.945   .     S
O1863  Zn1870  1.943   .     S
O1864  Zn1867  1.934   .     S
O1865  Zn1868  1.945   .     S
O1866  Zn1869  1.941   .     S
C1871  C1881   1.435   .     S
C1871  O1973   1.269   .     A
C1871  O1971   1.262   .     A
C1872  O1968   1.382   .     S
C1872  C1911   1.423   .     A
C1872  C1873   1.410   .     A
C1873  C1903   1.524   .     S
C1873  C885    1.422   1_556 S
C1874  O1972   1.290   .     A
C1874  C1880   1.473   .     S
C1874  O1974   1.268   .     A
C1875  C1877   1.421   .     A
C1875  C1876   1.412   .     A
C1876  C1879   1.419   .     A
C1876  C1912   1.409   .     A
C1877  C1878   1.410   .     A
C1877  C1892   1.528   .     S
C1878  C1890   1.419   .     A
C1878  O1967   1.385   .     S
C1879  C1890   1.409   .     A
C1879  C1901   1.536   .     S
C1880  C1661   1.363   1_655 S
C1880  O1746   1.388   1_655 S
C1882  C1906   1.519   .     S
C1882  C1891   1.398   .     A
C1882  C1889   1.431   .     A
C1883  C1886   1.474   .     S
C1883  C1224   1.371   1_565 S
C1883  C1237   1.547   1_565 S
C1884  C1885   1.435   .     S
C1885  O1969   1.267   .     A
C1885  O1975   1.275   .     A
C1886  O1976   1.275   .     A
C1886  O1970   1.270   .     A
C1887  O1962   1.279   .     A
C1887  C1890   1.467   .     S
C1887  O1964   1.283   .     A
C1888  C1889   1.489   .     S
C1888  O1965   1.298   .     A
C1888  O1963   1.281   .     A
C1889  C1893   1.419   .     A
C1891  H1926   1.085   .     S
C1891  C1910   1.392   .     A
C1892  H1958   1.111   .     S
C1892  C1894   1.532   .     S
C1892  H1959   1.106   .     S
C1893  C1904   1.421   .     A
C1893  C1908   1.535   .     S
C1894  H1948   1.109   .     S
C1894  H1956   1.111   .     S
C1895  H1920   1.112   .     S
C1895  H1919   1.112   .     S
C1895  C1661   1.536   1_655 S
C1895  C1676   1.533   1_655 S
C1896  H1916   1.110   .     S
C1896  H1917   1.108   .     S
C1897  H1924   1.111   .     S
C1897  H1925   1.112   .     S
C1898  H1921   1.110   .     S
C1898  H1923   1.111   .     S
C1898  H1922   1.110   .     S
C1898  C1237   1.530   1_565 S
C1899  H1931   1.112   .     S
C1899  H1930   1.111   .     S
C1899  C1224   1.537   1_565 S
C1899  C1240   1.535   1_565 S
C1900  H1927   1.111   .     S
C1900  H1928   1.111   .     S
C1900  H1929   1.111   .     S
C1901  H1936   1.103   .     S
C1901  C1902   1.529   .     S
C1901  H1935   1.103   .     S
C1902  H1934   1.111   .     S
C1902  H1933   1.110   .     S
C1902  H1932   1.111   .     S
C1903  H1942   1.108   .     S
C1903  H1943   1.111   .     S
C1903  C1905   1.529   .     S
C1904  C1910   1.415   .     A
C1904  C1911   1.425   .     A
C1905  H1940   1.110   .     S
C1905  H1941   1.111   .     S
C1905  H1939   1.109   .     S
C1906  C1907   1.526   .     S
C1906  H1947   1.112   .     S
C1906  H1949   1.108   .     S
C1907  H1944   1.110   .     S
C1907  H1945   1.107   .     S
C1907  H1946   1.108   .     S
C1908  H1953   1.103   .     S
C1908  C1909   1.531   .     S
C1908  H1954   1.110   .     S
C1909  H1951   1.108   .     S
C1909  H1952   1.111   .     S
C1909  H1950   1.111   .     S
C1910  C924    1.395   1_556 S
C1911  C922    1.411   1_556 S
C1912  C1913   1.406   .     A
C1913  C1914   1.386   .     A
C1913  H1937   1.082   .     S
C1914  H1915   1.084   .     S
H1918  C1676   1.110   1_655 S
H1938  O1967   0.989   .     S
H1955  O1968   0.990   .     S
H1957  C1234   1.111   1_565 S
H1960  O1966   0.990   .     S
O1961  Zn1980  1.932   .     S
O1961  Zn1977  1.957   .     S
O1961  Zn1978  1.948   .     S
O1961  Zn1979  1.934   .     S
O1962  Zn1978  1.911   .     S
O1963  Zn1980  1.921   .     S
O1964  Zn1979  1.918   .     S
O1965  Zn1977  1.908   .     S
O1969  Zn1977  1.941   .     S
O1970  Zn1980  1.942   .     S
O1971  Zn1978  1.935   .     S
O1972  Zn1979  1.945   .     S
O1973  Zn1980  1.943   .     S
O1974  Zn1977  1.934   .     S
O1975  Zn1978  1.945   .     S
O1976  Zn1979  1.941   .     S
