data_str_m1_o10_o16_pcu_sym.220
_audit_creation_date              2020-01-03
_audit_creation_method            'Materials Studio'
_symmetry_space_group_name_H-M    'P1'
_symmetry_Int_Tables_number       1
_symmetry_cell_setting            triclinic
loop_
_symmetry_equiv_pos_as_xyz
  x,y,z
_cell_length_a                    32.7588
_cell_length_b                    32.4351
_cell_length_c                    31.1449
_cell_angle_alpha                 96.6641
_cell_angle_beta                  75.1094
_cell_angle_gamma                 98.9024
loop_
_atom_site_label
_atom_site_type_symbol
_atom_site_fract_x
_atom_site_fract_y
_atom_site_fract_z
_atom_site_U_iso_or_equiv
_atom_site_adp_type
_atom_site_occupancy
C1     C     0.05307   0.15929   0.25980   0.00000  Uiso   1.00
C2     C     0.17445   0.16870   0.05935   0.00000  Uiso   1.00
C3     C     0.20061   0.10165   0.06052   0.00000  Uiso   1.00
C4     C     0.28065   0.17411   0.24056   0.00000  Uiso   1.00
C5     C     0.15092   0.20027   0.41687   0.00000  Uiso   1.00
C6     C     0.32612   0.17964   0.23988   0.00000  Uiso   1.00
C7     C     0.00820   0.15479   0.26286   0.00000  Uiso   1.00
C8     C     0.18056   0.32255   0.23667   0.00000  Uiso   1.00
C9     C     0.15173   0.01154   0.26329   0.00000  Uiso   1.00
C10    C     0.15610   0.05582   0.26003   0.00000  Uiso   1.00
C11    C     0.17657   0.27783   0.24015   0.00000  Uiso   1.00
C12    C     0.17356   0.25836   0.46592   0.00000  Uiso   1.00
C13    C     0.18504   0.14790   0.12957   0.00000  Uiso   1.00
C14    C     0.14949   0.18545   0.37058   0.00000  Uiso   1.00
C15    C     0.19255   0.08889   0.01896   0.00000  Uiso   1.00
C16    C     0.18950   0.14073   0.08176   0.00000  Uiso   1.00
C17    C     0.15677   0.24406   0.42916   0.00000  Uiso   1.00
C18    C     0.21752   0.07111   0.08254   0.00000  Uiso   1.00
C19    C     0.31617   0.11759   0.28731   0.00000  Uiso   1.00
C20    C     0.14908   0.20342   0.08650   0.00000  Uiso   1.00
C21    C     0.10231   0.19637   0.08347   0.00000  Uiso   1.00
C22    C     0.08107   0.23583   0.10010   0.00000  Uiso   1.00
C23    C     0.18278   0.23032   0.49133   0.00000  Uiso   1.00
C24    C     0.14984   0.27639   0.40143   0.00000  Uiso   1.00
C25    C     0.02123   0.21536   0.21467   0.00000  Uiso   1.00
C26    C     0.02060   0.25632   0.24479   0.00000  Uiso   1.00
C27    C     0.05123   0.29190   0.22144   0.00000  Uiso   1.00
C28    C     0.17062   0.18711   0.48449   0.00000  Uiso   1.00
C29    C     0.15674   0.17173   0.44542   0.00000  Uiso   1.00
C30    C     0.17573   0.15841   0.01329   0.00000  Uiso   1.00
C31    C     0.17849   0.11623   0.49623   0.00000  Uiso   1.00
C32    C     0.16522   0.10123   0.45759   0.00000  Uiso   1.00
C33    C     0.15117   0.12808   0.43461   0.00000  Uiso   1.00
H34    H     0.20720   0.00412   0.21236   0.00000  Uiso   1.00
H35    H     0.24672   0.06072   0.05954   0.00000  Uiso   1.00
H36    H     0.00377   0.09962   0.29881   0.00000  Uiso   1.00
H37    H     0.29283   0.12832   0.31763   0.00000  Uiso   1.00
H38    H     0.29997   0.09560   0.26492   0.00000  Uiso   1.00
H39    H     0.08490   0.24701   0.13402   0.00000  Uiso   1.00
H40    H     0.09568   0.26094   0.07733   0.00000  Uiso   1.00
H41    H     0.04658   0.22902   0.10106   0.00000  Uiso   1.00
H42    H     0.09951   0.18752   0.04877   0.00000  Uiso   1.00
H43    H     0.08480   0.17039   0.10403   0.00000  Uiso   1.00
H44    H     0.14804   0.20540   0.12247   0.00000  Uiso   1.00
H45    H     0.12451   0.33071   0.28744   0.00000  Uiso   1.00
H46    H     0.16423   0.23499   0.07758   0.00000  Uiso   1.00
H47    H     0.15605   0.30877   0.41656   0.00000  Uiso   1.00
H48    H     0.17172   0.27432   0.36771   0.00000  Uiso   1.00
H49    H     0.11625   0.27145   0.39879   0.00000  Uiso   1.00
H50    H     0.08439   0.28411   0.21240   0.00000  Uiso   1.00
H51    H     0.04215   0.29771   0.19089   0.00000  Uiso   1.00
H52    H     0.04995   0.32097   0.24415   0.00000  Uiso   1.00
H53    H     0.32117   0.26524   0.25437   0.00000  Uiso   1.00
H54    H     0.02985   0.25199   0.27573   0.00000  Uiso   1.00
H55    H     0.05446   0.20818   0.20160   0.00000  Uiso   1.00
H56    H     0.16406   0.06830   0.44610   0.00000  Uiso   1.00
H57    H     0.01008   0.21954   0.18484   0.00000  Uiso   1.00
H58    H     0.19695   0.05732   0.00447   0.00000  Uiso   1.00
H59    H     0.20201   0.24272   0.01439   0.00000  Uiso   1.00
H60    H     0.18199   0.29155   0.47356   0.00000  Uiso   1.00
H61    H     0.13774   0.11431   0.40715   0.00000  Uiso   1.00
H62    H     0.22622   0.08489   0.11377   0.00000  Uiso   1.00
H63    H     0.19320   0.04333   0.09021   0.00000  Uiso   1.00
O64    O     0.16667   0.16667   0.25000   0.00000  Uiso   1.00
O65    O     0.15451   0.12637   0.15459   0.00000  Uiso   1.00
O66    O     0.12940   0.20391   0.34968   0.00000  Uiso   1.00
O67    O     0.20824   0.17759   0.14606   0.00000  Uiso   1.00
O68    O     0.17451   0.15880   0.34968   0.00000  Uiso   1.00
O69    O     0.17930   0.08019   0.28214   0.00000  Uiso   1.00
O70    O     0.14632   0.26085   0.27014   0.00000  Uiso   1.00
O71    O     0.07412   0.13291   0.23413   0.00000  Uiso   1.00
O72    O     0.26693   0.19272   0.21361   0.00000  Uiso   1.00
O73    O     0.07071   0.18878   0.28213   0.00000  Uiso   1.00
O74    O     0.25491   0.15226   0.27014   0.00000  Uiso   1.00
O75    O     0.13760   0.06944   0.23413   0.00000  Uiso   1.00
O76    O     0.20345   0.25620   0.21361   0.00000  Uiso   1.00
Zn77   Zn    0.19338   0.13994   0.28734   0.00000  Uiso   1.00
Zn78   Zn    0.13379   0.12458   0.21876   0.00000  Uiso   1.00
Zn79   Zn    0.21056   0.19775   0.20657   0.00000  Uiso   1.00
Zn80   Zn    0.12893   0.20439   0.28734   0.00000  Uiso   1.00
C81    C     0.38640   0.15929   0.25980   0.00000  Uiso   1.00
C82    C     0.50778   0.16870   0.05935   0.00000  Uiso   1.00
C83    C     0.53394   0.10165   0.06052   0.00000  Uiso   1.00
C84    C     0.61399   0.17411   0.24056   0.00000  Uiso   1.00
C85    C     0.48425   0.20027   0.41687   0.00000  Uiso   1.00
C86    C     0.65945   0.17964   0.23988   0.00000  Uiso   1.00
C87    C     0.34154   0.15479   0.26286   0.00000  Uiso   1.00
C88    C     0.51389   0.32255   0.23667   0.00000  Uiso   1.00
C89    C     0.48506   0.01154   0.26329   0.00000  Uiso   1.00
C90    C     0.48944   0.05582   0.26003   0.00000  Uiso   1.00
C91    C     0.50991   0.27783   0.24015   0.00000  Uiso   1.00
C92    C     0.50690   0.25836   0.46592   0.00000  Uiso   1.00
C93    C     0.51838   0.14790   0.12957   0.00000  Uiso   1.00
C94    C     0.48283   0.18545   0.37058   0.00000  Uiso   1.00
C95    C     0.52588   0.08889   0.01896   0.00000  Uiso   1.00
C96    C     0.52284   0.14073   0.08176   0.00000  Uiso   1.00
C97    C     0.49010   0.24406   0.42916   0.00000  Uiso   1.00
C98    C     0.55085   0.07111   0.08254   0.00000  Uiso   1.00
C99    C     0.64950   0.11759   0.28731   0.00000  Uiso   1.00
C100   C     0.48241   0.20342   0.08650   0.00000  Uiso   1.00
C101   C     0.43565   0.19637   0.08347   0.00000  Uiso   1.00
C102   C     0.41440   0.23583   0.10010   0.00000  Uiso   1.00
C103   C     0.51611   0.23032   0.49133   0.00000  Uiso   1.00
C104   C     0.48317   0.27639   0.40143   0.00000  Uiso   1.00
C105   C     0.35457   0.21536   0.21467   0.00000  Uiso   1.00
C106   C     0.35394   0.25632   0.24479   0.00000  Uiso   1.00
C107   C     0.38456   0.29190   0.22144   0.00000  Uiso   1.00
C108   C     0.50395   0.18711   0.48449   0.00000  Uiso   1.00
C109   C     0.49008   0.17173   0.44542   0.00000  Uiso   1.00
C110   C     0.50906   0.15841   0.01329   0.00000  Uiso   1.00
C111   C     0.51182   0.11623   0.49623   0.00000  Uiso   1.00
C112   C     0.49855   0.10123   0.45759   0.00000  Uiso   1.00
C113   C     0.48451   0.12808   0.43461   0.00000  Uiso   1.00
H114   H     0.54053   0.00412   0.21236   0.00000  Uiso   1.00
H115   H     0.58005   0.06072   0.05954   0.00000  Uiso   1.00
H116   H     0.33710   0.09962   0.29881   0.00000  Uiso   1.00
H117   H     0.62617   0.12832   0.31763   0.00000  Uiso   1.00
H118   H     0.63331   0.09560   0.26492   0.00000  Uiso   1.00
H119   H     0.41823   0.24701   0.13402   0.00000  Uiso   1.00
H120   H     0.42902   0.26094   0.07733   0.00000  Uiso   1.00
H121   H     0.37992   0.22902   0.10106   0.00000  Uiso   1.00
H122   H     0.43284   0.18752   0.04877   0.00000  Uiso   1.00
H123   H     0.41813   0.17039   0.10403   0.00000  Uiso   1.00
H124   H     0.48138   0.20540   0.12247   0.00000  Uiso   1.00
H125   H     0.45785   0.33071   0.28744   0.00000  Uiso   1.00
H126   H     0.49757   0.23499   0.07758   0.00000  Uiso   1.00
H127   H     0.48939   0.30877   0.41656   0.00000  Uiso   1.00
H128   H     0.50505   0.27432   0.36771   0.00000  Uiso   1.00
H129   H     0.44958   0.27145   0.39879   0.00000  Uiso   1.00
H130   H     0.41772   0.28411   0.21240   0.00000  Uiso   1.00
H131   H     0.37548   0.29771   0.19089   0.00000  Uiso   1.00
H132   H     0.38329   0.32097   0.24415   0.00000  Uiso   1.00
H133   H     0.65451   0.26524   0.25437   0.00000  Uiso   1.00
H134   H     0.36318   0.25199   0.27573   0.00000  Uiso   1.00
H135   H     0.38780   0.20818   0.20160   0.00000  Uiso   1.00
H136   H     0.49739   0.06830   0.44610   0.00000  Uiso   1.00
H137   H     0.34341   0.21954   0.18484   0.00000  Uiso   1.00
H138   H     0.53029   0.05732   0.00447   0.00000  Uiso   1.00
H139   H     0.53534   0.24272   0.01439   0.00000  Uiso   1.00
H140   H     0.51532   0.29155   0.47356   0.00000  Uiso   1.00
H141   H     0.47107   0.11431   0.40715   0.00000  Uiso   1.00
H142   H     0.55956   0.08489   0.11377   0.00000  Uiso   1.00
H143   H     0.52653   0.04333   0.09021   0.00000  Uiso   1.00
O144   O     0.50000   0.16667   0.25000   0.00000  Uiso   1.00
O145   O     0.48784   0.12637   0.15459   0.00000  Uiso   1.00
O146   O     0.46274   0.20391   0.34968   0.00000  Uiso   1.00
O147   O     0.54157   0.17759   0.14606   0.00000  Uiso   1.00
O148   O     0.50785   0.15880   0.34968   0.00000  Uiso   1.00
O149   O     0.51264   0.08019   0.28214   0.00000  Uiso   1.00
O150   O     0.47965   0.26085   0.27014   0.00000  Uiso   1.00
O151   O     0.40745   0.13291   0.23413   0.00000  Uiso   1.00
O152   O     0.60026   0.19272   0.21361   0.00000  Uiso   1.00
O153   O     0.40405   0.18878   0.28213   0.00000  Uiso   1.00
O154   O     0.58824   0.15226   0.27014   0.00000  Uiso   1.00
O155   O     0.47093   0.06944   0.23413   0.00000  Uiso   1.00
O156   O     0.53678   0.25620   0.21361   0.00000  Uiso   1.00
Zn157  Zn    0.52672   0.13994   0.28734   0.00000  Uiso   1.00
Zn158  Zn    0.46713   0.12458   0.21876   0.00000  Uiso   1.00
Zn159  Zn    0.54389   0.19775   0.20657   0.00000  Uiso   1.00
Zn160  Zn    0.46226   0.20439   0.28734   0.00000  Uiso   1.00
C161   C     0.71974   0.15929   0.25980   0.00000  Uiso   1.00
C162   C     0.84112   0.16870   0.05935   0.00000  Uiso   1.00
C163   C     0.86728   0.10165   0.06052   0.00000  Uiso   1.00
C164   C     0.94732   0.17411   0.24056   0.00000  Uiso   1.00
C165   C     0.81759   0.20027   0.41687   0.00000  Uiso   1.00
C166   C     0.99278   0.17964   0.23988   0.00000  Uiso   1.00
C167   C     0.67487   0.15479   0.26286   0.00000  Uiso   1.00
C168   C     0.84722   0.32255   0.23667   0.00000  Uiso   1.00
C169   C     0.81840   0.01154   0.26329   0.00000  Uiso   1.00
C170   C     0.82277   0.05582   0.26003   0.00000  Uiso   1.00
C171   C     0.84324   0.27783   0.24015   0.00000  Uiso   1.00
C172   C     0.84023   0.25836   0.46592   0.00000  Uiso   1.00
C173   C     0.85171   0.14790   0.12957   0.00000  Uiso   1.00
C174   C     0.81616   0.18545   0.37058   0.00000  Uiso   1.00
C175   C     0.85922   0.08889   0.01896   0.00000  Uiso   1.00
C176   C     0.85617   0.14073   0.08176   0.00000  Uiso   1.00
C177   C     0.82343   0.24406   0.42916   0.00000  Uiso   1.00
C178   C     0.88418   0.07111   0.08254   0.00000  Uiso   1.00
C179   C     0.98284   0.11759   0.28731   0.00000  Uiso   1.00
C180   C     0.81574   0.20342   0.08650   0.00000  Uiso   1.00
C181   C     0.76898   0.19637   0.08347   0.00000  Uiso   1.00
C182   C     0.74773   0.23583   0.10010   0.00000  Uiso   1.00
C183   C     0.84944   0.23032   0.49133   0.00000  Uiso   1.00
C184   C     0.81651   0.27639   0.40143   0.00000  Uiso   1.00
C185   C     0.68790   0.21536   0.21467   0.00000  Uiso   1.00
C186   C     0.68727   0.25632   0.24479   0.00000  Uiso   1.00
C187   C     0.71789   0.29190   0.22144   0.00000  Uiso   1.00
C188   C     0.83728   0.18711   0.48449   0.00000  Uiso   1.00
C189   C     0.82341   0.17173   0.44542   0.00000  Uiso   1.00
C190   C     0.84240   0.15841   0.01329   0.00000  Uiso   1.00
C191   C     0.84516   0.11623   0.49623   0.00000  Uiso   1.00
C192   C     0.83188   0.10123   0.45759   0.00000  Uiso   1.00
C193   C     0.81784   0.12808   0.43461   0.00000  Uiso   1.00
H194   H     0.87387   0.00412   0.21236   0.00000  Uiso   1.00
H195   H     0.91339   0.06072   0.05954   0.00000  Uiso   1.00
H196   H     0.67044   0.09962   0.29881   0.00000  Uiso   1.00
H197   H     0.95950   0.12832   0.31763   0.00000  Uiso   1.00
H198   H     0.96664   0.09560   0.26492   0.00000  Uiso   1.00
H199   H     0.75156   0.24701   0.13402   0.00000  Uiso   1.00
H200   H     0.76235   0.26094   0.07733   0.00000  Uiso   1.00
H201   H     0.71325   0.22902   0.10106   0.00000  Uiso   1.00
H202   H     0.76617   0.18752   0.04877   0.00000  Uiso   1.00
H203   H     0.75147   0.17039   0.10403   0.00000  Uiso   1.00
H204   H     0.81471   0.20540   0.12247   0.00000  Uiso   1.00
H205   H     0.79118   0.33071   0.28744   0.00000  Uiso   1.00
H206   H     0.83090   0.23499   0.07758   0.00000  Uiso   1.00
H207   H     0.82272   0.30877   0.41656   0.00000  Uiso   1.00
H208   H     0.83838   0.27432   0.36771   0.00000  Uiso   1.00
H209   H     0.78292   0.27145   0.39879   0.00000  Uiso   1.00
H210   H     0.75106   0.28411   0.21240   0.00000  Uiso   1.00
H211   H     0.70881   0.29771   0.19089   0.00000  Uiso   1.00
H212   H     0.71662   0.32097   0.24415   0.00000  Uiso   1.00
H213   H     0.98784   0.26524   0.25437   0.00000  Uiso   1.00
H214   H     0.69651   0.25199   0.27573   0.00000  Uiso   1.00
H215   H     0.72113   0.20818   0.20160   0.00000  Uiso   1.00
H216   H     0.83073   0.06830   0.44610   0.00000  Uiso   1.00
H217   H     0.67674   0.21954   0.18484   0.00000  Uiso   1.00
H218   H     0.86362   0.05732   0.00447   0.00000  Uiso   1.00
H219   H     0.86868   0.24272   0.01439   0.00000  Uiso   1.00
H220   H     0.84865   0.29155   0.47356   0.00000  Uiso   1.00
H221   H     0.80440   0.11431   0.40715   0.00000  Uiso   1.00
H222   H     0.89289   0.08489   0.11377   0.00000  Uiso   1.00
H223   H     0.85987   0.04333   0.09021   0.00000  Uiso   1.00
O224   O     0.83333   0.16667   0.25000   0.00000  Uiso   1.00
O225   O     0.82118   0.12637   0.15459   0.00000  Uiso   1.00
O226   O     0.79607   0.20391   0.34968   0.00000  Uiso   1.00
O227   O     0.87491   0.17759   0.14606   0.00000  Uiso   1.00
O228   O     0.84118   0.15880   0.34968   0.00000  Uiso   1.00
O229   O     0.84597   0.08019   0.28214   0.00000  Uiso   1.00
O230   O     0.81298   0.26085   0.27014   0.00000  Uiso   1.00
O231   O     0.74078   0.13291   0.23413   0.00000  Uiso   1.00
O232   O     0.93360   0.19272   0.21361   0.00000  Uiso   1.00
O233   O     0.73738   0.18878   0.28213   0.00000  Uiso   1.00
O234   O     0.92158   0.15226   0.27014   0.00000  Uiso   1.00
O235   O     0.80426   0.06944   0.23413   0.00000  Uiso   1.00
O236   O     0.87012   0.25620   0.21361   0.00000  Uiso   1.00
Zn237  Zn    0.86005   0.13994   0.28734   0.00000  Uiso   1.00
Zn238  Zn    0.80046   0.12458   0.21876   0.00000  Uiso   1.00
Zn239  Zn    0.87723   0.19775   0.20657   0.00000  Uiso   1.00
Zn240  Zn    0.79560   0.20439   0.28734   0.00000  Uiso   1.00
C241   C     0.05307   0.49262   0.25980   0.00000  Uiso   1.00
C242   C     0.17445   0.50203   0.05935   0.00000  Uiso   1.00
C243   C     0.20061   0.43498   0.06052   0.00000  Uiso   1.00
C244   C     0.28065   0.50744   0.24056   0.00000  Uiso   1.00
C245   C     0.15092   0.53360   0.41687   0.00000  Uiso   1.00
C246   C     0.32612   0.51298   0.23988   0.00000  Uiso   1.00
C247   C     0.00820   0.48812   0.26286   0.00000  Uiso   1.00
C248   C     0.18056   0.65589   0.23667   0.00000  Uiso   1.00
C249   C     0.15173   0.34487   0.26329   0.00000  Uiso   1.00
C250   C     0.15610   0.38915   0.26003   0.00000  Uiso   1.00
C251   C     0.17657   0.61116   0.24015   0.00000  Uiso   1.00
C252   C     0.17356   0.59169   0.46592   0.00000  Uiso   1.00
C253   C     0.18504   0.48123   0.12957   0.00000  Uiso   1.00
C254   C     0.14949   0.51879   0.37058   0.00000  Uiso   1.00
C255   C     0.19255   0.42223   0.01896   0.00000  Uiso   1.00
C256   C     0.18950   0.47407   0.08176   0.00000  Uiso   1.00
C257   C     0.15677   0.57739   0.42916   0.00000  Uiso   1.00
C258   C     0.21752   0.40444   0.08254   0.00000  Uiso   1.00
C259   C     0.31617   0.45092   0.28731   0.00000  Uiso   1.00
C260   C     0.14908   0.53675   0.08650   0.00000  Uiso   1.00
C261   C     0.10231   0.52971   0.08347   0.00000  Uiso   1.00
C262   C     0.08107   0.56916   0.10010   0.00000  Uiso   1.00
C263   C     0.18278   0.56365   0.49133   0.00000  Uiso   1.00
C264   C     0.14984   0.60972   0.40143   0.00000  Uiso   1.00
C265   C     0.02123   0.54869   0.21467   0.00000  Uiso   1.00
C266   C     0.02060   0.58965   0.24479   0.00000  Uiso   1.00
C267   C     0.05123   0.62524   0.22144   0.00000  Uiso   1.00
C268   C     0.17062   0.52044   0.48449   0.00000  Uiso   1.00
C269   C     0.15674   0.50506   0.44542   0.00000  Uiso   1.00
C270   C     0.17573   0.49174   0.01329   0.00000  Uiso   1.00
C271   C     0.17849   0.44956   0.49623   0.00000  Uiso   1.00
C272   C     0.16522   0.43456   0.45759   0.00000  Uiso   1.00
C273   C     0.15117   0.46141   0.43461   0.00000  Uiso   1.00
H274   H     0.20720   0.33745   0.21236   0.00000  Uiso   1.00
H275   H     0.24672   0.39405   0.05954   0.00000  Uiso   1.00
H276   H     0.00377   0.43295   0.29881   0.00000  Uiso   1.00
H277   H     0.29283   0.46165   0.31763   0.00000  Uiso   1.00
H278   H     0.29997   0.42893   0.26492   0.00000  Uiso   1.00
H279   H     0.08490   0.58034   0.13402   0.00000  Uiso   1.00
H280   H     0.09568   0.59428   0.07733   0.00000  Uiso   1.00
H281   H     0.04658   0.56236   0.10106   0.00000  Uiso   1.00
H282   H     0.09951   0.52085   0.04877   0.00000  Uiso   1.00
H283   H     0.08480   0.50372   0.10403   0.00000  Uiso   1.00
H284   H     0.14804   0.53874   0.12247   0.00000  Uiso   1.00
H285   H     0.12451   0.66404   0.28744   0.00000  Uiso   1.00
H286   H     0.16423   0.56833   0.07758   0.00000  Uiso   1.00
H287   H     0.15605   0.64210   0.41656   0.00000  Uiso   1.00
H288   H     0.17172   0.60765   0.36771   0.00000  Uiso   1.00
H289   H     0.11625   0.60479   0.39879   0.00000  Uiso   1.00
H290   H     0.08439   0.61745   0.21240   0.00000  Uiso   1.00
H291   H     0.04215   0.63104   0.19089   0.00000  Uiso   1.00
H292   H     0.04995   0.65430   0.24415   0.00000  Uiso   1.00
H293   H     0.32117   0.59857   0.25437   0.00000  Uiso   1.00
H294   H     0.02985   0.58533   0.27573   0.00000  Uiso   1.00
H295   H     0.05446   0.54151   0.20160   0.00000  Uiso   1.00
H296   H     0.16406   0.40164   0.44610   0.00000  Uiso   1.00
H297   H     0.01008   0.55287   0.18484   0.00000  Uiso   1.00
H298   H     0.19695   0.39066   0.00447   0.00000  Uiso   1.00
H299   H     0.20201   0.57605   0.01439   0.00000  Uiso   1.00
H300   H     0.18199   0.62488   0.47356   0.00000  Uiso   1.00
H301   H     0.13774   0.44764   0.40715   0.00000  Uiso   1.00
H302   H     0.22622   0.41822   0.11377   0.00000  Uiso   1.00
H303   H     0.19320   0.37667   0.09021   0.00000  Uiso   1.00
O304   O     0.16667   0.50000   0.25000   0.00000  Uiso   1.00
O305   O     0.15451   0.45970   0.15459   0.00000  Uiso   1.00
O306   O     0.12940   0.53724   0.34968   0.00000  Uiso   1.00
O307   O     0.20824   0.51092   0.14606   0.00000  Uiso   1.00
O308   O     0.17451   0.49213   0.34968   0.00000  Uiso   1.00
O309   O     0.17930   0.41352   0.28214   0.00000  Uiso   1.00
O310   O     0.14632   0.59418   0.27014   0.00000  Uiso   1.00
O311   O     0.07412   0.46625   0.23413   0.00000  Uiso   1.00
O312   O     0.26693   0.52605   0.21361   0.00000  Uiso   1.00
O313   O     0.07071   0.52211   0.28213   0.00000  Uiso   1.00
O314   O     0.25491   0.48559   0.27014   0.00000  Uiso   1.00
O315   O     0.13760   0.40277   0.23413   0.00000  Uiso   1.00
O316   O     0.20345   0.58953   0.21361   0.00000  Uiso   1.00
Zn317  Zn    0.19338   0.47327   0.28734   0.00000  Uiso   1.00
Zn318  Zn    0.13379   0.45791   0.21876   0.00000  Uiso   1.00
Zn319  Zn    0.21056   0.53109   0.20657   0.00000  Uiso   1.00
Zn320  Zn    0.12893   0.53773   0.28734   0.00000  Uiso   1.00
C321   C     0.38640   0.49262   0.25980   0.00000  Uiso   1.00
C322   C     0.50778   0.50203   0.05935   0.00000  Uiso   1.00
C323   C     0.53394   0.43498   0.06052   0.00000  Uiso   1.00
C324   C     0.61399   0.50744   0.24056   0.00000  Uiso   1.00
C325   C     0.48425   0.53360   0.41687   0.00000  Uiso   1.00
C326   C     0.65945   0.51298   0.23988   0.00000  Uiso   1.00
C327   C     0.34154   0.48812   0.26286   0.00000  Uiso   1.00
C328   C     0.51389   0.65589   0.23667   0.00000  Uiso   1.00
C329   C     0.48506   0.34487   0.26329   0.00000  Uiso   1.00
C330   C     0.48944   0.38915   0.26003   0.00000  Uiso   1.00
C331   C     0.50991   0.61116   0.24015   0.00000  Uiso   1.00
C332   C     0.50690   0.59169   0.46592   0.00000  Uiso   1.00
C333   C     0.51838   0.48123   0.12957   0.00000  Uiso   1.00
C334   C     0.48283   0.51879   0.37058   0.00000  Uiso   1.00
C335   C     0.52588   0.42223   0.01896   0.00000  Uiso   1.00
C336   C     0.52284   0.47407   0.08176   0.00000  Uiso   1.00
C337   C     0.49010   0.57739   0.42916   0.00000  Uiso   1.00
C338   C     0.55085   0.40444   0.08254   0.00000  Uiso   1.00
C339   C     0.64950   0.45092   0.28731   0.00000  Uiso   1.00
C340   C     0.48241   0.53675   0.08650   0.00000  Uiso   1.00
C341   C     0.43565   0.52971   0.08347   0.00000  Uiso   1.00
C342   C     0.41440   0.56916   0.10010   0.00000  Uiso   1.00
C343   C     0.51611   0.56365   0.49133   0.00000  Uiso   1.00
C344   C     0.48317   0.60972   0.40143   0.00000  Uiso   1.00
C345   C     0.35457   0.54869   0.21467   0.00000  Uiso   1.00
C346   C     0.35394   0.58965   0.24479   0.00000  Uiso   1.00
C347   C     0.38456   0.62524   0.22144   0.00000  Uiso   1.00
C348   C     0.50395   0.52044   0.48449   0.00000  Uiso   1.00
C349   C     0.49008   0.50506   0.44542   0.00000  Uiso   1.00
C350   C     0.50906   0.49174   0.01329   0.00000  Uiso   1.00
C351   C     0.51182   0.44956   0.49623   0.00000  Uiso   1.00
C352   C     0.49855   0.43456   0.45759   0.00000  Uiso   1.00
C353   C     0.48451   0.46141   0.43461   0.00000  Uiso   1.00
H354   H     0.54053   0.33745   0.21236   0.00000  Uiso   1.00
H355   H     0.58005   0.39405   0.05954   0.00000  Uiso   1.00
H356   H     0.33710   0.43295   0.29881   0.00000  Uiso   1.00
H357   H     0.62617   0.46165   0.31763   0.00000  Uiso   1.00
H358   H     0.63331   0.42893   0.26492   0.00000  Uiso   1.00
H359   H     0.41823   0.58034   0.13402   0.00000  Uiso   1.00
H360   H     0.42902   0.59428   0.07733   0.00000  Uiso   1.00
H361   H     0.37992   0.56236   0.10106   0.00000  Uiso   1.00
H362   H     0.43284   0.52085   0.04877   0.00000  Uiso   1.00
H363   H     0.41813   0.50372   0.10403   0.00000  Uiso   1.00
H364   H     0.48138   0.53874   0.12247   0.00000  Uiso   1.00
H365   H     0.45785   0.66404   0.28744   0.00000  Uiso   1.00
H366   H     0.49757   0.56833   0.07758   0.00000  Uiso   1.00
H367   H     0.48939   0.64210   0.41656   0.00000  Uiso   1.00
H368   H     0.50505   0.60765   0.36771   0.00000  Uiso   1.00
H369   H     0.44958   0.60479   0.39879   0.00000  Uiso   1.00
H370   H     0.41772   0.61745   0.21240   0.00000  Uiso   1.00
H371   H     0.37548   0.63104   0.19089   0.00000  Uiso   1.00
H372   H     0.38329   0.65430   0.24415   0.00000  Uiso   1.00
H373   H     0.65451   0.59857   0.25437   0.00000  Uiso   1.00
H374   H     0.36318   0.58533   0.27573   0.00000  Uiso   1.00
H375   H     0.38780   0.54151   0.20160   0.00000  Uiso   1.00
H376   H     0.49739   0.40164   0.44610   0.00000  Uiso   1.00
H377   H     0.34341   0.55287   0.18484   0.00000  Uiso   1.00
H378   H     0.53029   0.39066   0.00447   0.00000  Uiso   1.00
H379   H     0.53534   0.57605   0.01439   0.00000  Uiso   1.00
H380   H     0.51532   0.62488   0.47356   0.00000  Uiso   1.00
H381   H     0.47107   0.44764   0.40715   0.00000  Uiso   1.00
H382   H     0.55956   0.41822   0.11377   0.00000  Uiso   1.00
H383   H     0.52653   0.37667   0.09021   0.00000  Uiso   1.00
O384   O     0.50000   0.50000   0.25000   0.00000  Uiso   1.00
O385   O     0.48784   0.45970   0.15459   0.00000  Uiso   1.00
O386   O     0.46274   0.53724   0.34968   0.00000  Uiso   1.00
O387   O     0.54157   0.51092   0.14606   0.00000  Uiso   1.00
O388   O     0.50785   0.49213   0.34968   0.00000  Uiso   1.00
O389   O     0.51264   0.41352   0.28214   0.00000  Uiso   1.00
O390   O     0.47965   0.59418   0.27014   0.00000  Uiso   1.00
O391   O     0.40745   0.46625   0.23413   0.00000  Uiso   1.00
O392   O     0.60026   0.52605   0.21361   0.00000  Uiso   1.00
O393   O     0.40405   0.52211   0.28213   0.00000  Uiso   1.00
O394   O     0.58824   0.48559   0.27014   0.00000  Uiso   1.00
O395   O     0.47093   0.40277   0.23413   0.00000  Uiso   1.00
O396   O     0.53678   0.58953   0.21361   0.00000  Uiso   1.00
Zn397  Zn    0.52672   0.47327   0.28734   0.00000  Uiso   1.00
Zn398  Zn    0.46713   0.45791   0.21876   0.00000  Uiso   1.00
Zn399  Zn    0.54389   0.53109   0.20657   0.00000  Uiso   1.00
Zn400  Zn    0.46226   0.53773   0.28734   0.00000  Uiso   1.00
C401   C     0.71974   0.49262   0.25980   0.00000  Uiso   1.00
C402   C     0.84112   0.50203   0.05935   0.00000  Uiso   1.00
C403   C     0.86728   0.43498   0.06052   0.00000  Uiso   1.00
C404   C     0.94732   0.50744   0.24056   0.00000  Uiso   1.00
C405   C     0.81759   0.53360   0.41687   0.00000  Uiso   1.00
C406   C     0.99278   0.51298   0.23988   0.00000  Uiso   1.00
C407   C     0.67487   0.48812   0.26286   0.00000  Uiso   1.00
C408   C     0.84722   0.65589   0.23667   0.00000  Uiso   1.00
C409   C     0.81840   0.34487   0.26329   0.00000  Uiso   1.00
C410   C     0.82277   0.38915   0.26003   0.00000  Uiso   1.00
C411   C     0.84324   0.61116   0.24015   0.00000  Uiso   1.00
C412   C     0.84023   0.59169   0.46592   0.00000  Uiso   1.00
C413   C     0.85171   0.48123   0.12957   0.00000  Uiso   1.00
C414   C     0.81616   0.51879   0.37058   0.00000  Uiso   1.00
C415   C     0.85922   0.42223   0.01896   0.00000  Uiso   1.00
C416   C     0.85617   0.47407   0.08176   0.00000  Uiso   1.00
C417   C     0.82343   0.57739   0.42916   0.00000  Uiso   1.00
C418   C     0.88418   0.40444   0.08254   0.00000  Uiso   1.00
C419   C     0.98284   0.45092   0.28731   0.00000  Uiso   1.00
C420   C     0.81574   0.53675   0.08650   0.00000  Uiso   1.00
C421   C     0.76898   0.52971   0.08347   0.00000  Uiso   1.00
C422   C     0.74773   0.56916   0.10010   0.00000  Uiso   1.00
C423   C     0.84944   0.56365   0.49133   0.00000  Uiso   1.00
C424   C     0.81651   0.60972   0.40143   0.00000  Uiso   1.00
C425   C     0.68790   0.54869   0.21467   0.00000  Uiso   1.00
C426   C     0.68727   0.58965   0.24479   0.00000  Uiso   1.00
C427   C     0.71789   0.62524   0.22144   0.00000  Uiso   1.00
C428   C     0.83728   0.52044   0.48449   0.00000  Uiso   1.00
C429   C     0.82341   0.50506   0.44542   0.00000  Uiso   1.00
C430   C     0.84240   0.49174   0.01329   0.00000  Uiso   1.00
C431   C     0.84516   0.44956   0.49623   0.00000  Uiso   1.00
C432   C     0.83188   0.43456   0.45759   0.00000  Uiso   1.00
C433   C     0.81784   0.46141   0.43461   0.00000  Uiso   1.00
H434   H     0.87387   0.33745   0.21236   0.00000  Uiso   1.00
H435   H     0.91339   0.39405   0.05954   0.00000  Uiso   1.00
H436   H     0.67044   0.43295   0.29881   0.00000  Uiso   1.00
H437   H     0.95950   0.46165   0.31763   0.00000  Uiso   1.00
H438   H     0.96664   0.42893   0.26492   0.00000  Uiso   1.00
H439   H     0.75156   0.58034   0.13402   0.00000  Uiso   1.00
H440   H     0.76235   0.59428   0.07733   0.00000  Uiso   1.00
H441   H     0.71325   0.56236   0.10106   0.00000  Uiso   1.00
H442   H     0.76617   0.52085   0.04877   0.00000  Uiso   1.00
H443   H     0.75147   0.50372   0.10403   0.00000  Uiso   1.00
H444   H     0.81471   0.53874   0.12247   0.00000  Uiso   1.00
H445   H     0.79118   0.66404   0.28744   0.00000  Uiso   1.00
H446   H     0.83090   0.56833   0.07758   0.00000  Uiso   1.00
H447   H     0.82272   0.64210   0.41656   0.00000  Uiso   1.00
H448   H     0.83838   0.60765   0.36771   0.00000  Uiso   1.00
H449   H     0.78292   0.60479   0.39879   0.00000  Uiso   1.00
H450   H     0.75106   0.61745   0.21240   0.00000  Uiso   1.00
H451   H     0.70881   0.63104   0.19089   0.00000  Uiso   1.00
H452   H     0.71662   0.65430   0.24415   0.00000  Uiso   1.00
H453   H     0.98784   0.59857   0.25437   0.00000  Uiso   1.00
H454   H     0.69651   0.58533   0.27573   0.00000  Uiso   1.00
H455   H     0.72113   0.54151   0.20160   0.00000  Uiso   1.00
H456   H     0.83073   0.40164   0.44610   0.00000  Uiso   1.00
H457   H     0.67674   0.55287   0.18484   0.00000  Uiso   1.00
H458   H     0.86362   0.39066   0.00447   0.00000  Uiso   1.00
H459   H     0.86868   0.57605   0.01439   0.00000  Uiso   1.00
H460   H     0.84865   0.62488   0.47356   0.00000  Uiso   1.00
H461   H     0.80440   0.44764   0.40715   0.00000  Uiso   1.00
H462   H     0.89289   0.41822   0.11377   0.00000  Uiso   1.00
H463   H     0.85987   0.37667   0.09021   0.00000  Uiso   1.00
O464   O     0.83333   0.50000   0.25000   0.00000  Uiso   1.00
O465   O     0.82118   0.45970   0.15459   0.00000  Uiso   1.00
O466   O     0.79607   0.53724   0.34968   0.00000  Uiso   1.00
O467   O     0.87491   0.51092   0.14606   0.00000  Uiso   1.00
O468   O     0.84118   0.49213   0.34968   0.00000  Uiso   1.00
O469   O     0.84597   0.41352   0.28214   0.00000  Uiso   1.00
O470   O     0.81298   0.59418   0.27014   0.00000  Uiso   1.00
O471   O     0.74078   0.46625   0.23413   0.00000  Uiso   1.00
O472   O     0.93360   0.52605   0.21361   0.00000  Uiso   1.00
O473   O     0.73738   0.52211   0.28213   0.00000  Uiso   1.00
O474   O     0.92158   0.48559   0.27014   0.00000  Uiso   1.00
O475   O     0.80426   0.40277   0.23413   0.00000  Uiso   1.00
O476   O     0.87012   0.58953   0.21361   0.00000  Uiso   1.00
Zn477  Zn    0.86005   0.47327   0.28734   0.00000  Uiso   1.00
Zn478  Zn    0.80046   0.45791   0.21876   0.00000  Uiso   1.00
Zn479  Zn    0.87723   0.53109   0.20657   0.00000  Uiso   1.00
Zn480  Zn    0.79560   0.53773   0.28734   0.00000  Uiso   1.00
C481   C     0.05307   0.82596   0.25980   0.00000  Uiso   1.00
C482   C     0.17445   0.83536   0.05935   0.00000  Uiso   1.00
C483   C     0.20061   0.76832   0.06052   0.00000  Uiso   1.00
C484   C     0.28065   0.84078   0.24056   0.00000  Uiso   1.00
C485   C     0.15092   0.86694   0.41687   0.00000  Uiso   1.00
C486   C     0.32612   0.84631   0.23988   0.00000  Uiso   1.00
C487   C     0.00820   0.82146   0.26286   0.00000  Uiso   1.00
C488   C     0.18056   0.98922   0.23667   0.00000  Uiso   1.00
C489   C     0.15173   0.67820   0.26329   0.00000  Uiso   1.00
C490   C     0.15610   0.72248   0.26003   0.00000  Uiso   1.00
C491   C     0.17657   0.94450   0.24015   0.00000  Uiso   1.00
C492   C     0.17356   0.92502   0.46592   0.00000  Uiso   1.00
C493   C     0.18504   0.81456   0.12957   0.00000  Uiso   1.00
C494   C     0.14949   0.85212   0.37058   0.00000  Uiso   1.00
C495   C     0.19255   0.75556   0.01896   0.00000  Uiso   1.00
C496   C     0.18950   0.80740   0.08176   0.00000  Uiso   1.00
C497   C     0.15677   0.91072   0.42916   0.00000  Uiso   1.00
C498   C     0.21752   0.73777   0.08254   0.00000  Uiso   1.00
C499   C     0.31617   0.78425   0.28731   0.00000  Uiso   1.00
C500   C     0.14908   0.87009   0.08650   0.00000  Uiso   1.00
C501   C     0.10231   0.86304   0.08347   0.00000  Uiso   1.00
C502   C     0.08107   0.90250   0.10010   0.00000  Uiso   1.00
C503   C     0.18278   0.89698   0.49133   0.00000  Uiso   1.00
C504   C     0.14984   0.94305   0.40143   0.00000  Uiso   1.00
C505   C     0.02123   0.88202   0.21467   0.00000  Uiso   1.00
C506   C     0.02060   0.92299   0.24479   0.00000  Uiso   1.00
C507   C     0.05123   0.95857   0.22144   0.00000  Uiso   1.00
C508   C     0.17062   0.85377   0.48449   0.00000  Uiso   1.00
C509   C     0.15674   0.83839   0.44542   0.00000  Uiso   1.00
C510   C     0.17573   0.82508   0.01329   0.00000  Uiso   1.00
C511   C     0.17849   0.78289   0.49623   0.00000  Uiso   1.00
C512   C     0.16522   0.76790   0.45759   0.00000  Uiso   1.00
C513   C     0.15117   0.79475   0.43461   0.00000  Uiso   1.00
H514   H     0.20720   0.67079   0.21236   0.00000  Uiso   1.00
H515   H     0.24672   0.72739   0.05954   0.00000  Uiso   1.00
H516   H     0.00377   0.76628   0.29881   0.00000  Uiso   1.00
H517   H     0.29283   0.79498   0.31763   0.00000  Uiso   1.00
H518   H     0.29997   0.76227   0.26492   0.00000  Uiso   1.00
H519   H     0.08490   0.91368   0.13402   0.00000  Uiso   1.00
H520   H     0.09568   0.92761   0.07733   0.00000  Uiso   1.00
H521   H     0.04658   0.89569   0.10106   0.00000  Uiso   1.00
H522   H     0.09951   0.85419   0.04877   0.00000  Uiso   1.00
H523   H     0.08480   0.83706   0.10403   0.00000  Uiso   1.00
H524   H     0.14804   0.87207   0.12247   0.00000  Uiso   1.00
H525   H     0.12451   0.99737   0.28744   0.00000  Uiso   1.00
H526   H     0.16423   0.90166   0.07758   0.00000  Uiso   1.00
H527   H     0.15605   0.97544   0.41656   0.00000  Uiso   1.00
H528   H     0.17172   0.94099   0.36771   0.00000  Uiso   1.00
H529   H     0.11625   0.93812   0.39879   0.00000  Uiso   1.00
H530   H     0.08439   0.95078   0.21240   0.00000  Uiso   1.00
H531   H     0.04215   0.96437   0.19089   0.00000  Uiso   1.00
H532   H     0.04995   0.98764   0.24415   0.00000  Uiso   1.00
H533   H     0.32117   0.93191   0.25437   0.00000  Uiso   1.00
H534   H     0.02985   0.91866   0.27573   0.00000  Uiso   1.00
H535   H     0.05446   0.87484   0.20160   0.00000  Uiso   1.00
H536   H     0.16406   0.73497   0.44610   0.00000  Uiso   1.00
H537   H     0.01008   0.88621   0.18484   0.00000  Uiso   1.00
H538   H     0.19695   0.72399   0.00447   0.00000  Uiso   1.00
H539   H     0.20201   0.90939   0.01439   0.00000  Uiso   1.00
H540   H     0.18199   0.95821   0.47356   0.00000  Uiso   1.00
H541   H     0.13774   0.78097   0.40715   0.00000  Uiso   1.00
H542   H     0.22622   0.75156   0.11377   0.00000  Uiso   1.00
H543   H     0.19320   0.71000   0.09021   0.00000  Uiso   1.00
O544   O     0.16667   0.83333   0.25000   0.00000  Uiso   1.00
O545   O     0.15451   0.79304   0.15459   0.00000  Uiso   1.00
O546   O     0.12940   0.87058   0.34968   0.00000  Uiso   1.00
O547   O     0.20824   0.84425   0.14606   0.00000  Uiso   1.00
O548   O     0.17451   0.82546   0.34968   0.00000  Uiso   1.00
O549   O     0.17930   0.74686   0.28214   0.00000  Uiso   1.00
O550   O     0.14632   0.92751   0.27014   0.00000  Uiso   1.00
O551   O     0.07412   0.79958   0.23413   0.00000  Uiso   1.00
O552   O     0.26693   0.85939   0.21361   0.00000  Uiso   1.00
O553   O     0.07071   0.85544   0.28213   0.00000  Uiso   1.00
O554   O     0.25491   0.81892   0.27014   0.00000  Uiso   1.00
O555   O     0.13760   0.73610   0.23413   0.00000  Uiso   1.00
O556   O     0.20345   0.92286   0.21361   0.00000  Uiso   1.00
Zn557  Zn    0.19338   0.80661   0.28734   0.00000  Uiso   1.00
Zn558  Zn    0.13379   0.79124   0.21876   0.00000  Uiso   1.00
Zn559  Zn    0.21056   0.86442   0.20657   0.00000  Uiso   1.00
Zn560  Zn    0.12893   0.87106   0.28734   0.00000  Uiso   1.00
C561   C     0.38640   0.82596   0.25980   0.00000  Uiso   1.00
C562   C     0.50778   0.83536   0.05935   0.00000  Uiso   1.00
C563   C     0.53394   0.76832   0.06052   0.00000  Uiso   1.00
C564   C     0.61399   0.84078   0.24056   0.00000  Uiso   1.00
C565   C     0.48425   0.86694   0.41687   0.00000  Uiso   1.00
C566   C     0.65945   0.84631   0.23988   0.00000  Uiso   1.00
C567   C     0.34154   0.82146   0.26286   0.00000  Uiso   1.00
C568   C     0.51389   0.98922   0.23667   0.00000  Uiso   1.00
C569   C     0.48506   0.67820   0.26329   0.00000  Uiso   1.00
C570   C     0.48944   0.72248   0.26003   0.00000  Uiso   1.00
C571   C     0.50991   0.94450   0.24015   0.00000  Uiso   1.00
C572   C     0.50690   0.92502   0.46592   0.00000  Uiso   1.00
C573   C     0.51838   0.81456   0.12957   0.00000  Uiso   1.00
C574   C     0.48283   0.85212   0.37058   0.00000  Uiso   1.00
C575   C     0.52588   0.75556   0.01896   0.00000  Uiso   1.00
C576   C     0.52284   0.80740   0.08176   0.00000  Uiso   1.00
C577   C     0.49010   0.91072   0.42916   0.00000  Uiso   1.00
C578   C     0.55085   0.73777   0.08254   0.00000  Uiso   1.00
C579   C     0.64950   0.78425   0.28731   0.00000  Uiso   1.00
C580   C     0.48241   0.87009   0.08650   0.00000  Uiso   1.00
C581   C     0.43565   0.86304   0.08347   0.00000  Uiso   1.00
C582   C     0.41440   0.90250   0.10010   0.00000  Uiso   1.00
C583   C     0.51611   0.89698   0.49133   0.00000  Uiso   1.00
C584   C     0.48317   0.94305   0.40143   0.00000  Uiso   1.00
C585   C     0.35457   0.88202   0.21467   0.00000  Uiso   1.00
C586   C     0.35394   0.92299   0.24479   0.00000  Uiso   1.00
C587   C     0.38456   0.95857   0.22144   0.00000  Uiso   1.00
C588   C     0.50395   0.85377   0.48449   0.00000  Uiso   1.00
C589   C     0.49008   0.83839   0.44542   0.00000  Uiso   1.00
C590   C     0.50906   0.82508   0.01329   0.00000  Uiso   1.00
C591   C     0.51182   0.78289   0.49623   0.00000  Uiso   1.00
C592   C     0.49855   0.76790   0.45759   0.00000  Uiso   1.00
C593   C     0.48451   0.79475   0.43461   0.00000  Uiso   1.00
H594   H     0.54053   0.67079   0.21236   0.00000  Uiso   1.00
H595   H     0.58005   0.72739   0.05954   0.00000  Uiso   1.00
H596   H     0.33710   0.76628   0.29881   0.00000  Uiso   1.00
H597   H     0.62617   0.79498   0.31763   0.00000  Uiso   1.00
H598   H     0.63331   0.76227   0.26492   0.00000  Uiso   1.00
H599   H     0.41823   0.91368   0.13402   0.00000  Uiso   1.00
H600   H     0.42902   0.92761   0.07733   0.00000  Uiso   1.00
H601   H     0.37992   0.89569   0.10106   0.00000  Uiso   1.00
H602   H     0.43284   0.85419   0.04877   0.00000  Uiso   1.00
H603   H     0.41813   0.83706   0.10403   0.00000  Uiso   1.00
H604   H     0.48138   0.87207   0.12247   0.00000  Uiso   1.00
H605   H     0.45785   0.99737   0.28744   0.00000  Uiso   1.00
H606   H     0.49757   0.90166   0.07758   0.00000  Uiso   1.00
H607   H     0.48939   0.97544   0.41656   0.00000  Uiso   1.00
H608   H     0.50505   0.94099   0.36771   0.00000  Uiso   1.00
H609   H     0.44958   0.93812   0.39879   0.00000  Uiso   1.00
H610   H     0.41772   0.95078   0.21240   0.00000  Uiso   1.00
H611   H     0.37548   0.96437   0.19089   0.00000  Uiso   1.00
H612   H     0.38329   0.98764   0.24415   0.00000  Uiso   1.00
H613   H     0.65451   0.93191   0.25437   0.00000  Uiso   1.00
H614   H     0.36318   0.91866   0.27573   0.00000  Uiso   1.00
H615   H     0.38780   0.87484   0.20160   0.00000  Uiso   1.00
H616   H     0.49739   0.73497   0.44610   0.00000  Uiso   1.00
H617   H     0.34341   0.88621   0.18484   0.00000  Uiso   1.00
H618   H     0.53029   0.72399   0.00447   0.00000  Uiso   1.00
H619   H     0.53534   0.90939   0.01439   0.00000  Uiso   1.00
H620   H     0.51532   0.95821   0.47356   0.00000  Uiso   1.00
H621   H     0.47107   0.78097   0.40715   0.00000  Uiso   1.00
H622   H     0.55956   0.75156   0.11377   0.00000  Uiso   1.00
H623   H     0.52653   0.71000   0.09021   0.00000  Uiso   1.00
O624   O     0.50000   0.83333   0.25000   0.00000  Uiso   1.00
O625   O     0.48784   0.79304   0.15459   0.00000  Uiso   1.00
O626   O     0.46274   0.87058   0.34968   0.00000  Uiso   1.00
O627   O     0.54157   0.84425   0.14606   0.00000  Uiso   1.00
O628   O     0.50785   0.82546   0.34968   0.00000  Uiso   1.00
O629   O     0.51264   0.74686   0.28214   0.00000  Uiso   1.00
O630   O     0.47965   0.92751   0.27014   0.00000  Uiso   1.00
O631   O     0.40745   0.79958   0.23413   0.00000  Uiso   1.00
O632   O     0.60026   0.85939   0.21361   0.00000  Uiso   1.00
O633   O     0.40405   0.85544   0.28213   0.00000  Uiso   1.00
O634   O     0.58824   0.81892   0.27014   0.00000  Uiso   1.00
O635   O     0.47093   0.73610   0.23413   0.00000  Uiso   1.00
O636   O     0.53678   0.92286   0.21361   0.00000  Uiso   1.00
Zn637  Zn    0.52672   0.80661   0.28734   0.00000  Uiso   1.00
Zn638  Zn    0.46713   0.79124   0.21876   0.00000  Uiso   1.00
Zn639  Zn    0.54389   0.86442   0.20657   0.00000  Uiso   1.00
Zn640  Zn    0.46226   0.87106   0.28734   0.00000  Uiso   1.00
C641   C     0.71974   0.82596   0.25980   0.00000  Uiso   1.00
C642   C     0.84112   0.83536   0.05935   0.00000  Uiso   1.00
C643   C     0.86728   0.76832   0.06052   0.00000  Uiso   1.00
C644   C     0.94732   0.84078   0.24056   0.00000  Uiso   1.00
C645   C     0.81759   0.86694   0.41687   0.00000  Uiso   1.00
C646   C     0.99278   0.84631   0.23988   0.00000  Uiso   1.00
C647   C     0.67487   0.82146   0.26286   0.00000  Uiso   1.00
C648   C     0.84722   0.98922   0.23667   0.00000  Uiso   1.00
C649   C     0.81840   0.67820   0.26329   0.00000  Uiso   1.00
C650   C     0.82277   0.72248   0.26003   0.00000  Uiso   1.00
C651   C     0.84324   0.94450   0.24015   0.00000  Uiso   1.00
C652   C     0.84023   0.92502   0.46592   0.00000  Uiso   1.00
C653   C     0.85171   0.81456   0.12957   0.00000  Uiso   1.00
C654   C     0.81616   0.85212   0.37058   0.00000  Uiso   1.00
C655   C     0.85922   0.75556   0.01896   0.00000  Uiso   1.00
C656   C     0.85617   0.80740   0.08176   0.00000  Uiso   1.00
C657   C     0.82343   0.91072   0.42916   0.00000  Uiso   1.00
C658   C     0.88418   0.73777   0.08254   0.00000  Uiso   1.00
C659   C     0.98284   0.78425   0.28731   0.00000  Uiso   1.00
C660   C     0.81574   0.87009   0.08650   0.00000  Uiso   1.00
C661   C     0.76898   0.86304   0.08347   0.00000  Uiso   1.00
C662   C     0.74773   0.90250   0.10010   0.00000  Uiso   1.00
C663   C     0.84944   0.89698   0.49133   0.00000  Uiso   1.00
C664   C     0.81651   0.94305   0.40143   0.00000  Uiso   1.00
C665   C     0.68790   0.88202   0.21467   0.00000  Uiso   1.00
C666   C     0.68727   0.92299   0.24479   0.00000  Uiso   1.00
C667   C     0.71789   0.95857   0.22144   0.00000  Uiso   1.00
C668   C     0.83728   0.85377   0.48449   0.00000  Uiso   1.00
C669   C     0.82341   0.83839   0.44542   0.00000  Uiso   1.00
C670   C     0.84240   0.82508   0.01329   0.00000  Uiso   1.00
C671   C     0.84516   0.78289   0.49623   0.00000  Uiso   1.00
C672   C     0.83188   0.76790   0.45759   0.00000  Uiso   1.00
C673   C     0.81784   0.79475   0.43461   0.00000  Uiso   1.00
H674   H     0.87387   0.67079   0.21236   0.00000  Uiso   1.00
H675   H     0.91339   0.72739   0.05954   0.00000  Uiso   1.00
H676   H     0.67044   0.76628   0.29881   0.00000  Uiso   1.00
H677   H     0.95950   0.79498   0.31763   0.00000  Uiso   1.00
H678   H     0.96664   0.76227   0.26492   0.00000  Uiso   1.00
H679   H     0.75156   0.91368   0.13402   0.00000  Uiso   1.00
H680   H     0.76235   0.92761   0.07733   0.00000  Uiso   1.00
H681   H     0.71325   0.89569   0.10106   0.00000  Uiso   1.00
H682   H     0.76617   0.85419   0.04877   0.00000  Uiso   1.00
H683   H     0.75147   0.83706   0.10403   0.00000  Uiso   1.00
H684   H     0.81471   0.87207   0.12247   0.00000  Uiso   1.00
H685   H     0.79118   0.99737   0.28744   0.00000  Uiso   1.00
H686   H     0.83090   0.90166   0.07758   0.00000  Uiso   1.00
H687   H     0.82272   0.97544   0.41656   0.00000  Uiso   1.00
H688   H     0.83838   0.94099   0.36771   0.00000  Uiso   1.00
H689   H     0.78292   0.93812   0.39879   0.00000  Uiso   1.00
H690   H     0.75106   0.95078   0.21240   0.00000  Uiso   1.00
H691   H     0.70881   0.96437   0.19089   0.00000  Uiso   1.00
H692   H     0.71662   0.98764   0.24415   0.00000  Uiso   1.00
H693   H     0.98784   0.93191   0.25437   0.00000  Uiso   1.00
H694   H     0.69651   0.91866   0.27573   0.00000  Uiso   1.00
H695   H     0.72113   0.87484   0.20160   0.00000  Uiso   1.00
H696   H     0.83073   0.73497   0.44610   0.00000  Uiso   1.00
H697   H     0.67674   0.88621   0.18484   0.00000  Uiso   1.00
H698   H     0.86362   0.72399   0.00447   0.00000  Uiso   1.00
H699   H     0.86868   0.90939   0.01439   0.00000  Uiso   1.00
H700   H     0.84865   0.95821   0.47356   0.00000  Uiso   1.00
H701   H     0.80440   0.78097   0.40715   0.00000  Uiso   1.00
H702   H     0.89289   0.75156   0.11377   0.00000  Uiso   1.00
H703   H     0.85987   0.71000   0.09021   0.00000  Uiso   1.00
O704   O     0.83333   0.83333   0.25000   0.00000  Uiso   1.00
O705   O     0.82118   0.79304   0.15459   0.00000  Uiso   1.00
O706   O     0.79607   0.87058   0.34968   0.00000  Uiso   1.00
O707   O     0.87491   0.84425   0.14606   0.00000  Uiso   1.00
O708   O     0.84118   0.82546   0.34968   0.00000  Uiso   1.00
O709   O     0.84597   0.74686   0.28214   0.00000  Uiso   1.00
O710   O     0.81298   0.92751   0.27014   0.00000  Uiso   1.00
O711   O     0.74078   0.79958   0.23413   0.00000  Uiso   1.00
O712   O     0.93360   0.85939   0.21361   0.00000  Uiso   1.00
O713   O     0.73738   0.85544   0.28213   0.00000  Uiso   1.00
O714   O     0.92158   0.81892   0.27014   0.00000  Uiso   1.00
O715   O     0.80426   0.73610   0.23413   0.00000  Uiso   1.00
O716   O     0.87012   0.92286   0.21361   0.00000  Uiso   1.00
Zn717  Zn    0.86005   0.80661   0.28734   0.00000  Uiso   1.00
Zn718  Zn    0.80046   0.79124   0.21876   0.00000  Uiso   1.00
Zn719  Zn    0.87723   0.86442   0.20657   0.00000  Uiso   1.00
Zn720  Zn    0.79560   0.87106   0.28734   0.00000  Uiso   1.00
C721   C     0.05307   0.15929   0.75980   0.00000  Uiso   1.00
C722   C     0.17445   0.16870   0.55935   0.00000  Uiso   1.00
C723   C     0.20061   0.10165   0.56052   0.00000  Uiso   1.00
C724   C     0.28065   0.17411   0.74056   0.00000  Uiso   1.00
C725   C     0.15092   0.20027   0.91687   0.00000  Uiso   1.00
C726   C     0.32612   0.17964   0.73988   0.00000  Uiso   1.00
C727   C     0.00820   0.15479   0.76286   0.00000  Uiso   1.00
C728   C     0.18056   0.32255   0.73667   0.00000  Uiso   1.00
C729   C     0.15173   0.01154   0.76329   0.00000  Uiso   1.00
C730   C     0.15610   0.05582   0.76003   0.00000  Uiso   1.00
C731   C     0.17657   0.27783   0.74015   0.00000  Uiso   1.00
C732   C     0.17356   0.25836   0.96592   0.00000  Uiso   1.00
C733   C     0.18504   0.14790   0.62957   0.00000  Uiso   1.00
C734   C     0.14949   0.18545   0.87058   0.00000  Uiso   1.00
C735   C     0.19255   0.08889   0.51896   0.00000  Uiso   1.00
C736   C     0.18950   0.14073   0.58176   0.00000  Uiso   1.00
C737   C     0.15677   0.24406   0.92916   0.00000  Uiso   1.00
C738   C     0.21752   0.07111   0.58254   0.00000  Uiso   1.00
C739   C     0.31617   0.11759   0.78731   0.00000  Uiso   1.00
C740   C     0.14908   0.20342   0.58650   0.00000  Uiso   1.00
C741   C     0.10231   0.19637   0.58347   0.00000  Uiso   1.00
C742   C     0.08107   0.23583   0.60010   0.00000  Uiso   1.00
C743   C     0.18278   0.23032   0.99133   0.00000  Uiso   1.00
C744   C     0.14984   0.27639   0.90143   0.00000  Uiso   1.00
C745   C     0.02123   0.21536   0.71467   0.00000  Uiso   1.00
C746   C     0.02060   0.25632   0.74479   0.00000  Uiso   1.00
C747   C     0.05123   0.29190   0.72144   0.00000  Uiso   1.00
C748   C     0.17062   0.18711   0.98449   0.00000  Uiso   1.00
C749   C     0.15674   0.17173   0.94542   0.00000  Uiso   1.00
C750   C     0.17573   0.15841   0.51329   0.00000  Uiso   1.00
C751   C     0.17849   0.11623   0.99623   0.00000  Uiso   1.00
C752   C     0.16522   0.10123   0.95759   0.00000  Uiso   1.00
C753   C     0.15117   0.12808   0.93461   0.00000  Uiso   1.00
H754   H     0.20720   0.00412   0.71236   0.00000  Uiso   1.00
H755   H     0.24672   0.06072   0.55954   0.00000  Uiso   1.00
H756   H     0.00377   0.09962   0.79881   0.00000  Uiso   1.00
H757   H     0.29283   0.12832   0.81763   0.00000  Uiso   1.00
H758   H     0.29997   0.09560   0.76492   0.00000  Uiso   1.00
H759   H     0.08490   0.24701   0.63402   0.00000  Uiso   1.00
H760   H     0.09568   0.26094   0.57733   0.00000  Uiso   1.00
H761   H     0.04658   0.22902   0.60106   0.00000  Uiso   1.00
H762   H     0.09951   0.18752   0.54877   0.00000  Uiso   1.00
H763   H     0.08480   0.17039   0.60403   0.00000  Uiso   1.00
H764   H     0.14804   0.20540   0.62247   0.00000  Uiso   1.00
H765   H     0.12451   0.33071   0.78744   0.00000  Uiso   1.00
H766   H     0.16423   0.23499   0.57758   0.00000  Uiso   1.00
H767   H     0.15605   0.30877   0.91656   0.00000  Uiso   1.00
H768   H     0.17172   0.27432   0.86771   0.00000  Uiso   1.00
H769   H     0.11625   0.27145   0.89879   0.00000  Uiso   1.00
H770   H     0.08439   0.28411   0.71240   0.00000  Uiso   1.00
H771   H     0.04215   0.29771   0.69089   0.00000  Uiso   1.00
H772   H     0.04995   0.32097   0.74415   0.00000  Uiso   1.00
H773   H     0.32117   0.26524   0.75437   0.00000  Uiso   1.00
H774   H     0.02985   0.25199   0.77573   0.00000  Uiso   1.00
H775   H     0.05446   0.20818   0.70160   0.00000  Uiso   1.00
H776   H     0.16406   0.06830   0.94610   0.00000  Uiso   1.00
H777   H     0.01008   0.21954   0.68484   0.00000  Uiso   1.00
H778   H     0.19695   0.05732   0.50447   0.00000  Uiso   1.00
H779   H     0.20201   0.24272   0.51439   0.00000  Uiso   1.00
H780   H     0.18199   0.29155   0.97356   0.00000  Uiso   1.00
H781   H     0.13774   0.11431   0.90715   0.00000  Uiso   1.00
H782   H     0.22622   0.08489   0.61377   0.00000  Uiso   1.00
H783   H     0.19320   0.04333   0.59021   0.00000  Uiso   1.00
O784   O     0.16667   0.16667   0.75000   0.00000  Uiso   1.00
O785   O     0.15451   0.12637   0.65459   0.00000  Uiso   1.00
O786   O     0.12940   0.20391   0.84968   0.00000  Uiso   1.00
O787   O     0.20824   0.17759   0.64606   0.00000  Uiso   1.00
O788   O     0.17451   0.15880   0.84968   0.00000  Uiso   1.00
O789   O     0.17930   0.08019   0.78214   0.00000  Uiso   1.00
O790   O     0.14632   0.26085   0.77014   0.00000  Uiso   1.00
O791   O     0.07412   0.13291   0.73413   0.00000  Uiso   1.00
O792   O     0.26693   0.19272   0.71361   0.00000  Uiso   1.00
O793   O     0.07071   0.18878   0.78213   0.00000  Uiso   1.00
O794   O     0.25491   0.15226   0.77014   0.00000  Uiso   1.00
O795   O     0.13760   0.06944   0.73413   0.00000  Uiso   1.00
O796   O     0.20345   0.25620   0.71361   0.00000  Uiso   1.00
Zn797  Zn    0.19338   0.13994   0.78734   0.00000  Uiso   1.00
Zn798  Zn    0.13379   0.12458   0.71876   0.00000  Uiso   1.00
Zn799  Zn    0.21056   0.19775   0.70657   0.00000  Uiso   1.00
Zn800  Zn    0.12893   0.20439   0.78734   0.00000  Uiso   1.00
C801   C     0.38640   0.15929   0.75980   0.00000  Uiso   1.00
C802   C     0.50778   0.16870   0.55935   0.00000  Uiso   1.00
C803   C     0.53394   0.10165   0.56052   0.00000  Uiso   1.00
C804   C     0.61399   0.17411   0.74056   0.00000  Uiso   1.00
C805   C     0.48425   0.20027   0.91687   0.00000  Uiso   1.00
C806   C     0.65945   0.17964   0.73988   0.00000  Uiso   1.00
C807   C     0.34154   0.15479   0.76286   0.00000  Uiso   1.00
C808   C     0.51389   0.32255   0.73667   0.00000  Uiso   1.00
C809   C     0.48506   0.01154   0.76329   0.00000  Uiso   1.00
C810   C     0.48944   0.05582   0.76003   0.00000  Uiso   1.00
C811   C     0.50991   0.27783   0.74015   0.00000  Uiso   1.00
C812   C     0.50690   0.25836   0.96592   0.00000  Uiso   1.00
C813   C     0.51838   0.14790   0.62957   0.00000  Uiso   1.00
C814   C     0.48283   0.18545   0.87058   0.00000  Uiso   1.00
C815   C     0.52588   0.08889   0.51896   0.00000  Uiso   1.00
C816   C     0.52284   0.14073   0.58176   0.00000  Uiso   1.00
C817   C     0.49010   0.24406   0.92916   0.00000  Uiso   1.00
C818   C     0.55085   0.07111   0.58254   0.00000  Uiso   1.00
C819   C     0.64950   0.11759   0.78731   0.00000  Uiso   1.00
C820   C     0.48241   0.20342   0.58650   0.00000  Uiso   1.00
C821   C     0.43565   0.19637   0.58347   0.00000  Uiso   1.00
C822   C     0.41440   0.23583   0.60010   0.00000  Uiso   1.00
C823   C     0.51611   0.23032   0.99133   0.00000  Uiso   1.00
C824   C     0.48317   0.27639   0.90143   0.00000  Uiso   1.00
C825   C     0.35457   0.21536   0.71467   0.00000  Uiso   1.00
C826   C     0.35394   0.25632   0.74479   0.00000  Uiso   1.00
C827   C     0.38456   0.29190   0.72144   0.00000  Uiso   1.00
C828   C     0.50395   0.18711   0.98449   0.00000  Uiso   1.00
C829   C     0.49008   0.17173   0.94542   0.00000  Uiso   1.00
C830   C     0.50906   0.15841   0.51329   0.00000  Uiso   1.00
C831   C     0.51182   0.11623   0.99623   0.00000  Uiso   1.00
C832   C     0.49855   0.10123   0.95759   0.00000  Uiso   1.00
C833   C     0.48451   0.12808   0.93461   0.00000  Uiso   1.00
H834   H     0.54053   0.00412   0.71236   0.00000  Uiso   1.00
H835   H     0.58005   0.06072   0.55954   0.00000  Uiso   1.00
H836   H     0.33710   0.09962   0.79881   0.00000  Uiso   1.00
H837   H     0.62617   0.12832   0.81763   0.00000  Uiso   1.00
H838   H     0.63331   0.09560   0.76492   0.00000  Uiso   1.00
H839   H     0.41823   0.24701   0.63402   0.00000  Uiso   1.00
H840   H     0.42902   0.26094   0.57733   0.00000  Uiso   1.00
H841   H     0.37992   0.22902   0.60106   0.00000  Uiso   1.00
H842   H     0.43284   0.18752   0.54877   0.00000  Uiso   1.00
H843   H     0.41813   0.17039   0.60403   0.00000  Uiso   1.00
H844   H     0.48138   0.20540   0.62247   0.00000  Uiso   1.00
H845   H     0.45785   0.33071   0.78744   0.00000  Uiso   1.00
H846   H     0.49757   0.23499   0.57758   0.00000  Uiso   1.00
H847   H     0.48939   0.30877   0.91656   0.00000  Uiso   1.00
H848   H     0.50505   0.27432   0.86771   0.00000  Uiso   1.00
H849   H     0.44958   0.27145   0.89879   0.00000  Uiso   1.00
H850   H     0.41772   0.28411   0.71240   0.00000  Uiso   1.00
H851   H     0.37548   0.29771   0.69089   0.00000  Uiso   1.00
H852   H     0.38329   0.32097   0.74415   0.00000  Uiso   1.00
H853   H     0.65451   0.26524   0.75437   0.00000  Uiso   1.00
H854   H     0.36318   0.25199   0.77573   0.00000  Uiso   1.00
H855   H     0.38780   0.20818   0.70160   0.00000  Uiso   1.00
H856   H     0.49739   0.06830   0.94610   0.00000  Uiso   1.00
H857   H     0.34341   0.21954   0.68484   0.00000  Uiso   1.00
H858   H     0.53029   0.05732   0.50447   0.00000  Uiso   1.00
H859   H     0.53534   0.24272   0.51439   0.00000  Uiso   1.00
H860   H     0.51532   0.29155   0.97356   0.00000  Uiso   1.00
H861   H     0.47107   0.11431   0.90715   0.00000  Uiso   1.00
H862   H     0.55956   0.08489   0.61377   0.00000  Uiso   1.00
H863   H     0.52653   0.04333   0.59021   0.00000  Uiso   1.00
O864   O     0.50000   0.16667   0.75000   0.00000  Uiso   1.00
O865   O     0.48784   0.12637   0.65459   0.00000  Uiso   1.00
O866   O     0.46274   0.20391   0.84968   0.00000  Uiso   1.00
O867   O     0.54157   0.17759   0.64606   0.00000  Uiso   1.00
O868   O     0.50785   0.15880   0.84968   0.00000  Uiso   1.00
O869   O     0.51264   0.08019   0.78214   0.00000  Uiso   1.00
O870   O     0.47965   0.26085   0.77014   0.00000  Uiso   1.00
O871   O     0.40745   0.13291   0.73413   0.00000  Uiso   1.00
O872   O     0.60026   0.19272   0.71361   0.00000  Uiso   1.00
O873   O     0.40405   0.18878   0.78213   0.00000  Uiso   1.00
O874   O     0.58824   0.15226   0.77014   0.00000  Uiso   1.00
O875   O     0.47093   0.06944   0.73413   0.00000  Uiso   1.00
O876   O     0.53678   0.25620   0.71361   0.00000  Uiso   1.00
Zn877  Zn    0.52672   0.13994   0.78734   0.00000  Uiso   1.00
Zn878  Zn    0.46713   0.12458   0.71876   0.00000  Uiso   1.00
Zn879  Zn    0.54389   0.19775   0.70657   0.00000  Uiso   1.00
Zn880  Zn    0.46226   0.20439   0.78734   0.00000  Uiso   1.00
C881   C     0.71974   0.15929   0.75980   0.00000  Uiso   1.00
C882   C     0.84112   0.16870   0.55935   0.00000  Uiso   1.00
C883   C     0.86728   0.10165   0.56052   0.00000  Uiso   1.00
C884   C     0.94732   0.17411   0.74056   0.00000  Uiso   1.00
C885   C     0.81759   0.20027   0.91687   0.00000  Uiso   1.00
C886   C     0.99278   0.17964   0.73988   0.00000  Uiso   1.00
C887   C     0.67487   0.15479   0.76286   0.00000  Uiso   1.00
C888   C     0.84722   0.32255   0.73667   0.00000  Uiso   1.00
C889   C     0.81840   0.01154   0.76329   0.00000  Uiso   1.00
C890   C     0.82277   0.05582   0.76003   0.00000  Uiso   1.00
C891   C     0.84324   0.27783   0.74015   0.00000  Uiso   1.00
C892   C     0.84023   0.25836   0.96592   0.00000  Uiso   1.00
C893   C     0.85171   0.14790   0.62957   0.00000  Uiso   1.00
C894   C     0.81616   0.18545   0.87058   0.00000  Uiso   1.00
C895   C     0.85922   0.08889   0.51896   0.00000  Uiso   1.00
C896   C     0.85617   0.14073   0.58176   0.00000  Uiso   1.00
C897   C     0.82343   0.24406   0.92916   0.00000  Uiso   1.00
C898   C     0.88418   0.07111   0.58254   0.00000  Uiso   1.00
C899   C     0.98284   0.11759   0.78731   0.00000  Uiso   1.00
C900   C     0.81574   0.20342   0.58650   0.00000  Uiso   1.00
C901   C     0.76898   0.19637   0.58347   0.00000  Uiso   1.00
C902   C     0.74773   0.23583   0.60010   0.00000  Uiso   1.00
C903   C     0.84944   0.23032   0.99133   0.00000  Uiso   1.00
C904   C     0.81651   0.27639   0.90143   0.00000  Uiso   1.00
C905   C     0.68790   0.21536   0.71467   0.00000  Uiso   1.00
C906   C     0.68727   0.25632   0.74479   0.00000  Uiso   1.00
C907   C     0.71789   0.29190   0.72144   0.00000  Uiso   1.00
C908   C     0.83728   0.18711   0.98449   0.00000  Uiso   1.00
C909   C     0.82341   0.17173   0.94542   0.00000  Uiso   1.00
C910   C     0.84240   0.15841   0.51329   0.00000  Uiso   1.00
C911   C     0.84516   0.11623   0.99623   0.00000  Uiso   1.00
C912   C     0.83188   0.10123   0.95759   0.00000  Uiso   1.00
C913   C     0.81784   0.12808   0.93461   0.00000  Uiso   1.00
H914   H     0.87387   0.00412   0.71236   0.00000  Uiso   1.00
H915   H     0.91339   0.06072   0.55954   0.00000  Uiso   1.00
H916   H     0.67044   0.09962   0.79881   0.00000  Uiso   1.00
H917   H     0.95950   0.12832   0.81763   0.00000  Uiso   1.00
H918   H     0.96664   0.09560   0.76492   0.00000  Uiso   1.00
H919   H     0.75156   0.24701   0.63402   0.00000  Uiso   1.00
H920   H     0.76235   0.26094   0.57733   0.00000  Uiso   1.00
H921   H     0.71325   0.22902   0.60106   0.00000  Uiso   1.00
H922   H     0.76617   0.18752   0.54877   0.00000  Uiso   1.00
H923   H     0.75147   0.17039   0.60403   0.00000  Uiso   1.00
H924   H     0.81471   0.20540   0.62247   0.00000  Uiso   1.00
H925   H     0.79118   0.33071   0.78744   0.00000  Uiso   1.00
H926   H     0.83090   0.23499   0.57758   0.00000  Uiso   1.00
H927   H     0.82272   0.30877   0.91656   0.00000  Uiso   1.00
H928   H     0.83838   0.27432   0.86771   0.00000  Uiso   1.00
H929   H     0.78292   0.27145   0.89879   0.00000  Uiso   1.00
H930   H     0.75106   0.28411   0.71240   0.00000  Uiso   1.00
H931   H     0.70881   0.29771   0.69089   0.00000  Uiso   1.00
H932   H     0.71662   0.32097   0.74415   0.00000  Uiso   1.00
H933   H     0.98784   0.26524   0.75437   0.00000  Uiso   1.00
H934   H     0.69651   0.25199   0.77573   0.00000  Uiso   1.00
H935   H     0.72113   0.20818   0.70160   0.00000  Uiso   1.00
H936   H     0.83073   0.06830   0.94610   0.00000  Uiso   1.00
H937   H     0.67674   0.21954   0.68484   0.00000  Uiso   1.00
H938   H     0.86362   0.05732   0.50447   0.00000  Uiso   1.00
H939   H     0.86868   0.24272   0.51439   0.00000  Uiso   1.00
H940   H     0.84865   0.29155   0.97356   0.00000  Uiso   1.00
H941   H     0.80440   0.11431   0.90715   0.00000  Uiso   1.00
H942   H     0.89289   0.08489   0.61377   0.00000  Uiso   1.00
H943   H     0.85987   0.04333   0.59021   0.00000  Uiso   1.00
O944   O     0.83333   0.16667   0.75000   0.00000  Uiso   1.00
O945   O     0.82118   0.12637   0.65459   0.00000  Uiso   1.00
O946   O     0.79607   0.20391   0.84968   0.00000  Uiso   1.00
O947   O     0.87491   0.17759   0.64606   0.00000  Uiso   1.00
O948   O     0.84118   0.15880   0.84968   0.00000  Uiso   1.00
O949   O     0.84597   0.08019   0.78214   0.00000  Uiso   1.00
O950   O     0.81298   0.26085   0.77014   0.00000  Uiso   1.00
O951   O     0.74078   0.13291   0.73413   0.00000  Uiso   1.00
O952   O     0.93360   0.19272   0.71361   0.00000  Uiso   1.00
O953   O     0.73738   0.18878   0.78213   0.00000  Uiso   1.00
O954   O     0.92158   0.15226   0.77014   0.00000  Uiso   1.00
O955   O     0.80426   0.06944   0.73413   0.00000  Uiso   1.00
O956   O     0.87012   0.25620   0.71361   0.00000  Uiso   1.00
Zn957  Zn    0.86005   0.13994   0.78734   0.00000  Uiso   1.00
Zn958  Zn    0.80046   0.12458   0.71876   0.00000  Uiso   1.00
Zn959  Zn    0.87723   0.19775   0.70657   0.00000  Uiso   1.00
Zn960  Zn    0.79560   0.20439   0.78734   0.00000  Uiso   1.00
C961   C     0.05307   0.49262   0.75980   0.00000  Uiso   1.00
C962   C     0.17445   0.50203   0.55935   0.00000  Uiso   1.00
C963   C     0.20061   0.43498   0.56052   0.00000  Uiso   1.00
C964   C     0.28065   0.50744   0.74056   0.00000  Uiso   1.00
C965   C     0.15092   0.53360   0.91687   0.00000  Uiso   1.00
C966   C     0.32612   0.51298   0.73988   0.00000  Uiso   1.00
C967   C     0.00820   0.48812   0.76286   0.00000  Uiso   1.00
C968   C     0.18056   0.65589   0.73667   0.00000  Uiso   1.00
C969   C     0.15173   0.34487   0.76329   0.00000  Uiso   1.00
C970   C     0.15610   0.38915   0.76003   0.00000  Uiso   1.00
C971   C     0.17657   0.61116   0.74015   0.00000  Uiso   1.00
C972   C     0.17356   0.59169   0.96592   0.00000  Uiso   1.00
C973   C     0.18504   0.48123   0.62957   0.00000  Uiso   1.00
C974   C     0.14949   0.51879   0.87058   0.00000  Uiso   1.00
C975   C     0.19255   0.42223   0.51896   0.00000  Uiso   1.00
C976   C     0.18950   0.47407   0.58176   0.00000  Uiso   1.00
C977   C     0.15677   0.57739   0.92916   0.00000  Uiso   1.00
C978   C     0.21752   0.40444   0.58254   0.00000  Uiso   1.00
C979   C     0.31617   0.45092   0.78731   0.00000  Uiso   1.00
C980   C     0.14908   0.53675   0.58650   0.00000  Uiso   1.00
C981   C     0.10231   0.52971   0.58347   0.00000  Uiso   1.00
C982   C     0.08107   0.56916   0.60010   0.00000  Uiso   1.00
C983   C     0.18278   0.56365   0.99133   0.00000  Uiso   1.00
C984   C     0.14984   0.60972   0.90143   0.00000  Uiso   1.00
C985   C     0.02123   0.54869   0.71467   0.00000  Uiso   1.00
C986   C     0.02060   0.58965   0.74479   0.00000  Uiso   1.00
C987   C     0.05123   0.62524   0.72144   0.00000  Uiso   1.00
C988   C     0.17062   0.52044   0.98449   0.00000  Uiso   1.00
C989   C     0.15674   0.50506   0.94542   0.00000  Uiso   1.00
C990   C     0.17573   0.49174   0.51329   0.00000  Uiso   1.00
C991   C     0.17849   0.44956   0.99623   0.00000  Uiso   1.00
C992   C     0.16522   0.43456   0.95759   0.00000  Uiso   1.00
C993   C     0.15117   0.46141   0.93461   0.00000  Uiso   1.00
H994   H     0.20720   0.33745   0.71236   0.00000  Uiso   1.00
H995   H     0.24672   0.39405   0.55954   0.00000  Uiso   1.00
H996   H     0.00377   0.43295   0.79881   0.00000  Uiso   1.00
H997   H     0.29283   0.46165   0.81763   0.00000  Uiso   1.00
H998   H     0.29997   0.42893   0.76492   0.00000  Uiso   1.00
H999   H     0.08490   0.58034   0.63402   0.00000  Uiso   1.00
H1000  H     0.09568   0.59428   0.57733   0.00000  Uiso   1.00
H1001  H     0.04658   0.56236   0.60106   0.00000  Uiso   1.00
H1002  H     0.09951   0.52085   0.54877   0.00000  Uiso   1.00
H1003  H     0.08480   0.50372   0.60403   0.00000  Uiso   1.00
H1004  H     0.14804   0.53874   0.62247   0.00000  Uiso   1.00
H1005  H     0.12451   0.66404   0.78744   0.00000  Uiso   1.00
H1006  H     0.16423   0.56833   0.57758   0.00000  Uiso   1.00
H1007  H     0.15605   0.64210   0.91656   0.00000  Uiso   1.00
H1008  H     0.17172   0.60765   0.86771   0.00000  Uiso   1.00
H1009  H     0.11625   0.60479   0.89879   0.00000  Uiso   1.00
H1010  H     0.08439   0.61745   0.71240   0.00000  Uiso   1.00
H1011  H     0.04215   0.63104   0.69089   0.00000  Uiso   1.00
H1012  H     0.04995   0.65430   0.74415   0.00000  Uiso   1.00
H1013  H     0.32117   0.59857   0.75437   0.00000  Uiso   1.00
H1014  H     0.02985   0.58533   0.77573   0.00000  Uiso   1.00
H1015  H     0.05446   0.54151   0.70160   0.00000  Uiso   1.00
H1016  H     0.16406   0.40164   0.94610   0.00000  Uiso   1.00
H1017  H     0.01008   0.55287   0.68484   0.00000  Uiso   1.00
H1018  H     0.19695   0.39066   0.50447   0.00000  Uiso   1.00
H1019  H     0.20201   0.57605   0.51439   0.00000  Uiso   1.00
H1020  H     0.18199   0.62488   0.97356   0.00000  Uiso   1.00
H1021  H     0.13774   0.44764   0.90715   0.00000  Uiso   1.00
H1022  H     0.22622   0.41822   0.61377   0.00000  Uiso   1.00
H1023  H     0.19320   0.37667   0.59021   0.00000  Uiso   1.00
O1024  O     0.16667   0.50000   0.75000   0.00000  Uiso   1.00
O1025  O     0.15451   0.45970   0.65459   0.00000  Uiso   1.00
O1026  O     0.12940   0.53724   0.84968   0.00000  Uiso   1.00
O1027  O     0.20824   0.51092   0.64606   0.00000  Uiso   1.00
O1028  O     0.17451   0.49213   0.84968   0.00000  Uiso   1.00
O1029  O     0.17930   0.41352   0.78214   0.00000  Uiso   1.00
O1030  O     0.14632   0.59418   0.77014   0.00000  Uiso   1.00
O1031  O     0.07412   0.46625   0.73413   0.00000  Uiso   1.00
O1032  O     0.26693   0.52605   0.71361   0.00000  Uiso   1.00
O1033  O     0.07071   0.52211   0.78213   0.00000  Uiso   1.00
O1034  O     0.25491   0.48559   0.77014   0.00000  Uiso   1.00
O1035  O     0.13760   0.40277   0.73413   0.00000  Uiso   1.00
O1036  O     0.20345   0.58953   0.71361   0.00000  Uiso   1.00
Zn1037 Zn    0.19338   0.47327   0.78734   0.00000  Uiso   1.00
Zn1038 Zn    0.13379   0.45791   0.71876   0.00000  Uiso   1.00
Zn1039 Zn    0.21056   0.53109   0.70657   0.00000  Uiso   1.00
Zn1040 Zn    0.12893   0.53773   0.78734   0.00000  Uiso   1.00
C1041  C     0.38640   0.49262   0.75980   0.00000  Uiso   1.00
C1042  C     0.50778   0.50203   0.55935   0.00000  Uiso   1.00
C1043  C     0.53394   0.43498   0.56052   0.00000  Uiso   1.00
C1044  C     0.61399   0.50744   0.74056   0.00000  Uiso   1.00
C1045  C     0.48425   0.53360   0.91687   0.00000  Uiso   1.00
C1046  C     0.65945   0.51298   0.73988   0.00000  Uiso   1.00
C1047  C     0.34154   0.48812   0.76286   0.00000  Uiso   1.00
C1048  C     0.51389   0.65589   0.73667   0.00000  Uiso   1.00
C1049  C     0.48506   0.34487   0.76329   0.00000  Uiso   1.00
C1050  C     0.48944   0.38915   0.76003   0.00000  Uiso   1.00
C1051  C     0.50991   0.61116   0.74015   0.00000  Uiso   1.00
C1052  C     0.50690   0.59169   0.96592   0.00000  Uiso   1.00
C1053  C     0.51838   0.48123   0.62957   0.00000  Uiso   1.00
C1054  C     0.48283   0.51879   0.87058   0.00000  Uiso   1.00
C1055  C     0.52588   0.42223   0.51896   0.00000  Uiso   1.00
C1056  C     0.52284   0.47407   0.58176   0.00000  Uiso   1.00
C1057  C     0.49010   0.57739   0.92916   0.00000  Uiso   1.00
C1058  C     0.55085   0.40444   0.58254   0.00000  Uiso   1.00
C1059  C     0.64950   0.45092   0.78731   0.00000  Uiso   1.00
C1060  C     0.48241   0.53675   0.58650   0.00000  Uiso   1.00
C1061  C     0.43565   0.52971   0.58347   0.00000  Uiso   1.00
C1062  C     0.41440   0.56916   0.60010   0.00000  Uiso   1.00
C1063  C     0.51611   0.56365   0.99133   0.00000  Uiso   1.00
C1064  C     0.48317   0.60972   0.90143   0.00000  Uiso   1.00
C1065  C     0.35457   0.54869   0.71467   0.00000  Uiso   1.00
C1066  C     0.35394   0.58965   0.74479   0.00000  Uiso   1.00
C1067  C     0.38456   0.62524   0.72144   0.00000  Uiso   1.00
C1068  C     0.50395   0.52044   0.98449   0.00000  Uiso   1.00
C1069  C     0.49008   0.50506   0.94542   0.00000  Uiso   1.00
C1070  C     0.50906   0.49174   0.51329   0.00000  Uiso   1.00
C1071  C     0.51182   0.44956   0.99623   0.00000  Uiso   1.00
C1072  C     0.49855   0.43456   0.95759   0.00000  Uiso   1.00
C1073  C     0.48451   0.46141   0.93461   0.00000  Uiso   1.00
H1074  H     0.54053   0.33745   0.71236   0.00000  Uiso   1.00
H1075  H     0.58005   0.39405   0.55954   0.00000  Uiso   1.00
H1076  H     0.33710   0.43295   0.79881   0.00000  Uiso   1.00
H1077  H     0.62617   0.46165   0.81763   0.00000  Uiso   1.00
H1078  H     0.63331   0.42893   0.76492   0.00000  Uiso   1.00
H1079  H     0.41823   0.58034   0.63402   0.00000  Uiso   1.00
H1080  H     0.42902   0.59428   0.57733   0.00000  Uiso   1.00
H1081  H     0.37992   0.56236   0.60106   0.00000  Uiso   1.00
H1082  H     0.43284   0.52085   0.54877   0.00000  Uiso   1.00
H1083  H     0.41813   0.50372   0.60403   0.00000  Uiso   1.00
H1084  H     0.48138   0.53874   0.62247   0.00000  Uiso   1.00
H1085  H     0.45785   0.66404   0.78744   0.00000  Uiso   1.00
H1086  H     0.49757   0.56833   0.57758   0.00000  Uiso   1.00
H1087  H     0.48939   0.64210   0.91656   0.00000  Uiso   1.00
H1088  H     0.50505   0.60765   0.86771   0.00000  Uiso   1.00
H1089  H     0.44958   0.60479   0.89879   0.00000  Uiso   1.00
H1090  H     0.41772   0.61745   0.71240   0.00000  Uiso   1.00
H1091  H     0.37548   0.63104   0.69089   0.00000  Uiso   1.00
H1092  H     0.38329   0.65430   0.74415   0.00000  Uiso   1.00
H1093  H     0.65451   0.59857   0.75437   0.00000  Uiso   1.00
H1094  H     0.36318   0.58533   0.77573   0.00000  Uiso   1.00
H1095  H     0.38780   0.54151   0.70160   0.00000  Uiso   1.00
H1096  H     0.49739   0.40164   0.94610   0.00000  Uiso   1.00
H1097  H     0.34341   0.55287   0.68484   0.00000  Uiso   1.00
H1098  H     0.53029   0.39066   0.50447   0.00000  Uiso   1.00
H1099  H     0.53534   0.57605   0.51439   0.00000  Uiso   1.00
H1100  H     0.51532   0.62488   0.97356   0.00000  Uiso   1.00
H1101  H     0.47107   0.44764   0.90715   0.00000  Uiso   1.00
H1102  H     0.55956   0.41822   0.61377   0.00000  Uiso   1.00
H1103  H     0.52653   0.37667   0.59021   0.00000  Uiso   1.00
O1104  O     0.50000   0.50000   0.75000   0.00000  Uiso   1.00
O1105  O     0.48784   0.45970   0.65459   0.00000  Uiso   1.00
O1106  O     0.46274   0.53724   0.84968   0.00000  Uiso   1.00
O1107  O     0.54157   0.51092   0.64606   0.00000  Uiso   1.00
O1108  O     0.50785   0.49213   0.84968   0.00000  Uiso   1.00
O1109  O     0.51264   0.41352   0.78214   0.00000  Uiso   1.00
O1110  O     0.47965   0.59418   0.77014   0.00000  Uiso   1.00
O1111  O     0.40745   0.46625   0.73413   0.00000  Uiso   1.00
O1112  O     0.60026   0.52605   0.71361   0.00000  Uiso   1.00
O1113  O     0.40405   0.52211   0.78213   0.00000  Uiso   1.00
O1114  O     0.58824   0.48559   0.77014   0.00000  Uiso   1.00
O1115  O     0.47093   0.40277   0.73413   0.00000  Uiso   1.00
O1116  O     0.53678   0.58953   0.71361   0.00000  Uiso   1.00
Zn1117 Zn    0.52672   0.47327   0.78734   0.00000  Uiso   1.00
Zn1118 Zn    0.46713   0.45791   0.71876   0.00000  Uiso   1.00
Zn1119 Zn    0.54389   0.53109   0.70657   0.00000  Uiso   1.00
Zn1120 Zn    0.46226   0.53773   0.78734   0.00000  Uiso   1.00
C1121  C     0.71974   0.49262   0.75980   0.00000  Uiso   1.00
C1122  C     0.84112   0.50203   0.55935   0.00000  Uiso   1.00
C1123  C     0.86728   0.43498   0.56052   0.00000  Uiso   1.00
C1124  C     0.94732   0.50744   0.74056   0.00000  Uiso   1.00
C1125  C     0.81759   0.53360   0.91687   0.00000  Uiso   1.00
C1126  C     0.99278   0.51298   0.73988   0.00000  Uiso   1.00
C1127  C     0.67487   0.48812   0.76286   0.00000  Uiso   1.00
C1128  C     0.84722   0.65589   0.73667   0.00000  Uiso   1.00
C1129  C     0.81840   0.34487   0.76329   0.00000  Uiso   1.00
C1130  C     0.82277   0.38915   0.76003   0.00000  Uiso   1.00
C1131  C     0.84324   0.61116   0.74015   0.00000  Uiso   1.00
C1132  C     0.84023   0.59169   0.96592   0.00000  Uiso   1.00
C1133  C     0.85171   0.48123   0.62957   0.00000  Uiso   1.00
C1134  C     0.81616   0.51879   0.87058   0.00000  Uiso   1.00
C1135  C     0.85922   0.42223   0.51896   0.00000  Uiso   1.00
C1136  C     0.85617   0.47407   0.58176   0.00000  Uiso   1.00
C1137  C     0.82343   0.57739   0.92916   0.00000  Uiso   1.00
C1138  C     0.88418   0.40444   0.58254   0.00000  Uiso   1.00
C1139  C     0.98284   0.45092   0.78731   0.00000  Uiso   1.00
C1140  C     0.81574   0.53675   0.58650   0.00000  Uiso   1.00
C1141  C     0.76898   0.52971   0.58347   0.00000  Uiso   1.00
C1142  C     0.74773   0.56916   0.60010   0.00000  Uiso   1.00
C1143  C     0.84944   0.56365   0.99133   0.00000  Uiso   1.00
C1144  C     0.81651   0.60972   0.90143   0.00000  Uiso   1.00
C1145  C     0.68790   0.54869   0.71467   0.00000  Uiso   1.00
C1146  C     0.68727   0.58965   0.74479   0.00000  Uiso   1.00
C1147  C     0.71789   0.62524   0.72144   0.00000  Uiso   1.00
C1148  C     0.83728   0.52044   0.98449   0.00000  Uiso   1.00
C1149  C     0.82341   0.50506   0.94542   0.00000  Uiso   1.00
C1150  C     0.84240   0.49174   0.51329   0.00000  Uiso   1.00
C1151  C     0.84516   0.44956   0.99623   0.00000  Uiso   1.00
C1152  C     0.83188   0.43456   0.95759   0.00000  Uiso   1.00
C1153  C     0.81784   0.46141   0.93461   0.00000  Uiso   1.00
H1154  H     0.87387   0.33745   0.71236   0.00000  Uiso   1.00
H1155  H     0.91339   0.39405   0.55954   0.00000  Uiso   1.00
H1156  H     0.67044   0.43295   0.79881   0.00000  Uiso   1.00
H1157  H     0.95950   0.46165   0.81763   0.00000  Uiso   1.00
H1158  H     0.96664   0.42893   0.76492   0.00000  Uiso   1.00
H1159  H     0.75156   0.58034   0.63402   0.00000  Uiso   1.00
H1160  H     0.76235   0.59428   0.57733   0.00000  Uiso   1.00
H1161  H     0.71325   0.56236   0.60106   0.00000  Uiso   1.00
H1162  H     0.76617   0.52085   0.54877   0.00000  Uiso   1.00
H1163  H     0.75147   0.50372   0.60403   0.00000  Uiso   1.00
H1164  H     0.81471   0.53874   0.62247   0.00000  Uiso   1.00
H1165  H     0.79118   0.66404   0.78744   0.00000  Uiso   1.00
H1166  H     0.83090   0.56833   0.57758   0.00000  Uiso   1.00
H1167  H     0.82272   0.64210   0.91656   0.00000  Uiso   1.00
H1168  H     0.83838   0.60765   0.86771   0.00000  Uiso   1.00
H1169  H     0.78292   0.60479   0.89879   0.00000  Uiso   1.00
H1170  H     0.75106   0.61745   0.71240   0.00000  Uiso   1.00
H1171  H     0.70881   0.63104   0.69089   0.00000  Uiso   1.00
H1172  H     0.71662   0.65430   0.74415   0.00000  Uiso   1.00
H1173  H     0.98784   0.59857   0.75437   0.00000  Uiso   1.00
H1174  H     0.69651   0.58533   0.77573   0.00000  Uiso   1.00
H1175  H     0.72113   0.54151   0.70160   0.00000  Uiso   1.00
H1176  H     0.83073   0.40164   0.94610   0.00000  Uiso   1.00
H1177  H     0.67674   0.55287   0.68484   0.00000  Uiso   1.00
H1178  H     0.86362   0.39066   0.50447   0.00000  Uiso   1.00
H1179  H     0.86868   0.57605   0.51439   0.00000  Uiso   1.00
H1180  H     0.84865   0.62488   0.97356   0.00000  Uiso   1.00
H1181  H     0.80440   0.44764   0.90715   0.00000  Uiso   1.00
H1182  H     0.89289   0.41822   0.61377   0.00000  Uiso   1.00
H1183  H     0.85987   0.37667   0.59021   0.00000  Uiso   1.00
O1184  O     0.83333   0.50000   0.75000   0.00000  Uiso   1.00
O1185  O     0.82118   0.45970   0.65459   0.00000  Uiso   1.00
O1186  O     0.79607   0.53724   0.84968   0.00000  Uiso   1.00
O1187  O     0.87491   0.51092   0.64606   0.00000  Uiso   1.00
O1188  O     0.84118   0.49213   0.84968   0.00000  Uiso   1.00
O1189  O     0.84597   0.41352   0.78214   0.00000  Uiso   1.00
O1190  O     0.81298   0.59418   0.77014   0.00000  Uiso   1.00
O1191  O     0.74078   0.46625   0.73413   0.00000  Uiso   1.00
O1192  O     0.93360   0.52605   0.71361   0.00000  Uiso   1.00
O1193  O     0.73738   0.52211   0.78213   0.00000  Uiso   1.00
O1194  O     0.92158   0.48559   0.77014   0.00000  Uiso   1.00
O1195  O     0.80426   0.40277   0.73413   0.00000  Uiso   1.00
O1196  O     0.87012   0.58953   0.71361   0.00000  Uiso   1.00
Zn1197 Zn    0.86005   0.47327   0.78734   0.00000  Uiso   1.00
Zn1198 Zn    0.80046   0.45791   0.71876   0.00000  Uiso   1.00
Zn1199 Zn    0.87723   0.53109   0.70657   0.00000  Uiso   1.00
Zn1200 Zn    0.79560   0.53773   0.78734   0.00000  Uiso   1.00
C1201  C     0.05307   0.82596   0.75980   0.00000  Uiso   1.00
C1202  C     0.17445   0.83536   0.55935   0.00000  Uiso   1.00
C1203  C     0.20061   0.76832   0.56052   0.00000  Uiso   1.00
C1204  C     0.28065   0.84078   0.74056   0.00000  Uiso   1.00
C1205  C     0.15092   0.86694   0.91687   0.00000  Uiso   1.00
C1206  C     0.32612   0.84631   0.73988   0.00000  Uiso   1.00
C1207  C     0.00820   0.82146   0.76286   0.00000  Uiso   1.00
C1208  C     0.18056   0.98922   0.73667   0.00000  Uiso   1.00
C1209  C     0.15173   0.67820   0.76329   0.00000  Uiso   1.00
C1210  C     0.15610   0.72248   0.76003   0.00000  Uiso   1.00
C1211  C     0.17657   0.94450   0.74015   0.00000  Uiso   1.00
C1212  C     0.17356   0.92502   0.96592   0.00000  Uiso   1.00
C1213  C     0.18504   0.81456   0.62957   0.00000  Uiso   1.00
C1214  C     0.14949   0.85212   0.87058   0.00000  Uiso   1.00
C1215  C     0.19255   0.75556   0.51896   0.00000  Uiso   1.00
C1216  C     0.18950   0.80740   0.58176   0.00000  Uiso   1.00
C1217  C     0.15677   0.91072   0.92916   0.00000  Uiso   1.00
C1218  C     0.21752   0.73777   0.58254   0.00000  Uiso   1.00
C1219  C     0.31617   0.78425   0.78731   0.00000  Uiso   1.00
C1220  C     0.14908   0.87009   0.58650   0.00000  Uiso   1.00
C1221  C     0.10231   0.86304   0.58347   0.00000  Uiso   1.00
C1222  C     0.08107   0.90250   0.60010   0.00000  Uiso   1.00
C1223  C     0.18278   0.89698   0.99133   0.00000  Uiso   1.00
C1224  C     0.14984   0.94305   0.90143   0.00000  Uiso   1.00
C1225  C     0.02123   0.88202   0.71467   0.00000  Uiso   1.00
C1226  C     0.02060   0.92299   0.74479   0.00000  Uiso   1.00
C1227  C     0.05123   0.95857   0.72144   0.00000  Uiso   1.00
C1228  C     0.17062   0.85377   0.98449   0.00000  Uiso   1.00
C1229  C     0.15674   0.83839   0.94542   0.00000  Uiso   1.00
C1230  C     0.17573   0.82508   0.51329   0.00000  Uiso   1.00
C1231  C     0.17849   0.78289   0.99623   0.00000  Uiso   1.00
C1232  C     0.16522   0.76790   0.95759   0.00000  Uiso   1.00
C1233  C     0.15117   0.79475   0.93461   0.00000  Uiso   1.00
H1234  H     0.20720   0.67079   0.71236   0.00000  Uiso   1.00
H1235  H     0.24672   0.72739   0.55954   0.00000  Uiso   1.00
H1236  H     0.00377   0.76628   0.79881   0.00000  Uiso   1.00
H1237  H     0.29283   0.79498   0.81763   0.00000  Uiso   1.00
H1238  H     0.29997   0.76227   0.76492   0.00000  Uiso   1.00
H1239  H     0.08490   0.91368   0.63402   0.00000  Uiso   1.00
H1240  H     0.09568   0.92761   0.57733   0.00000  Uiso   1.00
H1241  H     0.04658   0.89569   0.60106   0.00000  Uiso   1.00
H1242  H     0.09951   0.85419   0.54877   0.00000  Uiso   1.00
H1243  H     0.08480   0.83706   0.60403   0.00000  Uiso   1.00
H1244  H     0.14804   0.87207   0.62247   0.00000  Uiso   1.00
H1245  H     0.12451   0.99737   0.78744   0.00000  Uiso   1.00
H1246  H     0.16423   0.90166   0.57758   0.00000  Uiso   1.00
H1247  H     0.15605   0.97544   0.91656   0.00000  Uiso   1.00
H1248  H     0.17172   0.94099   0.86771   0.00000  Uiso   1.00
H1249  H     0.11625   0.93812   0.89879   0.00000  Uiso   1.00
H1250  H     0.08439   0.95078   0.71240   0.00000  Uiso   1.00
H1251  H     0.04215   0.96437   0.69089   0.00000  Uiso   1.00
H1252  H     0.04995   0.98764   0.74415   0.00000  Uiso   1.00
H1253  H     0.32117   0.93191   0.75437   0.00000  Uiso   1.00
H1254  H     0.02985   0.91866   0.77573   0.00000  Uiso   1.00
H1255  H     0.05446   0.87484   0.70160   0.00000  Uiso   1.00
H1256  H     0.16406   0.73497   0.94610   0.00000  Uiso   1.00
H1257  H     0.01008   0.88621   0.68484   0.00000  Uiso   1.00
H1258  H     0.19695   0.72399   0.50447   0.00000  Uiso   1.00
H1259  H     0.20201   0.90939   0.51439   0.00000  Uiso   1.00
H1260  H     0.18199   0.95821   0.97356   0.00000  Uiso   1.00
H1261  H     0.13774   0.78097   0.90715   0.00000  Uiso   1.00
H1262  H     0.22622   0.75156   0.61377   0.00000  Uiso   1.00
H1263  H     0.19320   0.71000   0.59021   0.00000  Uiso   1.00
O1264  O     0.16667   0.83333   0.75000   0.00000  Uiso   1.00
O1265  O     0.15451   0.79304   0.65459   0.00000  Uiso   1.00
O1266  O     0.12940   0.87058   0.84968   0.00000  Uiso   1.00
O1267  O     0.20824   0.84425   0.64606   0.00000  Uiso   1.00
O1268  O     0.17451   0.82546   0.84968   0.00000  Uiso   1.00
O1269  O     0.17930   0.74686   0.78214   0.00000  Uiso   1.00
O1270  O     0.14632   0.92751   0.77014   0.00000  Uiso   1.00
O1271  O     0.07412   0.79958   0.73413   0.00000  Uiso   1.00
O1272  O     0.26693   0.85939   0.71361   0.00000  Uiso   1.00
O1273  O     0.07071   0.85544   0.78213   0.00000  Uiso   1.00
O1274  O     0.25491   0.81892   0.77014   0.00000  Uiso   1.00
O1275  O     0.13760   0.73610   0.73413   0.00000  Uiso   1.00
O1276  O     0.20345   0.92286   0.71361   0.00000  Uiso   1.00
Zn1277 Zn    0.19338   0.80661   0.78734   0.00000  Uiso   1.00
Zn1278 Zn    0.13379   0.79124   0.71876   0.00000  Uiso   1.00
Zn1279 Zn    0.21056   0.86442   0.70657   0.00000  Uiso   1.00
Zn1280 Zn    0.12893   0.87106   0.78734   0.00000  Uiso   1.00
C1281  C     0.38640   0.82596   0.75980   0.00000  Uiso   1.00
C1282  C     0.50778   0.83536   0.55935   0.00000  Uiso   1.00
C1283  C     0.53394   0.76832   0.56052   0.00000  Uiso   1.00
C1284  C     0.61399   0.84078   0.74056   0.00000  Uiso   1.00
C1285  C     0.48425   0.86694   0.91687   0.00000  Uiso   1.00
C1286  C     0.65945   0.84631   0.73988   0.00000  Uiso   1.00
C1287  C     0.34154   0.82146   0.76286   0.00000  Uiso   1.00
C1288  C     0.51389   0.98922   0.73667   0.00000  Uiso   1.00
C1289  C     0.48506   0.67820   0.76329   0.00000  Uiso   1.00
C1290  C     0.48944   0.72248   0.76003   0.00000  Uiso   1.00
C1291  C     0.50991   0.94450   0.74015   0.00000  Uiso   1.00
C1292  C     0.50690   0.92502   0.96592   0.00000  Uiso   1.00
C1293  C     0.51838   0.81456   0.62957   0.00000  Uiso   1.00
C1294  C     0.48283   0.85212   0.87058   0.00000  Uiso   1.00
C1295  C     0.52588   0.75556   0.51896   0.00000  Uiso   1.00
C1296  C     0.52284   0.80740   0.58176   0.00000  Uiso   1.00
C1297  C     0.49010   0.91072   0.92916   0.00000  Uiso   1.00
C1298  C     0.55085   0.73777   0.58254   0.00000  Uiso   1.00
C1299  C     0.64950   0.78425   0.78731   0.00000  Uiso   1.00
C1300  C     0.48241   0.87009   0.58650   0.00000  Uiso   1.00
C1301  C     0.43565   0.86304   0.58347   0.00000  Uiso   1.00
C1302  C     0.41440   0.90250   0.60010   0.00000  Uiso   1.00
C1303  C     0.51611   0.89698   0.99133   0.00000  Uiso   1.00
C1304  C     0.48317   0.94305   0.90143   0.00000  Uiso   1.00
C1305  C     0.35457   0.88202   0.71467   0.00000  Uiso   1.00
C1306  C     0.35394   0.92299   0.74479   0.00000  Uiso   1.00
C1307  C     0.38456   0.95857   0.72144   0.00000  Uiso   1.00
C1308  C     0.50395   0.85377   0.98449   0.00000  Uiso   1.00
C1309  C     0.49008   0.83839   0.94542   0.00000  Uiso   1.00
C1310  C     0.50906   0.82508   0.51329   0.00000  Uiso   1.00
C1311  C     0.51182   0.78289   0.99623   0.00000  Uiso   1.00
C1312  C     0.49855   0.76790   0.95759   0.00000  Uiso   1.00
C1313  C     0.48451   0.79475   0.93461   0.00000  Uiso   1.00
H1314  H     0.54053   0.67079   0.71236   0.00000  Uiso   1.00
H1315  H     0.58005   0.72739   0.55954   0.00000  Uiso   1.00
H1316  H     0.33710   0.76628   0.79881   0.00000  Uiso   1.00
H1317  H     0.62617   0.79498   0.81763   0.00000  Uiso   1.00
H1318  H     0.63331   0.76227   0.76492   0.00000  Uiso   1.00
H1319  H     0.41823   0.91368   0.63402   0.00000  Uiso   1.00
H1320  H     0.42902   0.92761   0.57733   0.00000  Uiso   1.00
H1321  H     0.37992   0.89569   0.60106   0.00000  Uiso   1.00
H1322  H     0.43284   0.85419   0.54877   0.00000  Uiso   1.00
H1323  H     0.41813   0.83706   0.60403   0.00000  Uiso   1.00
H1324  H     0.48138   0.87207   0.62247   0.00000  Uiso   1.00
H1325  H     0.45785   0.99737   0.78744   0.00000  Uiso   1.00
H1326  H     0.49757   0.90166   0.57758   0.00000  Uiso   1.00
H1327  H     0.48939   0.97544   0.91656   0.00000  Uiso   1.00
H1328  H     0.50505   0.94099   0.86771   0.00000  Uiso   1.00
H1329  H     0.44958   0.93812   0.89879   0.00000  Uiso   1.00
H1330  H     0.41772   0.95078   0.71240   0.00000  Uiso   1.00
H1331  H     0.37548   0.96437   0.69089   0.00000  Uiso   1.00
H1332  H     0.38329   0.98764   0.74415   0.00000  Uiso   1.00
H1333  H     0.65451   0.93191   0.75437   0.00000  Uiso   1.00
H1334  H     0.36318   0.91866   0.77573   0.00000  Uiso   1.00
H1335  H     0.38780   0.87484   0.70160   0.00000  Uiso   1.00
H1336  H     0.49739   0.73497   0.94610   0.00000  Uiso   1.00
H1337  H     0.34341   0.88621   0.68484   0.00000  Uiso   1.00
H1338  H     0.53029   0.72399   0.50447   0.00000  Uiso   1.00
H1339  H     0.53534   0.90939   0.51439   0.00000  Uiso   1.00
H1340  H     0.51532   0.95821   0.97356   0.00000  Uiso   1.00
H1341  H     0.47107   0.78097   0.90715   0.00000  Uiso   1.00
H1342  H     0.55956   0.75156   0.61377   0.00000  Uiso   1.00
H1343  H     0.52653   0.71000   0.59021   0.00000  Uiso   1.00
O1344  O     0.50000   0.83333   0.75000   0.00000  Uiso   1.00
O1345  O     0.48784   0.79304   0.65459   0.00000  Uiso   1.00
O1346  O     0.46274   0.87058   0.84968   0.00000  Uiso   1.00
O1347  O     0.54157   0.84425   0.64606   0.00000  Uiso   1.00
O1348  O     0.50785   0.82546   0.84968   0.00000  Uiso   1.00
O1349  O     0.51264   0.74686   0.78214   0.00000  Uiso   1.00
O1350  O     0.47965   0.92751   0.77014   0.00000  Uiso   1.00
O1351  O     0.40745   0.79958   0.73413   0.00000  Uiso   1.00
O1352  O     0.60026   0.85939   0.71361   0.00000  Uiso   1.00
O1353  O     0.40405   0.85544   0.78213   0.00000  Uiso   1.00
O1354  O     0.58824   0.81892   0.77014   0.00000  Uiso   1.00
O1355  O     0.47093   0.73610   0.73413   0.00000  Uiso   1.00
O1356  O     0.53678   0.92286   0.71361   0.00000  Uiso   1.00
Zn1357 Zn    0.52672   0.80661   0.78734   0.00000  Uiso   1.00
Zn1358 Zn    0.46713   0.79124   0.71876   0.00000  Uiso   1.00
Zn1359 Zn    0.54389   0.86442   0.70657   0.00000  Uiso   1.00
Zn1360 Zn    0.46226   0.87106   0.78734   0.00000  Uiso   1.00
C1361  C     0.71974   0.82596   0.75980   0.00000  Uiso   1.00
C1362  C     0.84112   0.83536   0.55935   0.00000  Uiso   1.00
C1363  C     0.86728   0.76832   0.56052   0.00000  Uiso   1.00
C1364  C     0.94732   0.84078   0.74056   0.00000  Uiso   1.00
C1365  C     0.81759   0.86694   0.91687   0.00000  Uiso   1.00
C1366  C     0.99278   0.84631   0.73988   0.00000  Uiso   1.00
C1367  C     0.67487   0.82146   0.76286   0.00000  Uiso   1.00
C1368  C     0.84722   0.98922   0.73667   0.00000  Uiso   1.00
C1369  C     0.81840   0.67820   0.76329   0.00000  Uiso   1.00
C1370  C     0.82277   0.72248   0.76003   0.00000  Uiso   1.00
C1371  C     0.84324   0.94450   0.74015   0.00000  Uiso   1.00
C1372  C     0.84023   0.92502   0.96592   0.00000  Uiso   1.00
C1373  C     0.85171   0.81456   0.62957   0.00000  Uiso   1.00
C1374  C     0.81616   0.85212   0.87058   0.00000  Uiso   1.00
C1375  C     0.85922   0.75556   0.51896   0.00000  Uiso   1.00
C1376  C     0.85617   0.80740   0.58176   0.00000  Uiso   1.00
C1377  C     0.82343   0.91072   0.92916   0.00000  Uiso   1.00
C1378  C     0.88418   0.73777   0.58254   0.00000  Uiso   1.00
C1379  C     0.98284   0.78425   0.78731   0.00000  Uiso   1.00
C1380  C     0.81574   0.87009   0.58650   0.00000  Uiso   1.00
C1381  C     0.76898   0.86304   0.58347   0.00000  Uiso   1.00
C1382  C     0.74773   0.90250   0.60010   0.00000  Uiso   1.00
C1383  C     0.84944   0.89698   0.99133   0.00000  Uiso   1.00
C1384  C     0.81651   0.94305   0.90143   0.00000  Uiso   1.00
C1385  C     0.68790   0.88202   0.71467   0.00000  Uiso   1.00
C1386  C     0.68727   0.92299   0.74479   0.00000  Uiso   1.00
C1387  C     0.71789   0.95857   0.72144   0.00000  Uiso   1.00
C1388  C     0.83728   0.85377   0.98449   0.00000  Uiso   1.00
C1389  C     0.82341   0.83839   0.94542   0.00000  Uiso   1.00
C1390  C     0.84240   0.82508   0.51329   0.00000  Uiso   1.00
C1391  C     0.84516   0.78289   0.99623   0.00000  Uiso   1.00
C1392  C     0.83188   0.76790   0.95759   0.00000  Uiso   1.00
C1393  C     0.81784   0.79475   0.93461   0.00000  Uiso   1.00
H1394  H     0.87387   0.67079   0.71236   0.00000  Uiso   1.00
H1395  H     0.91339   0.72739   0.55954   0.00000  Uiso   1.00
H1396  H     0.67044   0.76628   0.79881   0.00000  Uiso   1.00
H1397  H     0.95950   0.79498   0.81763   0.00000  Uiso   1.00
H1398  H     0.96664   0.76227   0.76492   0.00000  Uiso   1.00
H1399  H     0.75156   0.91368   0.63402   0.00000  Uiso   1.00
H1400  H     0.76235   0.92761   0.57733   0.00000  Uiso   1.00
H1401  H     0.71325   0.89569   0.60106   0.00000  Uiso   1.00
H1402  H     0.76617   0.85419   0.54877   0.00000  Uiso   1.00
H1403  H     0.75147   0.83706   0.60403   0.00000  Uiso   1.00
H1404  H     0.81471   0.87207   0.62247   0.00000  Uiso   1.00
H1405  H     0.79118   0.99737   0.78744   0.00000  Uiso   1.00
H1406  H     0.83090   0.90166   0.57758   0.00000  Uiso   1.00
H1407  H     0.82272   0.97544   0.91656   0.00000  Uiso   1.00
H1408  H     0.83838   0.94099   0.86771   0.00000  Uiso   1.00
H1409  H     0.78292   0.93812   0.89879   0.00000  Uiso   1.00
H1410  H     0.75106   0.95078   0.71240   0.00000  Uiso   1.00
H1411  H     0.70881   0.96437   0.69089   0.00000  Uiso   1.00
H1412  H     0.71662   0.98764   0.74415   0.00000  Uiso   1.00
H1413  H     0.98784   0.93191   0.75437   0.00000  Uiso   1.00
H1414  H     0.69651   0.91866   0.77573   0.00000  Uiso   1.00
H1415  H     0.72113   0.87484   0.70160   0.00000  Uiso   1.00
H1416  H     0.83073   0.73497   0.94610   0.00000  Uiso   1.00
H1417  H     0.67674   0.88621   0.68484   0.00000  Uiso   1.00
H1418  H     0.86362   0.72399   0.50447   0.00000  Uiso   1.00
H1419  H     0.86868   0.90939   0.51439   0.00000  Uiso   1.00
H1420  H     0.84865   0.95821   0.97356   0.00000  Uiso   1.00
H1421  H     0.80440   0.78097   0.90715   0.00000  Uiso   1.00
H1422  H     0.89289   0.75156   0.61377   0.00000  Uiso   1.00
H1423  H     0.85987   0.71000   0.59021   0.00000  Uiso   1.00
O1424  O     0.83333   0.83333   0.75000   0.00000  Uiso   1.00
O1425  O     0.82118   0.79304   0.65459   0.00000  Uiso   1.00
O1426  O     0.79607   0.87058   0.84968   0.00000  Uiso   1.00
O1427  O     0.87491   0.84425   0.64606   0.00000  Uiso   1.00
O1428  O     0.84118   0.82546   0.84968   0.00000  Uiso   1.00
O1429  O     0.84597   0.74686   0.78214   0.00000  Uiso   1.00
O1430  O     0.81298   0.92751   0.77014   0.00000  Uiso   1.00
O1431  O     0.74078   0.79958   0.73413   0.00000  Uiso   1.00
O1432  O     0.93360   0.85939   0.71361   0.00000  Uiso   1.00
O1433  O     0.73738   0.85544   0.78213   0.00000  Uiso   1.00
O1434  O     0.92158   0.81892   0.77014   0.00000  Uiso   1.00
O1435  O     0.80426   0.73610   0.73413   0.00000  Uiso   1.00
O1436  O     0.87012   0.92286   0.71361   0.00000  Uiso   1.00
Zn1437 Zn    0.86005   0.80661   0.78734   0.00000  Uiso   1.00
Zn1438 Zn    0.80046   0.79124   0.71876   0.00000  Uiso   1.00
Zn1439 Zn    0.87723   0.86442   0.70657   0.00000  Uiso   1.00
Zn1440 Zn    0.79560   0.87106   0.78734   0.00000  Uiso   1.00
loop_
_geom_bond_atom_site_label_1
_geom_bond_atom_site_label_2
_geom_bond_distance
_geom_bond_site_symmetry_2
_ccdc_geom_bond_type
C1     O71     1.260   .     A
C1     C7      1.434   .     S
C1     O73     1.270   .     A
C2     C16     1.420   .     A
C2     C20     1.543   .     S
C2     C30     1.426   .     A
C3     C18     1.510   .     S
C3     C15     1.391   .     A
C3     C16     1.415   .     A
C4     O74     1.276   .     A
C4     C6      1.467   .     S
C4     O72     1.291   .     A
C5     C17     1.424   .     A
C5     C29     1.420   .     A
C5     C14     1.476   .     S
C6     C87     1.365   .     S
C6     C105    1.526   .     S
C7     C166    1.365   1_455 S
C7     C179    1.518   1_455 S
C8     C11     1.450   .     S
C8     C249    1.332   .     S
C8     H274    1.088   .     S
C9     C10     1.434   .     S
C9     C488    1.332   1_545 S
C9     H525    1.086   1_545 S
C10    O75     1.277   .     A
C10    O69     1.278   .     A
C11    O70     1.278   .     A
C11    O76     1.278   .     A
C12    C23     1.385   .     A
C12    C17     1.396   .     A
C12    H60     1.084   .     S
C13    O65     1.267   .     A
C13    O67     1.276   .     A
C13    C16     1.453   .     S
C14    O66     1.283   .     A
C14    O68     1.287   .     A
C15    H58     1.085   .     S
C15    C751    1.392   1_554 S
C17    C24     1.511   .     S
C18    H63     1.111   .     S
C18    H62     1.109   .     S
C18    H35     1.111   .     S
C19    H37     1.110   .     S
C19    H38     1.111   .     S
C19    C87     1.518   .     S
C19    H116    1.112   .     S
C20    H44     1.107   .     S
C20    C21     1.539   .     S
C20    H46     1.100   .     S
C21    H43     1.112   .     S
C21    C22     1.526   .     S
C21    H42     1.109   .     S
C22    H41     1.110   .     S
C22    H40     1.111   .     S
C22    H39     1.108   .     S
C23    C28     1.404   .     A
C23    H779    1.078   .     S
C24    H48     1.110   .     S
C24    H49     1.110   .     S
C24    H47     1.111   .     S
C25    H57     1.111   .     S
C25    C26     1.535   .     S
C25    H55     1.111   .     S
C25    C166    1.526   1_455 S
C26    C27     1.526   .     S
C26    H54     1.111   .     S
C26    H213    1.112   1_455 S
C27    H50     1.111   .     S
C27    H51     1.111   .     S
C27    H52     1.110   .     S
C28    C29     1.418   .     A
C28    C750    1.421   .     S
C29    C33     1.411   .     A
C30    C748    1.421   1_554 S
C30    C751    1.417   1_554 S
C31    C32     1.393   .     A
C31    C750    1.417   .     S
C31    C735    1.392   .     S
C32    C33     1.386   .     A
C32    H56     1.084   .     S
C33    H61     1.081   .     S
H34    C488    1.088   1_545 S
H36    C179    1.112   1_455 S
H45    C249    1.086   .     S
H53    C106    1.112   .     S
H59    C743    1.078   1_554 S
O64    Zn77    1.965   .     S
O64    Zn80    1.943   .     S
O64    Zn78    1.935   .     S
O64    Zn79    1.945   .     S
O65    Zn78    1.943   .     S
O66    Zn80    1.948   .     S
O67    Zn79    1.938   .     S
O68    Zn77    1.937   .     S
O69    Zn77    1.919   .     S
O70    Zn80    1.927   .     S
O71    Zn78    1.943   .     S
O72    Zn79    1.948   .     S
O73    Zn80    1.939   .     S
O74    Zn77    1.938   .     S
O75    Zn78    1.934   .     S
O76    Zn79    1.926   .     S
C81    O151    1.260   .     A
C81    C87     1.434   .     S
C81    O153    1.270   .     A
C82    C96     1.420   .     A
C82    C100    1.543   .     S
C82    C110    1.426   .     A
C83    C98     1.510   .     S
C83    C95     1.391   .     A
C83    C96     1.415   .     A
C84    O154    1.276   .     A
C84    C86     1.467   .     S
C84    O152    1.291   .     A
C85    C97     1.424   .     A
C85    C109    1.420   .     A
C85    C94     1.476   .     S
C86    C167    1.365   .     S
C86    C185    1.526   .     S
C88    C91     1.450   .     S
C88    C329    1.332   .     S
C88    H354    1.088   .     S
C89    C90     1.434   .     S
C89    C568    1.332   1_545 S
C89    H605    1.086   1_545 S
C90    O155    1.277   .     A
C90    O149    1.278   .     A
C91    O150    1.278   .     A
C91    O156    1.278   .     A
C92    C103    1.385   .     A
C92    C97     1.396   .     A
C92    H140    1.084   .     S
C93    O145    1.267   .     A
C93    O147    1.276   .     A
C93    C96     1.453   .     S
C94    O146    1.283   .     A
C94    O148    1.287   .     A
C95    H138    1.085   .     S
C95    C831    1.392   1_554 S
C97    C104    1.511   .     S
C98    H143    1.111   .     S
C98    H142    1.109   .     S
C98    H115    1.111   .     S
C99    H117    1.110   .     S
C99    H118    1.111   .     S
C99    C167    1.518   .     S
C99    H196    1.112   .     S
C100   H124    1.107   .     S
C100   C101    1.539   .     S
C100   H126    1.100   .     S
C101   H123    1.112   .     S
C101   C102    1.526   .     S
C101   H122    1.109   .     S
C102   H121    1.110   .     S
C102   H120    1.111   .     S
C102   H119    1.108   .     S
C103   C108    1.404   .     A
C103   H859    1.078   .     S
C104   H128    1.110   .     S
C104   H129    1.110   .     S
C104   H127    1.111   .     S
C105   H137    1.111   .     S
C105   C106    1.535   .     S
C105   H135    1.111   .     S
C106   C107    1.526   .     S
C106   H134    1.111   .     S
C107   H130    1.111   .     S
C107   H131    1.111   .     S
C107   H132    1.110   .     S
C108   C109    1.418   .     A
C108   C830    1.421   .     S
C109   C113    1.411   .     A
C110   C828    1.421   1_554 S
C110   C831    1.417   1_554 S
C111   C112    1.393   .     A
C111   C830    1.417   .     S
C111   C815    1.392   .     S
C112   C113    1.386   .     A
C112   H136    1.084   .     S
C113   H141    1.081   .     S
H114   C568    1.088   1_545 S
H125   C329    1.086   .     S
H133   C186    1.112   .     S
H139   C823    1.078   1_554 S
O144   Zn157   1.965   .     S
O144   Zn160   1.943   .     S
O144   Zn158   1.935   .     S
O144   Zn159   1.945   .     S
O145   Zn158   1.943   .     S
O146   Zn160   1.948   .     S
O147   Zn159   1.938   .     S
O148   Zn157   1.937   .     S
O149   Zn157   1.919   .     S
O150   Zn160   1.927   .     S
O151   Zn158   1.943   .     S
O152   Zn159   1.948   .     S
O153   Zn160   1.939   .     S
O154   Zn157   1.938   .     S
O155   Zn158   1.934   .     S
O156   Zn159   1.926   .     S
C161   O231    1.260   .     A
C161   C167    1.434   .     S
C161   O233    1.270   .     A
C162   C176    1.420   .     A
C162   C180    1.543   .     S
C162   C190    1.426   .     A
C163   C178    1.510   .     S
C163   C175    1.391   .     A
C163   C176    1.415   .     A
C164   O234    1.276   .     A
C164   C166    1.467   .     S
C164   O232    1.291   .     A
C165   C177    1.424   .     A
C165   C189    1.420   .     A
C165   C174    1.476   .     S
C166   C7      1.365   1_655 S
C166   C25     1.526   1_655 S
C168   C171    1.450   .     S
C168   C409    1.332   .     S
C168   H434    1.088   .     S
C169   C170    1.434   .     S
C169   C648    1.332   1_545 S
C169   H685    1.086   1_545 S
C170   O235    1.277   .     A
C170   O229    1.278   .     A
C171   O230    1.278   .     A
C171   O236    1.278   .     A
C172   C183    1.385   .     A
C172   C177    1.396   .     A
C172   H220    1.084   .     S
C173   O225    1.267   .     A
C173   O227    1.276   .     A
C173   C176    1.453   .     S
C174   O226    1.283   .     A
C174   O228    1.287   .     A
C175   H218    1.085   .     S
C175   C911    1.392   1_554 S
C177   C184    1.511   .     S
C178   H223    1.111   .     S
C178   H222    1.109   .     S
C178   H195    1.111   .     S
C179   H197    1.110   .     S
C179   H198    1.111   .     S
C179   C7      1.518   1_655 S
C179   H36     1.112   1_655 S
C180   H204    1.107   .     S
C180   C181    1.539   .     S
C180   H206    1.100   .     S
C181   H203    1.112   .     S
C181   C182    1.526   .     S
C181   H202    1.109   .     S
C182   H201    1.110   .     S
C182   H200    1.111   .     S
C182   H199    1.108   .     S
C183   C188    1.404   .     A
C183   H939    1.078   .     S
C184   H208    1.110   .     S
C184   H209    1.110   .     S
C184   H207    1.111   .     S
C185   H217    1.111   .     S
C185   C186    1.535   .     S
C185   H215    1.111   .     S
C186   C187    1.526   .     S
C186   H214    1.111   .     S
C187   H210    1.111   .     S
C187   H211    1.111   .     S
C187   H212    1.110   .     S
C188   C189    1.418   .     A
C188   C910    1.421   .     S
C189   C193    1.411   .     A
C190   C908    1.421   1_554 S
C190   C911    1.417   1_554 S
C191   C192    1.393   .     A
C191   C910    1.417   .     S
C191   C895    1.392   .     S
C192   C193    1.386   .     A
C192   H216    1.084   .     S
C193   H221    1.081   .     S
H194   C648    1.088   1_545 S
H205   C409    1.086   .     S
H213   C26     1.112   1_655 S
H219   C903    1.078   1_554 S
O224   Zn237   1.965   .     S
O224   Zn240   1.943   .     S
O224   Zn238   1.935   .     S
O224   Zn239   1.945   .     S
O225   Zn238   1.943   .     S
O226   Zn240   1.948   .     S
O227   Zn239   1.938   .     S
O228   Zn237   1.937   .     S
O229   Zn237   1.919   .     S
O230   Zn240   1.927   .     S
O231   Zn238   1.943   .     S
O232   Zn239   1.948   .     S
O233   Zn240   1.939   .     S
O234   Zn237   1.938   .     S
O235   Zn238   1.934   .     S
O236   Zn239   1.926   .     S
C241   O311    1.260   .     A
C241   C247    1.434   .     S
C241   O313    1.270   .     A
C242   C256    1.420   .     A
C242   C260    1.543   .     S
C242   C270    1.426   .     A
C243   C258    1.510   .     S
C243   C255    1.391   .     A
C243   C256    1.415   .     A
C244   O314    1.276   .     A
C244   C246    1.467   .     S
C244   O312    1.291   .     A
C245   C257    1.424   .     A
C245   C269    1.420   .     A
C245   C254    1.476   .     S
C246   C327    1.365   .     S
C246   C345    1.526   .     S
C247   C406    1.365   1_455 S
C247   C419    1.518   1_455 S
C248   C251    1.450   .     S
C248   C489    1.332   .     S
C248   H514    1.088   .     S
C249   C250    1.434   .     S
C250   O315    1.277   .     A
C250   O309    1.278   .     A
C251   O310    1.278   .     A
C251   O316    1.278   .     A
C252   C263    1.385   .     A
C252   C257    1.396   .     A
C252   H300    1.084   .     S
C253   O305    1.267   .     A
C253   O307    1.276   .     A
C253   C256    1.453   .     S
C254   O306    1.283   .     A
C254   O308    1.287   .     A
C255   H298    1.085   .     S
C255   C991    1.392   1_554 S
C257   C264    1.511   .     S
C258   H303    1.111   .     S
C258   H302    1.109   .     S
C258   H275    1.111   .     S
C259   H277    1.110   .     S
C259   H278    1.111   .     S
C259   C327    1.518   .     S
C259   H356    1.112   .     S
C260   H284    1.107   .     S
C260   C261    1.539   .     S
C260   H286    1.100   .     S
C261   H283    1.112   .     S
C261   C262    1.526   .     S
C261   H282    1.109   .     S
C262   H281    1.110   .     S
C262   H280    1.111   .     S
C262   H279    1.108   .     S
C263   C268    1.404   .     A
C263   H1019   1.078   .     S
C264   H288    1.110   .     S
C264   H289    1.110   .     S
C264   H287    1.111   .     S
C265   H297    1.111   .     S
C265   C266    1.535   .     S
C265   H295    1.111   .     S
C265   C406    1.526   1_455 S
C266   C267    1.526   .     S
C266   H294    1.111   .     S
C266   H453    1.112   1_455 S
C267   H290    1.111   .     S
C267   H291    1.111   .     S
C267   H292    1.110   .     S
C268   C269    1.418   .     A
C268   C990    1.421   .     S
C269   C273    1.411   .     A
C270   C988    1.421   1_554 S
C270   C991    1.417   1_554 S
C271   C272    1.393   .     A
C271   C990    1.417   .     S
C271   C975    1.392   .     S
C272   C273    1.386   .     A
C272   H296    1.084   .     S
C273   H301    1.081   .     S
H276   C419    1.112   1_455 S
H285   C489    1.086   .     S
H293   C346    1.112   .     S
H299   C983    1.078   1_554 S
O304   Zn317   1.965   .     S
O304   Zn320   1.943   .     S
O304   Zn318   1.935   .     S
O304   Zn319   1.945   .     S
O305   Zn318   1.943   .     S
O306   Zn320   1.948   .     S
O307   Zn319   1.938   .     S
O308   Zn317   1.937   .     S
O309   Zn317   1.919   .     S
O310   Zn320   1.927   .     S
O311   Zn318   1.943   .     S
O312   Zn319   1.948   .     S
O313   Zn320   1.939   .     S
O314   Zn317   1.938   .     S
O315   Zn318   1.934   .     S
O316   Zn319   1.926   .     S
C321   O391    1.260   .     A
C321   C327    1.434   .     S
C321   O393    1.270   .     A
C322   C336    1.420   .     A
C322   C340    1.543   .     S
C322   C350    1.426   .     A
C323   C338    1.510   .     S
C323   C335    1.391   .     A
C323   C336    1.415   .     A
C324   O394    1.276   .     A
C324   C326    1.467   .     S
C324   O392    1.291   .     A
C325   C337    1.424   .     A
C325   C349    1.420   .     A
C325   C334    1.476   .     S
C326   C407    1.365   .     S
C326   C425    1.526   .     S
C328   C331    1.450   .     S
C328   C569    1.332   .     S
C328   H594    1.088   .     S
C329   C330    1.434   .     S
C330   O395    1.277   .     A
C330   O389    1.278   .     A
C331   O390    1.278   .     A
C331   O396    1.278   .     A
C332   C343    1.385   .     A
C332   C337    1.396   .     A
C332   H380    1.084   .     S
C333   O385    1.267   .     A
C333   O387    1.276   .     A
C333   C336    1.453   .     S
C334   O386    1.283   .     A
C334   O388    1.287   .     A
C335   H378    1.085   .     S
C335   C1071   1.392   1_554 S
C337   C344    1.511   .     S
C338   H383    1.111   .     S
C338   H382    1.109   .     S
C338   H355    1.111   .     S
C339   H357    1.110   .     S
C339   H358    1.111   .     S
C339   C407    1.518   .     S
C339   H436    1.112   .     S
C340   H364    1.107   .     S
C340   C341    1.539   .     S
C340   H366    1.100   .     S
C341   H363    1.112   .     S
C341   C342    1.526   .     S
C341   H362    1.109   .     S
C342   H361    1.110   .     S
C342   H360    1.111   .     S
C342   H359    1.108   .     S
C343   C348    1.404   .     A
C343   H1099   1.078   .     S
C344   H368    1.110   .     S
C344   H369    1.110   .     S
C344   H367    1.111   .     S
C345   H377    1.111   .     S
C345   C346    1.535   .     S
C345   H375    1.111   .     S
C346   C347    1.526   .     S
C346   H374    1.111   .     S
C347   H370    1.111   .     S
C347   H371    1.111   .     S
C347   H372    1.110   .     S
C348   C349    1.418   .     A
C348   C1070   1.421   .     S
C349   C353    1.411   .     A
C350   C1068   1.421   1_554 S
C350   C1071   1.417   1_554 S
C351   C352    1.393   .     A
C351   C1070   1.417   .     S
C351   C1055   1.392   .     S
C352   C353    1.386   .     A
C352   H376    1.084   .     S
C353   H381    1.081   .     S
H365   C569    1.086   .     S
H373   C426    1.112   .     S
H379   C1063   1.078   1_554 S
O384   Zn397   1.965   .     S
O384   Zn400   1.943   .     S
O384   Zn398   1.935   .     S
O384   Zn399   1.945   .     S
O385   Zn398   1.943   .     S
O386   Zn400   1.948   .     S
O387   Zn399   1.938   .     S
O388   Zn397   1.937   .     S
O389   Zn397   1.919   .     S
O390   Zn400   1.927   .     S
O391   Zn398   1.943   .     S
O392   Zn399   1.948   .     S
O393   Zn400   1.939   .     S
O394   Zn397   1.938   .     S
O395   Zn398   1.934   .     S
O396   Zn399   1.926   .     S
C401   O471    1.260   .     A
C401   C407    1.434   .     S
C401   O473    1.270   .     A
C402   C416    1.420   .     A
C402   C420    1.543   .     S
C402   C430    1.426   .     A
C403   C418    1.510   .     S
C403   C415    1.391   .     A
C403   C416    1.415   .     A
C404   O474    1.276   .     A
C404   C406    1.467   .     S
C404   O472    1.291   .     A
C405   C417    1.424   .     A
C405   C429    1.420   .     A
C405   C414    1.476   .     S
C406   C247    1.365   1_655 S
C406   C265    1.526   1_655 S
C408   C411    1.450   .     S
C408   C649    1.332   .     S
C408   H674    1.088   .     S
C409   C410    1.434   .     S
C410   O475    1.277   .     A
C410   O469    1.278   .     A
C411   O470    1.278   .     A
C411   O476    1.278   .     A
C412   C423    1.385   .     A
C412   C417    1.396   .     A
C412   H460    1.084   .     S
C413   O465    1.267   .     A
C413   O467    1.276   .     A
C413   C416    1.453   .     S
C414   O466    1.283   .     A
C414   O468    1.287   .     A
C415   H458    1.085   .     S
C415   C1151   1.392   1_554 S
C417   C424    1.511   .     S
C418   H463    1.111   .     S
C418   H462    1.109   .     S
C418   H435    1.111   .     S
C419   H437    1.110   .     S
C419   H438    1.111   .     S
C419   C247    1.518   1_655 S
C419   H276    1.112   1_655 S
C420   H444    1.107   .     S
C420   C421    1.539   .     S
C420   H446    1.100   .     S
C421   H443    1.112   .     S
C421   C422    1.526   .     S
C421   H442    1.109   .     S
C422   H441    1.110   .     S
C422   H440    1.111   .     S
C422   H439    1.108   .     S
C423   C428    1.404   .     A
C423   H1179   1.078   .     S
C424   H448    1.110   .     S
C424   H449    1.110   .     S
C424   H447    1.111   .     S
C425   H457    1.111   .     S
C425   C426    1.535   .     S
C425   H455    1.111   .     S
C426   C427    1.526   .     S
C426   H454    1.111   .     S
C427   H450    1.111   .     S
C427   H451    1.111   .     S
C427   H452    1.110   .     S
C428   C429    1.418   .     A
C428   C1150   1.421   .     S
C429   C433    1.411   .     A
C430   C1148   1.421   1_554 S
C430   C1151   1.417   1_554 S
C431   C432    1.393   .     A
C431   C1150   1.417   .     S
C431   C1135   1.392   .     S
C432   C433    1.386   .     A
C432   H456    1.084   .     S
C433   H461    1.081   .     S
H445   C649    1.086   .     S
H453   C266    1.112   1_655 S
H459   C1143   1.078   1_554 S
O464   Zn477   1.965   .     S
O464   Zn480   1.943   .     S
O464   Zn478   1.935   .     S
O464   Zn479   1.945   .     S
O465   Zn478   1.943   .     S
O466   Zn480   1.948   .     S
O467   Zn479   1.938   .     S
O468   Zn477   1.937   .     S
O469   Zn477   1.919   .     S
O470   Zn480   1.927   .     S
O471   Zn478   1.943   .     S
O472   Zn479   1.948   .     S
O473   Zn480   1.939   .     S
O474   Zn477   1.938   .     S
O475   Zn478   1.934   .     S
O476   Zn479   1.926   .     S
C481   O551    1.260   .     A
C481   C487    1.434   .     S
C481   O553    1.270   .     A
C482   C496    1.420   .     A
C482   C500    1.543   .     S
C482   C510    1.426   .     A
C483   C498    1.510   .     S
C483   C495    1.391   .     A
C483   C496    1.415   .     A
C484   O554    1.276   .     A
C484   C486    1.467   .     S
C484   O552    1.291   .     A
C485   C497    1.424   .     A
C485   C509    1.420   .     A
C485   C494    1.476   .     S
C486   C567    1.365   .     S
C486   C585    1.526   .     S
C487   C646    1.365   1_455 S
C487   C659    1.518   1_455 S
C488   C491    1.450   .     S
C488   C9      1.332   1_565 S
C488   H34     1.088   1_565 S
C489   C490    1.434   .     S
C490   O555    1.277   .     A
C490   O549    1.278   .     A
C491   O550    1.278   .     A
C491   O556    1.278   .     A
C492   C503    1.385   .     A
C492   C497    1.396   .     A
C492   H540    1.084   .     S
C493   O545    1.267   .     A
C493   O547    1.276   .     A
C493   C496    1.453   .     S
C494   O546    1.283   .     A
C494   O548    1.287   .     A
C495   H538    1.085   .     S
C495   C1231   1.392   1_554 S
C497   C504    1.511   .     S
C498   H543    1.111   .     S
C498   H542    1.109   .     S
C498   H515    1.111   .     S
C499   H517    1.110   .     S
C499   H518    1.111   .     S
C499   C567    1.518   .     S
C499   H596    1.112   .     S
C500   H524    1.107   .     S
C500   C501    1.539   .     S
C500   H526    1.100   .     S
C501   H523    1.112   .     S
C501   C502    1.526   .     S
C501   H522    1.109   .     S
C502   H521    1.110   .     S
C502   H520    1.111   .     S
C502   H519    1.108   .     S
C503   C508    1.404   .     A
C503   H1259   1.078   .     S
C504   H528    1.110   .     S
C504   H529    1.110   .     S
C504   H527    1.111   .     S
C505   H537    1.111   .     S
C505   C506    1.535   .     S
C505   H535    1.111   .     S
C505   C646    1.526   1_455 S
C506   C507    1.526   .     S
C506   H534    1.111   .     S
C506   H693    1.112   1_455 S
C507   H530    1.111   .     S
C507   H531    1.111   .     S
C507   H532    1.110   .     S
C508   C509    1.418   .     A
C508   C1230   1.421   .     S
C509   C513    1.411   .     A
C510   C1228   1.421   1_554 S
C510   C1231   1.417   1_554 S
C511   C512    1.393   .     A
C511   C1230   1.417   .     S
C511   C1215   1.392   .     S
C512   C513    1.386   .     A
C512   H536    1.084   .     S
C513   H541    1.081   .     S
H516   C659    1.112   1_455 S
H525   C9      1.086   1_565 S
H533   C586    1.112   .     S
H539   C1223   1.078   1_554 S
O544   Zn557   1.965   .     S
O544   Zn560   1.943   .     S
O544   Zn558   1.935   .     S
O544   Zn559   1.945   .     S
O545   Zn558   1.943   .     S
O546   Zn560   1.948   .     S
O547   Zn559   1.938   .     S
O548   Zn557   1.937   .     S
O549   Zn557   1.919   .     S
O550   Zn560   1.927   .     S
O551   Zn558   1.943   .     S
O552   Zn559   1.948   .     S
O553   Zn560   1.939   .     S
O554   Zn557   1.938   .     S
O555   Zn558   1.934   .     S
O556   Zn559   1.926   .     S
C561   O631    1.260   .     A
C561   C567    1.434   .     S
C561   O633    1.270   .     A
C562   C576    1.420   .     A
C562   C580    1.543   .     S
C562   C590    1.426   .     A
C563   C578    1.510   .     S
C563   C575    1.391   .     A
C563   C576    1.415   .     A
C564   O634    1.276   .     A
C564   C566    1.467   .     S
C564   O632    1.291   .     A
C565   C577    1.424   .     A
C565   C589    1.420   .     A
C565   C574    1.476   .     S
C566   C647    1.365   .     S
C566   C665    1.526   .     S
C568   C571    1.450   .     S
C568   C89     1.332   1_565 S
C568   H114    1.088   1_565 S
C569   C570    1.434   .     S
C570   O635    1.277   .     A
C570   O629    1.278   .     A
C571   O630    1.278   .     A
C571   O636    1.278   .     A
C572   C583    1.385   .     A
C572   C577    1.396   .     A
C572   H620    1.084   .     S
C573   O625    1.267   .     A
C573   O627    1.276   .     A
C573   C576    1.453   .     S
C574   O626    1.283   .     A
C574   O628    1.287   .     A
C575   H618    1.085   .     S
C575   C1311   1.392   1_554 S
C577   C584    1.511   .     S
C578   H623    1.111   .     S
C578   H622    1.109   .     S
C578   H595    1.111   .     S
C579   H597    1.110   .     S
C579   H598    1.111   .     S
C579   C647    1.518   .     S
C579   H676    1.112   .     S
C580   H604    1.107   .     S
C580   C581    1.539   .     S
C580   H606    1.100   .     S
C581   H603    1.112   .     S
C581   C582    1.526   .     S
C581   H602    1.109   .     S
C582   H601    1.110   .     S
C582   H600    1.111   .     S
C582   H599    1.108   .     S
C583   C588    1.404   .     A
C583   H1339   1.078   .     S
C584   H608    1.110   .     S
C584   H609    1.110   .     S
C584   H607    1.111   .     S
C585   H617    1.111   .     S
C585   C586    1.535   .     S
C585   H615    1.111   .     S
C586   C587    1.526   .     S
C586   H614    1.111   .     S
C587   H610    1.111   .     S
C587   H611    1.111   .     S
C587   H612    1.110   .     S
C588   C589    1.418   .     A
C588   C1310   1.421   .     S
C589   C593    1.411   .     A
C590   C1308   1.421   1_554 S
C590   C1311   1.417   1_554 S
C591   C592    1.393   .     A
C591   C1310   1.417   .     S
C591   C1295   1.392   .     S
C592   C593    1.386   .     A
C592   H616    1.084   .     S
C593   H621    1.081   .     S
H605   C89     1.086   1_565 S
H613   C666    1.112   .     S
H619   C1303   1.078   1_554 S
O624   Zn637   1.965   .     S
O624   Zn640   1.943   .     S
O624   Zn638   1.935   .     S
O624   Zn639   1.945   .     S
O625   Zn638   1.943   .     S
O626   Zn640   1.948   .     S
O627   Zn639   1.938   .     S
O628   Zn637   1.937   .     S
O629   Zn637   1.919   .     S
O630   Zn640   1.927   .     S
O631   Zn638   1.943   .     S
O632   Zn639   1.948   .     S
O633   Zn640   1.939   .     S
O634   Zn637   1.938   .     S
O635   Zn638   1.934   .     S
O636   Zn639   1.926   .     S
C641   O711    1.260   .     A
C641   C647    1.434   .     S
C641   O713    1.270   .     A
C642   C656    1.420   .     A
C642   C660    1.543   .     S
C642   C670    1.426   .     A
C643   C658    1.510   .     S
C643   C655    1.391   .     A
C643   C656    1.415   .     A
C644   O714    1.276   .     A
C644   C646    1.467   .     S
C644   O712    1.291   .     A
C645   C657    1.424   .     A
C645   C669    1.420   .     A
C645   C654    1.476   .     S
C646   C487    1.365   1_655 S
C646   C505    1.526   1_655 S
C648   C651    1.450   .     S
C648   C169    1.332   1_565 S
C648   H194    1.088   1_565 S
C649   C650    1.434   .     S
C650   O715    1.277   .     A
C650   O709    1.278   .     A
C651   O710    1.278   .     A
C651   O716    1.278   .     A
C652   C663    1.385   .     A
C652   C657    1.396   .     A
C652   H700    1.084   .     S
C653   O705    1.267   .     A
C653   O707    1.276   .     A
C653   C656    1.453   .     S
C654   O706    1.283   .     A
C654   O708    1.287   .     A
C655   H698    1.085   .     S
C655   C1391   1.392   1_554 S
C657   C664    1.511   .     S
C658   H703    1.111   .     S
C658   H702    1.109   .     S
C658   H675    1.111   .     S
C659   H677    1.110   .     S
C659   H678    1.111   .     S
C659   C487    1.518   1_655 S
C659   H516    1.112   1_655 S
C660   H684    1.107   .     S
C660   C661    1.539   .     S
C660   H686    1.100   .     S
C661   H683    1.112   .     S
C661   C662    1.526   .     S
C661   H682    1.109   .     S
C662   H681    1.110   .     S
C662   H680    1.111   .     S
C662   H679    1.108   .     S
C663   C668    1.404   .     A
C663   H1419   1.078   .     S
C664   H688    1.110   .     S
C664   H689    1.110   .     S
C664   H687    1.111   .     S
C665   H697    1.111   .     S
C665   C666    1.535   .     S
C665   H695    1.111   .     S
C666   C667    1.526   .     S
C666   H694    1.111   .     S
C667   H690    1.111   .     S
C667   H691    1.111   .     S
C667   H692    1.110   .     S
C668   C669    1.418   .     A
C668   C1390   1.421   .     S
C669   C673    1.411   .     A
C670   C1388   1.421   1_554 S
C670   C1391   1.417   1_554 S
C671   C672    1.393   .     A
C671   C1390   1.417   .     S
C671   C1375   1.392   .     S
C672   C673    1.386   .     A
C672   H696    1.084   .     S
C673   H701    1.081   .     S
H685   C169    1.086   1_565 S
H693   C506    1.112   1_655 S
H699   C1383   1.078   1_554 S
O704   Zn717   1.965   .     S
O704   Zn720   1.943   .     S
O704   Zn718   1.935   .     S
O704   Zn719   1.945   .     S
O705   Zn718   1.943   .     S
O706   Zn720   1.948   .     S
O707   Zn719   1.938   .     S
O708   Zn717   1.937   .     S
O709   Zn717   1.919   .     S
O710   Zn720   1.927   .     S
O711   Zn718   1.943   .     S
O712   Zn719   1.948   .     S
O713   Zn720   1.939   .     S
O714   Zn717   1.938   .     S
O715   Zn718   1.934   .     S
O716   Zn719   1.926   .     S
C721   O791    1.260   .     A
C721   C727    1.434   .     S
C721   O793    1.270   .     A
C722   C736    1.420   .     A
C722   C740    1.543   .     S
C722   C750    1.426   .     A
C723   C738    1.510   .     S
C723   C735    1.391   .     A
C723   C736    1.415   .     A
C724   O794    1.276   .     A
C724   C726    1.467   .     S
C724   O792    1.291   .     A
C725   C737    1.424   .     A
C725   C749    1.420   .     A
C725   C734    1.476   .     S
C726   C807    1.365   .     S
C726   C825    1.526   .     S
C727   C886    1.365   1_455 S
C727   C899    1.518   1_455 S
C728   C731    1.450   .     S
C728   C969    1.332   .     S
C728   H994    1.088   .     S
C729   C730    1.434   .     S
C729   C1208   1.332   1_545 S
C729   H1245   1.086   1_545 S
C730   O795    1.277   .     A
C730   O789    1.278   .     A
C731   O790    1.278   .     A
C731   O796    1.278   .     A
C732   C743    1.385   .     A
C732   C737    1.396   .     A
C732   H780    1.084   .     S
C733   O785    1.267   .     A
C733   O787    1.276   .     A
C733   C736    1.453   .     S
C734   O786    1.283   .     A
C734   O788    1.287   .     A
C735   H778    1.085   .     S
C737   C744    1.511   .     S
C738   H783    1.111   .     S
C738   H782    1.109   .     S
C738   H755    1.111   .     S
C739   H757    1.110   .     S
C739   H758    1.111   .     S
C739   C807    1.518   .     S
C739   H836    1.112   .     S
C740   H764    1.107   .     S
C740   C741    1.539   .     S
C740   H766    1.100   .     S
C741   H763    1.112   .     S
C741   C742    1.526   .     S
C741   H762    1.109   .     S
C742   H761    1.110   .     S
C742   H760    1.111   .     S
C742   H759    1.108   .     S
C743   C748    1.404   .     A
C743   H59     1.078   1_556 S
C744   H768    1.110   .     S
C744   H769    1.110   .     S
C744   H767    1.111   .     S
C745   H777    1.111   .     S
C745   C746    1.535   .     S
C745   H775    1.111   .     S
C745   C886    1.526   1_455 S
C746   C747    1.526   .     S
C746   H774    1.111   .     S
C746   H933    1.112   1_455 S
C747   H770    1.111   .     S
C747   H771    1.111   .     S
C747   H772    1.110   .     S
C748   C749    1.418   .     A
C748   C30     1.421   1_556 S
C749   C753    1.411   .     A
C751   C752    1.393   .     A
C751   C30     1.417   1_556 S
C751   C15     1.392   1_556 S
C752   C753    1.386   .     A
C752   H776    1.084   .     S
C753   H781    1.081   .     S
H754   C1208   1.088   1_545 S
H756   C899    1.112   1_455 S
H765   C969    1.086   .     S
H773   C826    1.112   .     S
O784   Zn797   1.965   .     S
O784   Zn800   1.943   .     S
O784   Zn798   1.935   .     S
O784   Zn799   1.945   .     S
O785   Zn798   1.943   .     S
O786   Zn800   1.948   .     S
O787   Zn799   1.938   .     S
O788   Zn797   1.937   .     S
O789   Zn797   1.919   .     S
O790   Zn800   1.927   .     S
O791   Zn798   1.943   .     S
O792   Zn799   1.948   .     S
O793   Zn800   1.939   .     S
O794   Zn797   1.938   .     S
O795   Zn798   1.934   .     S
O796   Zn799   1.926   .     S
C801   O871    1.260   .     A
C801   C807    1.434   .     S
C801   O873    1.270   .     A
C802   C816    1.420   .     A
C802   C820    1.543   .     S
C802   C830    1.426   .     A
C803   C818    1.510   .     S
C803   C815    1.391   .     A
C803   C816    1.415   .     A
C804   O874    1.276   .     A
C804   C806    1.467   .     S
C804   O872    1.291   .     A
C805   C817    1.424   .     A
C805   C829    1.420   .     A
C805   C814    1.476   .     S
C806   C887    1.365   .     S
C806   C905    1.526   .     S
C808   C811    1.450   .     S
C808   C1049   1.332   .     S
C808   H1074   1.088   .     S
C809   C810    1.434   .     S
C809   C1288   1.332   1_545 S
C809   H1325   1.086   1_545 S
C810   O875    1.277   .     A
C810   O869    1.278   .     A
C811   O870    1.278   .     A
C811   O876    1.278   .     A
C812   C823    1.385   .     A
C812   C817    1.396   .     A
C812   H860    1.084   .     S
C813   O865    1.267   .     A
C813   O867    1.276   .     A
C813   C816    1.453   .     S
C814   O866    1.283   .     A
C814   O868    1.287   .     A
C815   H858    1.085   .     S
C817   C824    1.511   .     S
C818   H863    1.111   .     S
C818   H862    1.109   .     S
C818   H835    1.111   .     S
C819   H837    1.110   .     S
C819   H838    1.111   .     S
C819   C887    1.518   .     S
C819   H916    1.112   .     S
C820   H844    1.107   .     S
C820   C821    1.539   .     S
C820   H846    1.100   .     S
C821   H843    1.112   .     S
C821   C822    1.526   .     S
C821   H842    1.109   .     S
C822   H841    1.110   .     S
C822   H840    1.111   .     S
C822   H839    1.108   .     S
C823   C828    1.404   .     A
C823   H139    1.078   1_556 S
C824   H848    1.110   .     S
C824   H849    1.110   .     S
C824   H847    1.111   .     S
C825   H857    1.111   .     S
C825   C826    1.535   .     S
C825   H855    1.111   .     S
C826   C827    1.526   .     S
C826   H854    1.111   .     S
C827   H850    1.111   .     S
C827   H851    1.111   .     S
C827   H852    1.110   .     S
C828   C829    1.418   .     A
C828   C110    1.421   1_556 S
C829   C833    1.411   .     A
C831   C832    1.393   .     A
C831   C110    1.417   1_556 S
C831   C95     1.392   1_556 S
C832   C833    1.386   .     A
C832   H856    1.084   .     S
C833   H861    1.081   .     S
H834   C1288   1.088   1_545 S
H845   C1049   1.086   .     S
H853   C906    1.112   .     S
O864   Zn877   1.965   .     S
O864   Zn880   1.943   .     S
O864   Zn878   1.935   .     S
O864   Zn879   1.945   .     S
O865   Zn878   1.943   .     S
O866   Zn880   1.948   .     S
O867   Zn879   1.938   .     S
O868   Zn877   1.937   .     S
O869   Zn877   1.919   .     S
O870   Zn880   1.927   .     S
O871   Zn878   1.943   .     S
O872   Zn879   1.948   .     S
O873   Zn880   1.939   .     S
O874   Zn877   1.938   .     S
O875   Zn878   1.934   .     S
O876   Zn879   1.926   .     S
C881   O951    1.260   .     A
C881   C887    1.434   .     S
C881   O953    1.270   .     A
C882   C896    1.420   .     A
C882   C900    1.543   .     S
C882   C910    1.426   .     A
C883   C898    1.510   .     S
C883   C895    1.391   .     A
C883   C896    1.415   .     A
C884   O954    1.276   .     A
C884   C886    1.467   .     S
C884   O952    1.291   .     A
C885   C897    1.424   .     A
C885   C909    1.420   .     A
C885   C894    1.476   .     S
C886   C727    1.365   1_655 S
C886   C745    1.526   1_655 S
C888   C891    1.450   .     S
C888   C1129   1.332   .     S
C888   H1154   1.088   .     S
C889   C890    1.434   .     S
C889   C1368   1.332   1_545 S
C889   H1405   1.086   1_545 S
C890   O955    1.277   .     A
C890   O949    1.278   .     A
C891   O950    1.278   .     A
C891   O956    1.278   .     A
C892   C903    1.385   .     A
C892   C897    1.396   .     A
C892   H940    1.084   .     S
C893   O945    1.267   .     A
C893   O947    1.276   .     A
C893   C896    1.453   .     S
C894   O946    1.283   .     A
C894   O948    1.287   .     A
C895   H938    1.085   .     S
C897   C904    1.511   .     S
C898   H943    1.111   .     S
C898   H942    1.109   .     S
C898   H915    1.111   .     S
C899   H917    1.110   .     S
C899   H918    1.111   .     S
C899   C727    1.518   1_655 S
C899   H756    1.112   1_655 S
C900   H924    1.107   .     S
C900   C901    1.539   .     S
C900   H926    1.100   .     S
C901   H923    1.112   .     S
C901   C902    1.526   .     S
C901   H922    1.109   .     S
C902   H921    1.110   .     S
C902   H920    1.111   .     S
C902   H919    1.108   .     S
C903   C908    1.404   .     A
C903   H219    1.078   1_556 S
C904   H928    1.110   .     S
C904   H929    1.110   .     S
C904   H927    1.111   .     S
C905   H937    1.111   .     S
C905   C906    1.535   .     S
C905   H935    1.111   .     S
C906   C907    1.526   .     S
C906   H934    1.111   .     S
C907   H930    1.111   .     S
C907   H931    1.111   .     S
C907   H932    1.110   .     S
C908   C909    1.418   .     A
C908   C190    1.421   1_556 S
C909   C913    1.411   .     A
C911   C912    1.393   .     A
C911   C190    1.417   1_556 S
C911   C175    1.392   1_556 S
C912   C913    1.386   .     A
C912   H936    1.084   .     S
C913   H941    1.081   .     S
H914   C1368   1.088   1_545 S
H925   C1129   1.086   .     S
H933   C746    1.112   1_655 S
O944   Zn957   1.965   .     S
O944   Zn960   1.943   .     S
O944   Zn958   1.935   .     S
O944   Zn959   1.945   .     S
O945   Zn958   1.943   .     S
O946   Zn960   1.948   .     S
O947   Zn959   1.938   .     S
O948   Zn957   1.937   .     S
O949   Zn957   1.919   .     S
O950   Zn960   1.927   .     S
O951   Zn958   1.943   .     S
O952   Zn959   1.948   .     S
O953   Zn960   1.939   .     S
O954   Zn957   1.938   .     S
O955   Zn958   1.934   .     S
O956   Zn959   1.926   .     S
C961   O1031   1.260   .     A
C961   C967    1.434   .     S
C961   O1033   1.270   .     A
C962   C976    1.420   .     A
C962   C980    1.543   .     S
C962   C990    1.426   .     A
C963   C978    1.510   .     S
C963   C975    1.391   .     A
C963   C976    1.415   .     A
C964   O1034   1.276   .     A
C964   C966    1.467   .     S
C964   O1032   1.291   .     A
C965   C977    1.424   .     A
C965   C989    1.420   .     A
C965   C974    1.476   .     S
C966   C1047   1.365   .     S
C966   C1065   1.526   .     S
C967   C1126   1.365   1_455 S
C967   C1139   1.518   1_455 S
C968   C971    1.450   .     S
C968   C1209   1.332   .     S
C968   H1234   1.088   .     S
C969   C970    1.434   .     S
C970   O1035   1.277   .     A
C970   O1029   1.278   .     A
C971   O1030   1.278   .     A
C971   O1036   1.278   .     A
C972   C983    1.385   .     A
C972   C977    1.396   .     A
C972   H1020   1.084   .     S
C973   O1025   1.267   .     A
C973   O1027   1.276   .     A
C973   C976    1.453   .     S
C974   O1026   1.283   .     A
C974   O1028   1.287   .     A
C975   H1018   1.085   .     S
C977   C984    1.511   .     S
C978   H1023   1.111   .     S
C978   H1022   1.109   .     S
C978   H995    1.111   .     S
C979   H997    1.110   .     S
C979   H998    1.111   .     S
C979   C1047   1.518   .     S
C979   H1076   1.112   .     S
C980   H1004   1.107   .     S
C980   C981    1.539   .     S
C980   H1006   1.100   .     S
C981   H1003   1.112   .     S
C981   C982    1.526   .     S
C981   H1002   1.109   .     S
C982   H1001   1.110   .     S
C982   H1000   1.111   .     S
C982   H999    1.108   .     S
C983   C988    1.404   .     A
C983   H299    1.078   1_556 S
C984   H1008   1.110   .     S
C984   H1009   1.110   .     S
C984   H1007   1.111   .     S
C985   H1017   1.111   .     S
C985   C986    1.535   .     S
C985   H1015   1.111   .     S
C985   C1126   1.526   1_455 S
C986   C987    1.526   .     S
C986   H1014   1.111   .     S
C986   H1173   1.112   1_455 S
C987   H1010   1.111   .     S
C987   H1011   1.111   .     S
C987   H1012   1.110   .     S
C988   C989    1.418   .     A
C988   C270    1.421   1_556 S
C989   C993    1.411   .     A
C991   C992    1.393   .     A
C991   C270    1.417   1_556 S
C991   C255    1.392   1_556 S
C992   C993    1.386   .     A
C992   H1016   1.084   .     S
C993   H1021   1.081   .     S
H996   C1139   1.112   1_455 S
H1005  C1209   1.086   .     S
H1013  C1066   1.112   .     S
O1024  Zn1037  1.965   .     S
O1024  Zn1040  1.943   .     S
O1024  Zn1038  1.935   .     S
O1024  Zn1039  1.945   .     S
O1025  Zn1038  1.943   .     S
O1026  Zn1040  1.948   .     S
O1027  Zn1039  1.938   .     S
O1028  Zn1037  1.937   .     S
O1029  Zn1037  1.919   .     S
O1030  Zn1040  1.927   .     S
O1031  Zn1038  1.943   .     S
O1032  Zn1039  1.948   .     S
O1033  Zn1040  1.939   .     S
O1034  Zn1037  1.938   .     S
O1035  Zn1038  1.934   .     S
O1036  Zn1039  1.926   .     S
C1041  O1111   1.260   .     A
C1041  C1047   1.434   .     S
C1041  O1113   1.270   .     A
C1042  C1056   1.420   .     A
C1042  C1060   1.543   .     S
C1042  C1070   1.426   .     A
C1043  C1058   1.510   .     S
C1043  C1055   1.391   .     A
C1043  C1056   1.415   .     A
C1044  O1114   1.276   .     A
C1044  C1046   1.467   .     S
C1044  O1112   1.291   .     A
C1045  C1057   1.424   .     A
C1045  C1069   1.420   .     A
C1045  C1054   1.476   .     S
C1046  C1127   1.365   .     S
C1046  C1145   1.526   .     S
C1048  C1051   1.450   .     S
C1048  C1289   1.332   .     S
C1048  H1314   1.088   .     S
C1049  C1050   1.434   .     S
C1050  O1115   1.277   .     A
C1050  O1109   1.278   .     A
C1051  O1110   1.278   .     A
C1051  O1116   1.278   .     A
C1052  C1063   1.385   .     A
C1052  C1057   1.396   .     A
C1052  H1100   1.084   .     S
C1053  O1105   1.267   .     A
C1053  O1107   1.276   .     A
C1053  C1056   1.453   .     S
C1054  O1106   1.283   .     A
C1054  O1108   1.287   .     A
C1055  H1098   1.085   .     S
C1057  C1064   1.511   .     S
C1058  H1103   1.111   .     S
C1058  H1102   1.109   .     S
C1058  H1075   1.111   .     S
C1059  H1077   1.110   .     S
C1059  H1078   1.111   .     S
C1059  C1127   1.518   .     S
C1059  H1156   1.112   .     S
C1060  H1084   1.107   .     S
C1060  C1061   1.539   .     S
C1060  H1086   1.100   .     S
C1061  H1083   1.112   .     S
C1061  C1062   1.526   .     S
C1061  H1082   1.109   .     S
C1062  H1081   1.110   .     S
C1062  H1080   1.111   .     S
C1062  H1079   1.108   .     S
C1063  C1068   1.404   .     A
C1063  H379    1.078   1_556 S
C1064  H1088   1.110   .     S
C1064  H1089   1.110   .     S
C1064  H1087   1.111   .     S
C1065  H1097   1.111   .     S
C1065  C1066   1.535   .     S
C1065  H1095   1.111   .     S
C1066  C1067   1.526   .     S
C1066  H1094   1.111   .     S
C1067  H1090   1.111   .     S
C1067  H1091   1.111   .     S
C1067  H1092   1.110   .     S
C1068  C1069   1.418   .     A
C1068  C350    1.421   1_556 S
C1069  C1073   1.411   .     A
C1071  C1072   1.393   .     A
C1071  C350    1.417   1_556 S
C1071  C335    1.392   1_556 S
C1072  C1073   1.386   .     A
C1072  H1096   1.084   .     S
C1073  H1101   1.081   .     S
H1085  C1289   1.086   .     S
H1093  C1146   1.112   .     S
O1104  Zn1117  1.965   .     S
O1104  Zn1120  1.943   .     S
O1104  Zn1118  1.935   .     S
O1104  Zn1119  1.945   .     S
O1105  Zn1118  1.943   .     S
O1106  Zn1120  1.948   .     S
O1107  Zn1119  1.938   .     S
O1108  Zn1117  1.937   .     S
O1109  Zn1117  1.919   .     S
O1110  Zn1120  1.927   .     S
O1111  Zn1118  1.943   .     S
O1112  Zn1119  1.948   .     S
O1113  Zn1120  1.939   .     S
O1114  Zn1117  1.938   .     S
O1115  Zn1118  1.934   .     S
O1116  Zn1119  1.926   .     S
C1121  O1191   1.260   .     A
C1121  C1127   1.434   .     S
C1121  O1193   1.270   .     A
C1122  C1136   1.420   .     A
C1122  C1140   1.543   .     S
C1122  C1150   1.426   .     A
C1123  C1138   1.510   .     S
C1123  C1135   1.391   .     A
C1123  C1136   1.415   .     A
C1124  O1194   1.276   .     A
C1124  C1126   1.467   .     S
C1124  O1192   1.291   .     A
C1125  C1137   1.424   .     A
C1125  C1149   1.420   .     A
C1125  C1134   1.476   .     S
C1126  C967    1.365   1_655 S
C1126  C985    1.526   1_655 S
C1128  C1131   1.450   .     S
C1128  C1369   1.332   .     S
C1128  H1394   1.088   .     S
C1129  C1130   1.434   .     S
C1130  O1195   1.277   .     A
C1130  O1189   1.278   .     A
C1131  O1190   1.278   .     A
C1131  O1196   1.278   .     A
C1132  C1143   1.385   .     A
C1132  C1137   1.396   .     A
C1132  H1180   1.084   .     S
C1133  O1185   1.267   .     A
C1133  O1187   1.276   .     A
C1133  C1136   1.453   .     S
C1134  O1186   1.283   .     A
C1134  O1188   1.287   .     A
C1135  H1178   1.085   .     S
C1137  C1144   1.511   .     S
C1138  H1183   1.111   .     S
C1138  H1182   1.109   .     S
C1138  H1155   1.111   .     S
C1139  H1157   1.110   .     S
C1139  H1158   1.111   .     S
C1139  C967    1.518   1_655 S
C1139  H996    1.112   1_655 S
C1140  H1164   1.107   .     S
C1140  C1141   1.539   .     S
C1140  H1166   1.100   .     S
C1141  H1163   1.112   .     S
C1141  C1142   1.526   .     S
C1141  H1162   1.109   .     S
C1142  H1161   1.110   .     S
C1142  H1160   1.111   .     S
C1142  H1159   1.108   .     S
C1143  C1148   1.404   .     A
C1143  H459    1.078   1_556 S
C1144  H1168   1.110   .     S
C1144  H1169   1.110   .     S
C1144  H1167   1.111   .     S
C1145  H1177   1.111   .     S
C1145  C1146   1.535   .     S
C1145  H1175   1.111   .     S
C1146  C1147   1.526   .     S
C1146  H1174   1.111   .     S
C1147  H1170   1.111   .     S
C1147  H1171   1.111   .     S
C1147  H1172   1.110   .     S
C1148  C1149   1.418   .     A
C1148  C430    1.421   1_556 S
C1149  C1153   1.411   .     A
C1151  C1152   1.393   .     A
C1151  C430    1.417   1_556 S
C1151  C415    1.392   1_556 S
C1152  C1153   1.386   .     A
C1152  H1176   1.084   .     S
C1153  H1181   1.081   .     S
H1165  C1369   1.086   .     S
H1173  C986    1.112   1_655 S
O1184  Zn1197  1.965   .     S
O1184  Zn1200  1.943   .     S
O1184  Zn1198  1.935   .     S
O1184  Zn1199  1.945   .     S
O1185  Zn1198  1.943   .     S
O1186  Zn1200  1.948   .     S
O1187  Zn1199  1.938   .     S
O1188  Zn1197  1.937   .     S
O1189  Zn1197  1.919   .     S
O1190  Zn1200  1.927   .     S
O1191  Zn1198  1.943   .     S
O1192  Zn1199  1.948   .     S
O1193  Zn1200  1.939   .     S
O1194  Zn1197  1.938   .     S
O1195  Zn1198  1.934   .     S
O1196  Zn1199  1.926   .     S
C1201  O1271   1.260   .     A
C1201  C1207   1.434   .     S
C1201  O1273   1.270   .     A
C1202  C1216   1.420   .     A
C1202  C1220   1.543   .     S
C1202  C1230   1.426   .     A
C1203  C1218   1.510   .     S
C1203  C1215   1.391   .     A
C1203  C1216   1.415   .     A
C1204  O1274   1.276   .     A
C1204  C1206   1.467   .     S
C1204  O1272   1.291   .     A
C1205  C1217   1.424   .     A
C1205  C1229   1.420   .     A
C1205  C1214   1.476   .     S
C1206  C1287   1.365   .     S
C1206  C1305   1.526   .     S
C1207  C1366   1.365   1_455 S
C1207  C1379   1.518   1_455 S
C1208  C1211   1.450   .     S
C1208  C729    1.332   1_565 S
C1208  H754    1.088   1_565 S
C1209  C1210   1.434   .     S
C1210  O1275   1.277   .     A
C1210  O1269   1.278   .     A
C1211  O1270   1.278   .     A
C1211  O1276   1.278   .     A
C1212  C1223   1.385   .     A
C1212  C1217   1.396   .     A
C1212  H1260   1.084   .     S
C1213  O1265   1.267   .     A
C1213  O1267   1.276   .     A
C1213  C1216   1.453   .     S
C1214  O1266   1.283   .     A
C1214  O1268   1.287   .     A
C1215  H1258   1.085   .     S
C1217  C1224   1.511   .     S
C1218  H1263   1.111   .     S
C1218  H1262   1.109   .     S
C1218  H1235   1.111   .     S
C1219  H1237   1.110   .     S
C1219  H1238   1.111   .     S
C1219  C1287   1.518   .     S
C1219  H1316   1.112   .     S
C1220  H1244   1.107   .     S
C1220  C1221   1.539   .     S
C1220  H1246   1.100   .     S
C1221  H1243   1.112   .     S
C1221  C1222   1.526   .     S
C1221  H1242   1.109   .     S
C1222  H1241   1.110   .     S
C1222  H1240   1.111   .     S
C1222  H1239   1.108   .     S
C1223  C1228   1.404   .     A
C1223  H539    1.078   1_556 S
C1224  H1248   1.110   .     S
C1224  H1249   1.110   .     S
C1224  H1247   1.111   .     S
C1225  H1257   1.111   .     S
C1225  C1226   1.535   .     S
C1225  H1255   1.111   .     S
C1225  C1366   1.526   1_455 S
C1226  C1227   1.526   .     S
C1226  H1254   1.111   .     S
C1226  H1413   1.112   1_455 S
C1227  H1250   1.111   .     S
C1227  H1251   1.111   .     S
C1227  H1252   1.110   .     S
C1228  C1229   1.418   .     A
C1228  C510    1.421   1_556 S
C1229  C1233   1.411   .     A
C1231  C1232   1.393   .     A
C1231  C510    1.417   1_556 S
C1231  C495    1.392   1_556 S
C1232  C1233   1.386   .     A
C1232  H1256   1.084   .     S
C1233  H1261   1.081   .     S
H1236  C1379   1.112   1_455 S
H1245  C729    1.086   1_565 S
H1253  C1306   1.112   .     S
O1264  Zn1277  1.965   .     S
O1264  Zn1280  1.943   .     S
O1264  Zn1278  1.935   .     S
O1264  Zn1279  1.945   .     S
O1265  Zn1278  1.943   .     S
O1266  Zn1280  1.948   .     S
O1267  Zn1279  1.938   .     S
O1268  Zn1277  1.937   .     S
O1269  Zn1277  1.919   .     S
O1270  Zn1280  1.927   .     S
O1271  Zn1278  1.943   .     S
O1272  Zn1279  1.948   .     S
O1273  Zn1280  1.939   .     S
O1274  Zn1277  1.938   .     S
O1275  Zn1278  1.934   .     S
O1276  Zn1279  1.926   .     S
C1281  O1351   1.260   .     A
C1281  C1287   1.434   .     S
C1281  O1353   1.270   .     A
C1282  C1296   1.420   .     A
C1282  C1300   1.543   .     S
C1282  C1310   1.426   .     A
C1283  C1298   1.510   .     S
C1283  C1295   1.391   .     A
C1283  C1296   1.415   .     A
C1284  O1354   1.276   .     A
C1284  C1286   1.467   .     S
C1284  O1352   1.291   .     A
C1285  C1297   1.424   .     A
C1285  C1309   1.420   .     A
C1285  C1294   1.476   .     S
C1286  C1367   1.365   .     S
C1286  C1385   1.526   .     S
C1288  C1291   1.450   .     S
C1288  C809    1.332   1_565 S
C1288  H834    1.088   1_565 S
C1289  C1290   1.434   .     S
C1290  O1355   1.277   .     A
C1290  O1349   1.278   .     A
C1291  O1350   1.278   .     A
C1291  O1356   1.278   .     A
C1292  C1303   1.385   .     A
C1292  C1297   1.396   .     A
C1292  H1340   1.084   .     S
C1293  O1345   1.267   .     A
C1293  O1347   1.276   .     A
C1293  C1296   1.453   .     S
C1294  O1346   1.283   .     A
C1294  O1348   1.287   .     A
C1295  H1338   1.085   .     S
C1297  C1304   1.511   .     S
C1298  H1343   1.111   .     S
C1298  H1342   1.109   .     S
C1298  H1315   1.111   .     S
C1299  H1317   1.110   .     S
C1299  H1318   1.111   .     S
C1299  C1367   1.518   .     S
C1299  H1396   1.112   .     S
C1300  H1324   1.107   .     S
C1300  C1301   1.539   .     S
C1300  H1326   1.100   .     S
C1301  H1323   1.112   .     S
C1301  C1302   1.526   .     S
C1301  H1322   1.109   .     S
C1302  H1321   1.110   .     S
C1302  H1320   1.111   .     S
C1302  H1319   1.108   .     S
C1303  C1308   1.404   .     A
C1303  H619    1.078   1_556 S
C1304  H1328   1.110   .     S
C1304  H1329   1.110   .     S
C1304  H1327   1.111   .     S
C1305  H1337   1.111   .     S
C1305  C1306   1.535   .     S
C1305  H1335   1.111   .     S
C1306  C1307   1.526   .     S
C1306  H1334   1.111   .     S
C1307  H1330   1.111   .     S
C1307  H1331   1.111   .     S
C1307  H1332   1.110   .     S
C1308  C1309   1.418   .     A
C1308  C590    1.421   1_556 S
C1309  C1313   1.411   .     A
C1311  C1312   1.393   .     A
C1311  C590    1.417   1_556 S
C1311  C575    1.392   1_556 S
C1312  C1313   1.386   .     A
C1312  H1336   1.084   .     S
C1313  H1341   1.081   .     S
H1325  C809    1.086   1_565 S
H1333  C1386   1.112   .     S
O1344  Zn1357  1.965   .     S
O1344  Zn1360  1.943   .     S
O1344  Zn1358  1.935   .     S
O1344  Zn1359  1.945   .     S
O1345  Zn1358  1.943   .     S
O1346  Zn1360  1.948   .     S
O1347  Zn1359  1.938   .     S
O1348  Zn1357  1.937   .     S
O1349  Zn1357  1.919   .     S
O1350  Zn1360  1.927   .     S
O1351  Zn1358  1.943   .     S
O1352  Zn1359  1.948   .     S
O1353  Zn1360  1.939   .     S
O1354  Zn1357  1.938   .     S
O1355  Zn1358  1.934   .     S
O1356  Zn1359  1.926   .     S
C1361  O1431   1.260   .     A
C1361  C1367   1.434   .     S
C1361  O1433   1.270   .     A
C1362  C1376   1.420   .     A
C1362  C1380   1.543   .     S
C1362  C1390   1.426   .     A
C1363  C1378   1.510   .     S
C1363  C1375   1.391   .     A
C1363  C1376   1.415   .     A
C1364  O1434   1.276   .     A
C1364  C1366   1.467   .     S
C1364  O1432   1.291   .     A
C1365  C1377   1.424   .     A
C1365  C1389   1.420   .     A
C1365  C1374   1.476   .     S
C1366  C1207   1.365   1_655 S
C1366  C1225   1.526   1_655 S
C1368  C1371   1.450   .     S
C1368  C889    1.332   1_565 S
C1368  H914    1.088   1_565 S
C1369  C1370   1.434   .     S
C1370  O1435   1.277   .     A
C1370  O1429   1.278   .     A
C1371  O1430   1.278   .     A
C1371  O1436   1.278   .     A
C1372  C1383   1.385   .     A
C1372  C1377   1.396   .     A
C1372  H1420   1.084   .     S
C1373  O1425   1.267   .     A
C1373  O1427   1.276   .     A
C1373  C1376   1.453   .     S
C1374  O1426   1.283   .     A
C1374  O1428   1.287   .     A
C1375  H1418   1.085   .     S
C1377  C1384   1.511   .     S
C1378  H1423   1.111   .     S
C1378  H1422   1.109   .     S
C1378  H1395   1.111   .     S
C1379  H1397   1.110   .     S
C1379  H1398   1.111   .     S
C1379  C1207   1.518   1_655 S
C1379  H1236   1.112   1_655 S
C1380  H1404   1.107   .     S
C1380  C1381   1.539   .     S
C1380  H1406   1.100   .     S
C1381  H1403   1.112   .     S
C1381  C1382   1.526   .     S
C1381  H1402   1.109   .     S
C1382  H1401   1.110   .     S
C1382  H1400   1.111   .     S
C1382  H1399   1.108   .     S
C1383  C1388   1.404   .     A
C1383  H699    1.078   1_556 S
C1384  H1408   1.110   .     S
C1384  H1409   1.110   .     S
C1384  H1407   1.111   .     S
C1385  H1417   1.111   .     S
C1385  C1386   1.535   .     S
C1385  H1415   1.111   .     S
C1386  C1387   1.526   .     S
C1386  H1414   1.111   .     S
C1387  H1410   1.111   .     S
C1387  H1411   1.111   .     S
C1387  H1412   1.110   .     S
C1388  C1389   1.418   .     A
C1388  C670    1.421   1_556 S
C1389  C1393   1.411   .     A
C1391  C1392   1.393   .     A
C1391  C670    1.417   1_556 S
C1391  C655    1.392   1_556 S
C1392  C1393   1.386   .     A
C1392  H1416   1.084   .     S
C1393  H1421   1.081   .     S
H1405  C889    1.086   1_565 S
H1413  C1226   1.112   1_655 S
O1424  Zn1437  1.965   .     S
O1424  Zn1440  1.943   .     S
O1424  Zn1438  1.935   .     S
O1424  Zn1439  1.945   .     S
O1425  Zn1438  1.943   .     S
O1426  Zn1440  1.948   .     S
O1427  Zn1439  1.938   .     S
O1428  Zn1437  1.937   .     S
O1429  Zn1437  1.919   .     S
O1430  Zn1440  1.927   .     S
O1431  Zn1438  1.943   .     S
O1432  Zn1439  1.948   .     S
O1433  Zn1440  1.939   .     S
O1434  Zn1437  1.938   .     S
O1435  Zn1438  1.934   .     S
O1436  Zn1439  1.926   .     S
