data_str_m1_o1_o2_pcu_sym.24
_audit_creation_date              2020-01-03
_audit_creation_method            'Materials Studio'
_symmetry_space_group_name_H-M    'P1'
_symmetry_Int_Tables_number       1
_symmetry_cell_setting            triclinic
loop_
_symmetry_equiv_pos_as_xyz
  x,y,z
_cell_length_a                    36.6216
_cell_length_b                    36.6234
_cell_length_c                    34.5801
_cell_angle_alpha                 90.0013
_cell_angle_beta                  90.0115
_cell_angle_gamma                 89.8630
loop_
_atom_site_label
_atom_site_type_symbol
_atom_site_fract_x
_atom_site_fract_y
_atom_site_fract_z
_atom_site_U_iso_or_equiv
_atom_site_adp_type
_atom_site_occupancy
C1     C     0.22068   0.01512   0.03995   0.00000  Uiso   1.00
C2     C     0.02603   0.26916   0.45945   0.00000  Uiso   1.00
C3     C     0.34808   0.40193   0.75000   0.00000  Uiso   1.00
C4     C     0.40189   0.15189   0.25000   0.00000  Uiso   1.00
C5     C     0.09813   0.34812   0.75002   0.00000  Uiso   1.00
C6     C     0.34811   0.40190   0.25000   0.00000  Uiso   1.00
C7     C     0.15189   0.09811   0.75000   0.00000  Uiso   1.00
C8     C     0.09809   0.15191   0.75000   0.00000  Uiso   1.00
C9     C     0.40192   0.34808   0.25000   0.00000  Uiso   1.00
C10    C     0.15189   0.40189   0.75000   0.00000  Uiso   1.00
C11    C     0.34812   0.09812   0.25000   0.00000  Uiso   1.00
C12    C     0.40190   0.34811   0.74999   0.00000  Uiso   1.00
C13    C     0.22225   0.48191   0.54192   0.00000  Uiso   1.00
C14    C     0.09809   0.15192   0.25001   0.00000  Uiso   1.00
C15    C     0.34811   0.09811   0.75000   0.00000  Uiso   1.00
C16    C     0.15191   0.40192   0.25000   0.00000  Uiso   1.00
C17    C     0.25000   0.49996   0.10149   0.00000  Uiso   1.00
C18    C     0.25002   0.49996   0.89725   0.00000  Uiso   1.00
C19    C     0.49931   0.24982   0.10207   0.00000  Uiso   1.00
C20    C     0.00068   0.24980   0.89790   0.00000  Uiso   1.00
C21    C     0.49955   0.24917   0.60212   0.00000  Uiso   1.00
C22    C     0.00045   0.24912   0.39791   0.00000  Uiso   1.00
C23    C     0.25000   0.00000   0.60275   0.00000  Uiso   1.00
C24    C     0.23476   0.02935   0.46002   0.00000  Uiso   1.00
C25    C     0.24999   0.00001   0.39851   0.00000  Uiso   1.00
C26    C     0.18760   0.03424   0.09948   0.00000  Uiso   1.00
C27    C     0.15637   0.00672   0.10464   0.00000  Uiso   1.00
C28    C     0.12542   0.02251   0.12896   0.00000  Uiso   1.00
C29    C     0.28633   0.06013   0.89721   0.00000  Uiso   1.00
C30    C     0.32769   0.05416   0.89401   0.00000  Uiso   1.00
C31    C     0.34580   0.08510   0.87157   0.00000  Uiso   1.00
C32    C     0.44950   0.19976   0.10225   0.00000  Uiso   1.00
C33    C     0.46398   0.16065   0.10681   0.00000  Uiso   1.00
C34    C     0.43640   0.13660   0.12785   0.00000  Uiso   1.00
C35    C     0.02517   0.22741   0.54128   0.00000  Uiso   1.00
C36    C     0.45610   0.30481   0.90047   0.00000  Uiso   1.00
C37    C     0.47815   0.34044   0.89931   0.00000  Uiso   1.00
C38    C     0.45878   0.37001   0.87599   0.00000  Uiso   1.00
C39    C     0.31242   0.46568   0.09959   0.00000  Uiso   1.00
C40    C     0.34362   0.49324   0.10476   0.00000  Uiso   1.00
C41    C     0.37450   0.47757   0.12928   0.00000  Uiso   1.00
C42    C     0.21373   0.43978   0.89712   0.00000  Uiso   1.00
C43    C     0.17236   0.44572   0.89395   0.00000  Uiso   1.00
C44    C     0.15425   0.41479   0.87147   0.00000  Uiso   1.00
C45    C     0.04319   0.30522   0.09944   0.00000  Uiso   1.00
C46    C     0.47466   0.22763   0.45874   0.00000  Uiso   1.00
C47    C     0.02055   0.34059   0.10061   0.00000  Uiso   1.00
C48    C     0.03945   0.37042   0.12386   0.00000  Uiso   1.00
C49    C     0.05083   0.19986   0.89765   0.00000  Uiso   1.00
C50    C     0.03655   0.16074   0.89309   0.00000  Uiso   1.00
C51    C     0.06411   0.13678   0.87174   0.00000  Uiso   1.00
C52    C     0.44374   0.29301   0.60019   0.00000  Uiso   1.00
C53    C     0.40815   0.27095   0.60234   0.00000  Uiso   1.00
C54    C     0.37892   0.29060   0.62587   0.00000  Uiso   1.00
C55    C     0.05662   0.29226   0.39995   0.00000  Uiso   1.00
C56    C     0.09195   0.26961   0.39779   0.00000  Uiso   1.00
C57    C     0.27771   0.01814   0.54194   0.00000  Uiso   1.00
C58    C     0.12144   0.28880   0.37433   0.00000  Uiso   1.00
C59    C     0.18979   0.46377   0.60283   0.00000  Uiso   1.00
C60    C     0.19572   0.42241   0.60600   0.00000  Uiso   1.00
C61    C     0.16478   0.40432   0.62848   0.00000  Uiso   1.00
C62    C     0.21570   0.06242   0.40044   0.00000  Uiso   1.00
C63    C     0.24325   0.09362   0.39527   0.00000  Uiso   1.00
C64    C     0.22756   0.12450   0.37076   0.00000  Uiso   1.00
C65    C     0.05044   0.19998   0.60183   0.00000  Uiso   1.00
C66    C     0.08912   0.21561   0.60555   0.00000  Uiso   1.00
C67    C     0.11426   0.18921   0.62702   0.00000  Uiso   1.00
C68    C     0.26520   0.47070   0.46004   0.00000  Uiso   1.00
C69    C     0.44946   0.20026   0.39821   0.00000  Uiso   1.00
C70    C     0.41077   0.21605   0.39447   0.00000  Uiso   1.00
C71    C     0.38558   0.18959   0.37332   0.00000  Uiso   1.00
C72    C     0.31021   0.03622   0.60285   0.00000  Uiso   1.00
C73    C     0.30431   0.07759   0.60604   0.00000  Uiso   1.00
C74    C     0.33527   0.09566   0.62851   0.00000  Uiso   1.00
C75    C     0.28429   0.43762   0.40050   0.00000  Uiso   1.00
C76    C     0.25677   0.40639   0.39535   0.00000  Uiso   1.00
C77    C     0.27255   0.37544   0.37102   0.00000  Uiso   1.00
C78    C     0.22030   0.01596   0.08045   0.00000  Uiso   1.00
C79    C     0.26811   0.02828   0.91763   0.00000  Uiso   1.00
C80    C     0.47717   0.22403   0.08202   0.00000  Uiso   1.00
C81    C     0.26818   0.02762   0.95809   0.00000  Uiso   1.00
C82    C     0.47865   0.27481   0.91926   0.00000  Uiso   1.00
C83    C     0.27971   0.48392   0.08050   0.00000  Uiso   1.00
C84    C     0.23194   0.47161   0.91759   0.00000  Uiso   1.00
C85    C     0.02109   0.27495   0.08070   0.00000  Uiso   1.00
C86    C     0.02305   0.22409   0.91793   0.00000  Uiso   1.00
C87    C     0.47344   0.27028   0.58106   0.00000  Uiso   1.00
C88    C     0.02665   0.26998   0.41900   0.00000  Uiso   1.00
C89    C     0.22164   0.48196   0.58238   0.00000  Uiso   1.00
C90    C     0.23395   0.02972   0.41951   0.00000  Uiso   1.00
C91    C     0.02499   0.22680   0.58176   0.00000  Uiso   1.00
C92    C     0.47864   0.22256   0.04157   0.00000  Uiso   1.00
C93    C     0.47491   0.22697   0.41825   0.00000  Uiso   1.00
C94    C     0.27835   0.01806   0.58240   0.00000  Uiso   1.00
C95    C     0.26601   0.47032   0.41954   0.00000  Uiso   1.00
C96    C     0.25002   0.49990   0.02014   0.00000  Uiso   1.00
C97    C     0.25003   0.49991   0.97798   0.00000  Uiso   1.00
C98    C     0.00042   0.24693   0.02107   0.00000  Uiso   1.00
C99    C     0.49965   0.24693   0.97889   0.00000  Uiso   1.00
C100   C     0.49982   0.24849   0.52109   0.00000  Uiso   1.00
C101   C     0.00006   0.24850   0.47895   0.00000  Uiso   1.00
C102   C     0.24997   0.00004   0.52202   0.00000  Uiso   1.00
C103   C     0.47859   0.27296   0.95968   0.00000  Uiso   1.00
C104   C     0.24997   0.00003   0.47986   0.00000  Uiso   1.00
C105   C     0.25000   0.00000   0.35550   0.00000  Uiso   1.00
C106   C     0.25000  -0.00000   0.64497   0.00000  Uiso   1.00
C107   C     0.00010   0.24993   0.35529   0.00000  Uiso   1.00
C108   C     0.49991   0.24995   0.64473   0.00000  Uiso   1.00
C109   C     0.00012   0.25001   0.85528   0.00000  Uiso   1.00
C110   C     0.49988   0.25002   0.14471   0.00000  Uiso   1.00
C111   C     0.25000   0.49999   0.85503   0.00000  Uiso   1.00
C112   C     0.25000   0.49999   0.14450   0.00000  Uiso   1.00
C113   C     0.17995   0.07004   0.25000   0.00000  Uiso   1.00
C114   C     0.27934   0.48470   0.03999   0.00000  Uiso   1.00
C115   C     0.32003   0.42997   0.75000   0.00000  Uiso   1.00
C116   C     0.42994   0.17994   0.25000   0.00000  Uiso   1.00
C117   C     0.07007   0.32006   0.75001   0.00000  Uiso   1.00
C118   C     0.32004   0.42996   0.25000   0.00000  Uiso   1.00
C119   C     0.17995   0.07005   0.75000   0.00000  Uiso   1.00
C120   C     0.07006   0.32006   0.25001   0.00000  Uiso   1.00
C121   C     0.42994   0.17993   0.74999   0.00000  Uiso   1.00
C122   C     0.17994   0.42994   0.75000   0.00000  Uiso   1.00
C123   C     0.32006   0.07006   0.25000   0.00000  Uiso   1.00
C124   C     0.42996   0.32005   0.74999   0.00000  Uiso   1.00
C125   C     0.23188   0.47222   0.95805   0.00000  Uiso   1.00
C126   C     0.07004   0.17996   0.25000   0.00000  Uiso   1.00
C127   C     0.32006   0.07006   0.75000   0.00000  Uiso   1.00
C128   C     0.17995   0.42995   0.25000   0.00000  Uiso   1.00
C129   C     0.07004   0.17996   0.75000   0.00000  Uiso   1.00
C130   C     0.42996   0.32004   0.25000   0.00000  Uiso   1.00
C131   C     0.13900   0.38788   0.21485   0.00000  Uiso   1.00
C132   C     0.38296   0.09032   0.76488   0.00000  Uiso   1.00
C133   C     0.10814   0.13501   0.21519   0.00000  Uiso   1.00
C134   C     0.38666   0.35982   0.78505   0.00000  Uiso   1.00
C135   C     0.38354   0.08974   0.23716   0.00000  Uiso   1.00
C136   C     0.02120   0.27307   0.04028   0.00000  Uiso   1.00
C137   C     0.11704   0.40969   0.76486   0.00000  Uiso   1.00
C138   C     0.39186   0.36500   0.21519   0.00000  Uiso   1.00
C139   C     0.08949   0.11627   0.76178   0.00000  Uiso   1.00
C140   C     0.11627   0.08951   0.76183   0.00000  Uiso   1.00
C141   C     0.36481   0.39161   0.21515   0.00000  Uiso   1.00
C142   C     0.09034   0.38297   0.76487   0.00000  Uiso   1.00
C143   C     0.41029   0.11645   0.23726   0.00000  Uiso   1.00
C144   C     0.36016   0.38707   0.78511   0.00000  Uiso   1.00
C145   C     0.13518   0.10839   0.21516   0.00000  Uiso   1.00
C146   C     0.40967   0.11702   0.76486   0.00000  Uiso   1.00
C147   C     0.02164   0.22264   0.95839   0.00000  Uiso   1.00
C148   C     0.11256   0.36066   0.21490   0.00000  Uiso   1.00
C149   C     0.36703   0.15965   0.73509   0.00000  Uiso   1.00
C150   C     0.11063   0.36260   0.28512   0.00000  Uiso   1.00
C151   C     0.36295   0.38987   0.71489   0.00000  Uiso   1.00
C152   C     0.14162   0.11482   0.28485   0.00000  Uiso   1.00
C153   C     0.13298   0.34032   0.73517   0.00000  Uiso   1.00
C154   C     0.36644   0.16029   0.26274   0.00000  Uiso   1.00
C155   C     0.16049   0.13373   0.73818   0.00000  Uiso   1.00
C156   C     0.35840   0.38519   0.28484   0.00000  Uiso   1.00
C157   C     0.38501   0.35815   0.28481   0.00000  Uiso   1.00
C158   C     0.47398   0.26942   0.54062   0.00000  Uiso   1.00
C159   C     0.13373   0.16052   0.73822   0.00000  Uiso   1.00
C160   C     0.33974   0.13354   0.26283   0.00000  Uiso   1.00
C161   C     0.15969   0.36704   0.73515   0.00000  Uiso   1.00
C162   C     0.11501   0.14186   0.28482   0.00000  Uiso   1.00
C163   C     0.39020   0.36338   0.71494   0.00000  Uiso   1.00
C164   C     0.13786   0.38904   0.28516   0.00000  Uiso   1.00
C165   C     0.34032   0.13295   0.73510   0.00000  Uiso   1.00
C166   C     0.09812   0.34813   0.25001   0.00000  Uiso   1.00
C167   C     0.40188   0.15187   0.74998   0.00000  Uiso   1.00
C168   C     0.15189   0.09810   0.25000   0.00000  Uiso   1.00
F169   F     0.19236   0.02946   0.01943   0.00000  Uiso   1.00
F170   F     0.05085   0.28865   0.48016   0.00000  Uiso   1.00
F171   F     0.19549   0.46469   0.52171   0.00000  Uiso   1.00
F172   F     0.22040   0.05767   0.48051   0.00000  Uiso   1.00
F173   F     0.04948   0.20658   0.52126   0.00000  Uiso   1.00
F174   F     0.45026   0.20701   0.47875   0.00000  Uiso   1.00
F175   F     0.30447   0.03537   0.52173   0.00000  Uiso   1.00
F176   F     0.27955   0.44239   0.48056   0.00000  Uiso   1.00
F177   F     0.15292   0.39961   0.18065   0.00000  Uiso   1.00
F178   F     0.39156   0.05667   0.77873   0.00000  Uiso   1.00
F179   F     0.09265   0.14508   0.18111   0.00000  Uiso   1.00
F180   F     0.28544   0.05435   0.97832   0.00000  Uiso   1.00
F181   F     0.39643   0.34390   0.81895   0.00000  Uiso   1.00
F182   F     0.39263   0.05551   0.22541   0.00000  Uiso   1.00
F183   F     0.10843   0.44335   0.77868   0.00000  Uiso   1.00
F184   F     0.40734   0.35494   0.18111   0.00000  Uiso   1.00
F185   F     0.05499   0.10704   0.77235   0.00000  Uiso   1.00
F186   F     0.10705   0.05504   0.77249   0.00000  Uiso   1.00
F187   F     0.35409   0.40639   0.18098   0.00000  Uiso   1.00
F188   F     0.05667   0.39160   0.77867   0.00000  Uiso   1.00
F189   F     0.44458   0.10730   0.22573   0.00000  Uiso   1.00
F190   F     0.34538   0.39805   0.81921   0.00000  Uiso   1.00
F191   F     0.45767   0.19825   0.02185   0.00000  Uiso   1.00
F192   F     0.14589   0.09362   0.18099   0.00000  Uiso   1.00
F193   F     0.44334   0.10840   0.77866   0.00000  Uiso   1.00
F194   F     0.10212   0.34552   0.18085   0.00000  Uiso   1.00
F195   F     0.35841   0.19331   0.72126   0.00000  Uiso   1.00
F196   F     0.09547   0.35221   0.31916   0.00000  Uiso   1.00
F197   F     0.35197   0.40468   0.68078   0.00000  Uiso   1.00
F198   F     0.15639   0.10410   0.31902   0.00000  Uiso   1.00
F199   F     0.14161   0.30665   0.72140   0.00000  Uiso   1.00
F200   F     0.35730   0.19459   0.27423   0.00000  Uiso   1.00
F201   F     0.19496   0.14295   0.72752   0.00000  Uiso   1.00
F202   F     0.45824   0.29694   0.98069   0.00000  Uiso   1.00
F203   F     0.34364   0.39591   0.31901   0.00000  Uiso   1.00
F204   F     0.39508   0.34266   0.31889   0.00000  Uiso   1.00
F205   F     0.14297   0.19501   0.72767   0.00000  Uiso   1.00
F206   F     0.30550   0.14263   0.27457   0.00000  Uiso   1.00
F207   F     0.19334   0.35843   0.72133   0.00000  Uiso   1.00
F208   F     0.10496   0.15736   0.31890   0.00000  Uiso   1.00
F209   F     0.40616   0.35366   0.68105   0.00000  Uiso   1.00
F210   F     0.14959   0.40298   0.31936   0.00000  Uiso   1.00
F211   F     0.30666   0.14155   0.72126   0.00000  Uiso   1.00
F212   F     0.30767   0.47035   0.01951   0.00000  Uiso   1.00
F213   F     0.21463   0.44546   0.97824   0.00000  Uiso   1.00
F214   F     0.04130   0.29716   0.01927   0.00000  Uiso   1.00
F215   F     0.04283   0.19841   0.97809   0.00000  Uiso   1.00
F216   F     0.44925   0.28916   0.51994   0.00000  Uiso   1.00
H217   H     0.13493   0.02716   0.15903   0.00000  Uiso   1.00
H218   H     0.37562   0.07993   0.86944   0.00000  Uiso   1.00
H219   H     0.36173   0.09119   0.61352   0.00000  Uiso   1.00
H220   H     0.33015   0.12549   0.63062   0.00000  Uiso   1.00
H221   H     0.30293   0.08981   0.57665   0.00000  Uiso   1.00
H222   H     0.27810   0.08339   0.62104   0.00000  Uiso   1.00
H223   H     0.31460   0.02440   0.63205   0.00000  Uiso   1.00
H224   H     0.33587   0.03067   0.58666   0.00000  Uiso   1.00
H225   H     0.27718   0.38494   0.34095   0.00000  Uiso   1.00
H226   H     0.29869   0.36557   0.38360   0.00000  Uiso   1.00
H227   H     0.25293   0.35238   0.37021   0.00000  Uiso   1.00
H228   H     0.24913   0.39547   0.42423   0.00000  Uiso   1.00
H229   H     0.33992   0.05273   0.92340   0.00000  Uiso   1.00
H230   H     0.23144   0.41650   0.38120   0.00000  Uiso   1.00
H231   H     0.29775   0.44511   0.37292   0.00000  Uiso   1.00
H232   H     0.30727   0.42769   0.41874   0.00000  Uiso   1.00
H233   H     0.33344   0.02795   0.87899   0.00000  Uiso   1.00
H234   H     0.27450   0.06456   0.86802   0.00000  Uiso   1.00
H235   H     0.28083   0.08579   0.91342   0.00000  Uiso   1.00
H236   H     0.43034   0.14797   0.15692   0.00000  Uiso   1.00
H237   H     0.41065   0.13481   0.11098   0.00000  Uiso   1.00
H238   H     0.44779   0.10868   0.13139   0.00000  Uiso   1.00
H239   H     0.46955   0.14864   0.07788   0.00000  Uiso   1.00
H240   H     0.48996   0.16074   0.12339   0.00000  Uiso   1.00
H241   H     0.11555   0.04863   0.11638   0.00000  Uiso   1.00
H242   H     0.44143   0.21107   0.13077   0.00000  Uiso   1.00
H243   H     0.42378   0.19926   0.08515   0.00000  Uiso   1.00
H244   H     0.45814   0.36228   0.84497   0.00000  Uiso   1.00
H245   H     0.43050   0.37417   0.88677   0.00000  Uiso   1.00
H246   H     0.47392   0.39611   0.87872   0.00000  Uiso   1.00
H247   H     0.48237   0.35052   0.92930   0.00000  Uiso   1.00
H248   H     0.00546   0.33549   0.88626   0.00000  Uiso   1.00
H249   H     0.44644   0.29691   0.87127   0.00000  Uiso   1.00
H250   H     0.43061   0.30946   0.91726   0.00000  Uiso   1.00
H251   H     0.36488   0.47303   0.15933   0.00000  Uiso   1.00
H252   H     0.10237   0.00288   0.12978   0.00000  Uiso   1.00
H253   H     0.38444   0.45141   0.11685   0.00000  Uiso   1.00
H254   H     0.39753   0.49722   0.13013   0.00000  Uiso   1.00
H255   H     0.35463   0.00079   0.07589   0.00000  Uiso   1.00
H256   H     0.33344   0.01861   0.11876   0.00000  Uiso   1.00
H257   H     0.30491   0.45223   0.12716   0.00000  Uiso   1.00
H258   H     0.32239   0.44271   0.08137   0.00000  Uiso   1.00
H259   H     0.16564   0.41313   0.84176   0.00000  Uiso   1.00
H260   H     0.15871   0.38832   0.88645   0.00000  Uiso   1.00
H261   H     0.12442   0.41993   0.86938   0.00000  Uiso   1.00
H262   H     0.16016   0.44710   0.92335   0.00000  Uiso   1.00
H263   H     0.14545   0.49906   0.07577   0.00000  Uiso   1.00
H264   H     0.16657   0.47194   0.87897   0.00000  Uiso   1.00
H265   H     0.22554   0.43540   0.86791   0.00000  Uiso   1.00
H266   H     0.21927   0.41410   0.91328   0.00000  Uiso   1.00
H267   H     0.04017   0.36277   0.15489   0.00000  Uiso   1.00
H268   H     0.06767   0.37485   0.11309   0.00000  Uiso   1.00
H269   H     0.02391   0.39635   0.12104   0.00000  Uiso   1.00
H270   H     0.01611   0.35057   0.07061   0.00000  Uiso   1.00
H271   H     0.49334   0.33533   0.11371   0.00000  Uiso   1.00
H272   H     0.05305   0.29743   0.12861   0.00000  Uiso   1.00
H273   H     0.06857   0.31016   0.08260   0.00000  Uiso   1.00
H274   H     0.16650   0.48140   0.11880   0.00000  Uiso   1.00
H275   H     0.06981   0.14816   0.84261   0.00000  Uiso   1.00
H276   H     0.09002   0.13504   0.88833   0.00000  Uiso   1.00
H277   H     0.05288   0.10883   0.86830   0.00000  Uiso   1.00
H278   H     0.03127   0.14866   0.92203   0.00000  Uiso   1.00
H279   H     0.01045   0.16085   0.87672   0.00000  Uiso   1.00
H280   H     0.05879   0.21119   0.86912   0.00000  Uiso   1.00
H281   H     0.07658   0.19936   0.91471   0.00000  Uiso   1.00
H282   H     0.37460   0.31874   0.61477   0.00000  Uiso   1.00
H283   H     0.35279   0.27543   0.62378   0.00000  Uiso   1.00
H284   H     0.38711   0.29161   0.65674   0.00000  Uiso   1.00
H285   H     0.19510   0.04772   0.12705   0.00000  Uiso   1.00
H286   H     0.39758   0.26630   0.57261   0.00000  Uiso   1.00
H287   H     0.41334   0.24382   0.61572   0.00000  Uiso   1.00
H288   H     0.45212   0.30307   0.62908   0.00000  Uiso   1.00
H289   H     0.43879   0.31829   0.58315   0.00000  Uiso   1.00
H290   H     0.11334   0.28991   0.34344   0.00000  Uiso   1.00
H291   H     0.12603   0.31688   0.38543   0.00000  Uiso   1.00
H292   H     0.14741   0.27323   0.37651   0.00000  Uiso   1.00
H293   H     0.10243   0.26475   0.42753   0.00000  Uiso   1.00
H294   H     0.08645   0.24260   0.38436   0.00000  Uiso   1.00
H295   H     0.04837   0.30255   0.37110   0.00000  Uiso   1.00
H296   H     0.17766   0.05721   0.08123   0.00000  Uiso   1.00
H297   H     0.06186   0.31742   0.41706   0.00000  Uiso   1.00
H298   H     0.16313   0.41572   0.65819   0.00000  Uiso   1.00
H299   H     0.13831   0.40879   0.61350   0.00000  Uiso   1.00
H300   H     0.16991   0.37450   0.63057   0.00000  Uiso   1.00
H301   H     0.19709   0.41020   0.57660   0.00000  Uiso   1.00
H302   H     0.22194   0.41662   0.62099   0.00000  Uiso   1.00
H303   H     0.18540   0.47559   0.63203   0.00000  Uiso   1.00
H304   H     0.16412   0.46932   0.58664   0.00000  Uiso   1.00
H305   H     0.22301   0.11489   0.34071   0.00000  Uiso   1.00
H306   H     0.20140   0.13443   0.38320   0.00000  Uiso   1.00
H307   H     0.33438   0.08682   0.84187   0.00000  Uiso   1.00
H308   H     0.24720   0.14754   0.36992   0.00000  Uiso   1.00
H309   H     0.25081   0.10464   0.42413   0.00000  Uiso   1.00
H310   H     0.26862   0.08345   0.38126   0.00000  Uiso   1.00
H311   H     0.20224   0.05490   0.37286   0.00000  Uiso   1.00
H312   H     0.19273   0.07239   0.41866   0.00000  Uiso   1.00
H313   H     0.10352   0.18371   0.65647   0.00000  Uiso   1.00
H314   H     0.11653   0.16305   0.61094   0.00000  Uiso   1.00
H315   H     0.14189   0.20135   0.62971   0.00000  Uiso   1.00
H316   H     0.10061   0.22082   0.57633   0.00000  Uiso   1.00
H317   H     0.08837   0.24196   0.62145   0.00000  Uiso   1.00
H318   H     0.34140   0.11155   0.88660   0.00000  Uiso   1.00
H319   H     0.03979   0.19182   0.63058   0.00000  Uiso   1.00
H320   H     0.05158   0.17413   0.58499   0.00000  Uiso   1.00
H321   H     0.39631   0.18370   0.34394   0.00000  Uiso   1.00
H322   H     0.38326   0.16361   0.38971   0.00000  Uiso   1.00
H323   H     0.35796   0.20188   0.37049   0.00000  Uiso   1.00
H324   H     0.39935   0.22154   0.42368   0.00000  Uiso   1.00
H325   H     0.41148   0.24226   0.37834   0.00000  Uiso   1.00
H326   H     0.46011   0.19201   0.36947   0.00000  Uiso   1.00
H327   H     0.44834   0.17443   0.41508   0.00000  Uiso   1.00
H328   H     0.33694   0.08425   0.65822   0.00000  Uiso   1.00
O329   O     0.25000   0.00000   0.25000   0.00000  Uiso   1.00
O330   O     0.25000   0.46964   0.66317   0.00000  Uiso   1.00
O331   O     0.46964   0.25000   0.33683   0.00000  Uiso   1.00
O332   O     0.03036   0.25000   0.66317   0.00000  Uiso   1.00
O333   O     0.00000   0.21964   0.83683   0.00000  Uiso   1.00
O334   O     0.00000   0.28036   0.16317   0.00000  Uiso   1.00
O335   O     0.28036   0.00000   0.83683   0.00000  Uiso   1.00
O336   O     0.21964   0.00000   0.16317   0.00000  Uiso   1.00
O337   O    -0.00000   0.28036   0.83683   0.00000  Uiso   1.00
O338   O     0.00000   0.21964   0.16317   0.00000  Uiso   1.00
O339   O     0.21964   0.00000   0.83683   0.00000  Uiso   1.00
O340   O     0.25000   0.00000   0.75000   0.00000  Uiso   1.00
O341   O     0.28036   0.00000   0.16317   0.00000  Uiso   1.00
O342   O     0.20725   0.07307   0.27282   0.00000  Uiso   1.00
O343   O     0.29274   0.42693   0.72718   0.00000  Uiso   1.00
O344   O     0.42693   0.20725   0.27282   0.00000  Uiso   1.00
O345   O     0.07307   0.29274   0.72718   0.00000  Uiso   1.00
O346   O     0.29274   0.42693   0.27282   0.00000  Uiso   1.00
O347   O     0.20725   0.07307   0.72718   0.00000  Uiso   1.00
O348   O     0.07307   0.29274   0.27282   0.00000  Uiso   1.00
O349   O     0.42693   0.20725   0.72718   0.00000  Uiso   1.00
O350   O     0.20725   0.42693   0.72718   0.00000  Uiso   1.00
O351   O    -0.00000   0.25000   0.25000   0.00000  Uiso   1.00
O352   O     0.29274   0.07307   0.27282   0.00000  Uiso   1.00
O353   O     0.42693   0.29274   0.72718   0.00000  Uiso   1.00
O354   O     0.07307   0.20725   0.27282   0.00000  Uiso   1.00
O355   O     0.29274   0.07307   0.72718   0.00000  Uiso   1.00
O356   O     0.20725   0.42693   0.27282   0.00000  Uiso   1.00
O357   O     0.07307   0.20725   0.72718   0.00000  Uiso   1.00
O358   O     0.42693   0.29274   0.27282   0.00000  Uiso   1.00
O359   O     0.45725   0.32307   0.77282   0.00000  Uiso   1.00
O360   O     0.04274   0.17693   0.22718   0.00000  Uiso   1.00
O361   O     0.17693   0.45725   0.77282   0.00000  Uiso   1.00
O362   O     0.00000   0.25000   0.75000   0.00000  Uiso   1.00
O363   O     0.32307   0.04275   0.22718   0.00000  Uiso   1.00
O364   O     0.04274   0.17693   0.77282   0.00000  Uiso   1.00
O365   O     0.45725   0.32307   0.22718   0.00000  Uiso   1.00
O366   O     0.32307   0.04275   0.77282   0.00000  Uiso   1.00
O367   O     0.17693   0.45725   0.22718   0.00000  Uiso   1.00
O368   O     0.45725   0.17693   0.22718   0.00000  Uiso   1.00
O369   O     0.04274   0.32307   0.77282   0.00000  Uiso   1.00
O370   O     0.17693   0.04275   0.22718   0.00000  Uiso   1.00
O371   O     0.32307   0.45725   0.77282   0.00000  Uiso   1.00
O372   O     0.04274   0.32307   0.22718   0.00000  Uiso   1.00
O373   O     0.25000   0.46964   0.33683   0.00000  Uiso   1.00
O374   O     0.45725   0.17693   0.77282   0.00000  Uiso   1.00
O375   O     0.32307   0.45725   0.22718   0.00000  Uiso   1.00
O376   O     0.17693   0.04275   0.77282   0.00000  Uiso   1.00
O377   O     0.25000   0.03036   0.66317   0.00000  Uiso   1.00
O378   O     0.03036   0.25000   0.33683   0.00000  Uiso   1.00
O379   O     0.46964   0.25000   0.66317   0.00000  Uiso   1.00
O380   O     0.25000   0.03036   0.33683   0.00000  Uiso   1.00
Zn381  Zn    0.20660   0.00000   0.21760   0.00000  Uiso   1.00
Zn382  Zn    0.04340   0.25000   0.28240   0.00000  Uiso   1.00
Zn383  Zn    0.25000   0.45660   0.71760   0.00000  Uiso   1.00
Zn384  Zn    0.25000   0.04340   0.28240   0.00000  Uiso   1.00
Zn385  Zn    0.04340   0.25000   0.71760   0.00000  Uiso   1.00
Zn386  Zn    0.45660   0.25000   0.28240   0.00000  Uiso   1.00
Zn387  Zn    0.25000   0.04340   0.71760   0.00000  Uiso   1.00
Zn388  Zn    0.25000   0.45660   0.28240   0.00000  Uiso   1.00
Zn389  Zn    0.29340  -0.00000   0.78240   0.00000  Uiso   1.00
Zn390  Zn    0.00000   0.20660   0.21760   0.00000  Uiso   1.00
Zn391  Zn   -0.00000   0.29340   0.78240   0.00000  Uiso   1.00
Zn392  Zn    0.29340   0.00000   0.21760   0.00000  Uiso   1.00
Zn393  Zn    0.20660  -0.00000   0.78240   0.00000  Uiso   1.00
Zn394  Zn    0.00000   0.29340   0.21760   0.00000  Uiso   1.00
Zn395  Zn    0.00000   0.20660   0.78240   0.00000  Uiso   1.00
Zn396  Zn    0.45660   0.25000   0.71760   0.00000  Uiso   1.00
C397   C     0.72068   0.01512   0.03995   0.00000  Uiso   1.00
C398   C     0.52603   0.26916   0.45945   0.00000  Uiso   1.00
C399   C     0.84808   0.40193   0.75000   0.00000  Uiso   1.00
C400   C     0.90189   0.15189   0.25000   0.00000  Uiso   1.00
C401   C     0.59813   0.34812   0.75002   0.00000  Uiso   1.00
C402   C     0.84811   0.40190   0.25000   0.00000  Uiso   1.00
C403   C     0.65189   0.09811   0.75000   0.00000  Uiso   1.00
C404   C     0.59809   0.15191   0.75000   0.00000  Uiso   1.00
C405   C     0.90192   0.34808   0.25000   0.00000  Uiso   1.00
C406   C     0.65189   0.40189   0.75000   0.00000  Uiso   1.00
C407   C     0.84812   0.09812   0.25000   0.00000  Uiso   1.00
C408   C     0.90190   0.34811   0.74999   0.00000  Uiso   1.00
C409   C     0.72225   0.48191   0.54192   0.00000  Uiso   1.00
C410   C     0.59809   0.15192   0.25001   0.00000  Uiso   1.00
C411   C     0.84811   0.09811   0.75000   0.00000  Uiso   1.00
C412   C     0.65191   0.40192   0.25000   0.00000  Uiso   1.00
C413   C     0.75000   0.49996   0.10149   0.00000  Uiso   1.00
C414   C     0.75002   0.49996   0.89725   0.00000  Uiso   1.00
C415   C     0.99931   0.24982   0.10207   0.00000  Uiso   1.00
C416   C     0.50068   0.24980   0.89790   0.00000  Uiso   1.00
C417   C     0.99955   0.24917   0.60212   0.00000  Uiso   1.00
C418   C     0.50045   0.24912   0.39791   0.00000  Uiso   1.00
C419   C     0.75000   0.00000   0.60275   0.00000  Uiso   1.00
C420   C     0.73476   0.02935   0.46002   0.00000  Uiso   1.00
C421   C     0.74999   0.00001   0.39851   0.00000  Uiso   1.00
C422   C     0.68760   0.03424   0.09948   0.00000  Uiso   1.00
C423   C     0.65637   0.00672   0.10464   0.00000  Uiso   1.00
C424   C     0.62542   0.02251   0.12896   0.00000  Uiso   1.00
C425   C     0.78633   0.06013   0.89721   0.00000  Uiso   1.00
C426   C     0.82769   0.05416   0.89401   0.00000  Uiso   1.00
C427   C     0.84580   0.08510   0.87157   0.00000  Uiso   1.00
C428   C     0.94950   0.19976   0.10225   0.00000  Uiso   1.00
C429   C     0.96398   0.16065   0.10681   0.00000  Uiso   1.00
C430   C     0.93640   0.13660   0.12785   0.00000  Uiso   1.00
C431   C     0.52517   0.22741   0.54128   0.00000  Uiso   1.00
C432   C     0.95610   0.30481   0.90047   0.00000  Uiso   1.00
C433   C     0.97815   0.34044   0.89931   0.00000  Uiso   1.00
C434   C     0.95878   0.37001   0.87599   0.00000  Uiso   1.00
C435   C     0.81242   0.46568   0.09959   0.00000  Uiso   1.00
C436   C     0.84362   0.49324   0.10476   0.00000  Uiso   1.00
C437   C     0.87450   0.47757   0.12928   0.00000  Uiso   1.00
C438   C     0.71373   0.43978   0.89712   0.00000  Uiso   1.00
C439   C     0.67236   0.44572   0.89395   0.00000  Uiso   1.00
C440   C     0.65425   0.41479   0.87147   0.00000  Uiso   1.00
C441   C     0.54319   0.30522   0.09944   0.00000  Uiso   1.00
C442   C     0.97466   0.22763   0.45874   0.00000  Uiso   1.00
C443   C     0.52055   0.34059   0.10061   0.00000  Uiso   1.00
C444   C     0.53945   0.37042   0.12386   0.00000  Uiso   1.00
C445   C     0.55083   0.19986   0.89765   0.00000  Uiso   1.00
C446   C     0.53655   0.16074   0.89309   0.00000  Uiso   1.00
C447   C     0.56411   0.13678   0.87174   0.00000  Uiso   1.00
C448   C     0.94374   0.29301   0.60019   0.00000  Uiso   1.00
C449   C     0.90815   0.27095   0.60234   0.00000  Uiso   1.00
C450   C     0.87892   0.29060   0.62587   0.00000  Uiso   1.00
C451   C     0.55662   0.29226   0.39995   0.00000  Uiso   1.00
C452   C     0.59195   0.26961   0.39779   0.00000  Uiso   1.00
C453   C     0.77771   0.01814   0.54194   0.00000  Uiso   1.00
C454   C     0.62144   0.28880   0.37433   0.00000  Uiso   1.00
C455   C     0.68979   0.46377   0.60283   0.00000  Uiso   1.00
C456   C     0.69572   0.42241   0.60600   0.00000  Uiso   1.00
C457   C     0.66478   0.40432   0.62848   0.00000  Uiso   1.00
C458   C     0.71570   0.06242   0.40044   0.00000  Uiso   1.00
C459   C     0.74325   0.09362   0.39527   0.00000  Uiso   1.00
C460   C     0.72756   0.12450   0.37076   0.00000  Uiso   1.00
C461   C     0.55044   0.19998   0.60183   0.00000  Uiso   1.00
C462   C     0.58912   0.21561   0.60555   0.00000  Uiso   1.00
C463   C     0.61426   0.18921   0.62702   0.00000  Uiso   1.00
C464   C     0.76520   0.47070   0.46004   0.00000  Uiso   1.00
C465   C     0.94946   0.20026   0.39821   0.00000  Uiso   1.00
C466   C     0.91077   0.21605   0.39447   0.00000  Uiso   1.00
C467   C     0.88558   0.18959   0.37332   0.00000  Uiso   1.00
C468   C     0.81021   0.03622   0.60285   0.00000  Uiso   1.00
C469   C     0.80431   0.07759   0.60604   0.00000  Uiso   1.00
C470   C     0.83527   0.09566   0.62851   0.00000  Uiso   1.00
C471   C     0.78429   0.43762   0.40050   0.00000  Uiso   1.00
C472   C     0.75677   0.40639   0.39535   0.00000  Uiso   1.00
C473   C     0.77255   0.37544   0.37102   0.00000  Uiso   1.00
C474   C     0.72030   0.01596   0.08045   0.00000  Uiso   1.00
C475   C     0.76811   0.02828   0.91763   0.00000  Uiso   1.00
C476   C     0.97717   0.22403   0.08202   0.00000  Uiso   1.00
C477   C     0.76818   0.02762   0.95809   0.00000  Uiso   1.00
C478   C     0.97865   0.27481   0.91926   0.00000  Uiso   1.00
C479   C     0.77971   0.48392   0.08050   0.00000  Uiso   1.00
C480   C     0.73194   0.47161   0.91759   0.00000  Uiso   1.00
C481   C     0.52109   0.27495   0.08070   0.00000  Uiso   1.00
C482   C     0.52305   0.22409   0.91793   0.00000  Uiso   1.00
C483   C     0.97344   0.27028   0.58106   0.00000  Uiso   1.00
C484   C     0.52665   0.26998   0.41900   0.00000  Uiso   1.00
C485   C     0.72164   0.48196   0.58238   0.00000  Uiso   1.00
C486   C     0.73395   0.02972   0.41951   0.00000  Uiso   1.00
C487   C     0.52499   0.22680   0.58176   0.00000  Uiso   1.00
C488   C     0.97864   0.22256   0.04157   0.00000  Uiso   1.00
C489   C     0.97491   0.22697   0.41825   0.00000  Uiso   1.00
C490   C     0.77835   0.01806   0.58240   0.00000  Uiso   1.00
C491   C     0.76601   0.47032   0.41954   0.00000  Uiso   1.00
C492   C     0.75002   0.49990   0.02014   0.00000  Uiso   1.00
C493   C     0.75003   0.49991   0.97798   0.00000  Uiso   1.00
C494   C     0.50042   0.24693   0.02107   0.00000  Uiso   1.00
C495   C     0.99965   0.24693   0.97889   0.00000  Uiso   1.00
C496   C     0.99982   0.24849   0.52109   0.00000  Uiso   1.00
C497   C     0.50006   0.24850   0.47895   0.00000  Uiso   1.00
C498   C     0.74997   0.00004   0.52202   0.00000  Uiso   1.00
C499   C     0.97859   0.27296   0.95968   0.00000  Uiso   1.00
C500   C     0.74997   0.00003   0.47986   0.00000  Uiso   1.00
C501   C     0.75000   0.00000   0.35550   0.00000  Uiso   1.00
C502   C     0.75000  -0.00000   0.64497   0.00000  Uiso   1.00
C503   C     0.50010   0.24993   0.35529   0.00000  Uiso   1.00
C504   C     0.99991   0.24995   0.64473   0.00000  Uiso   1.00
C505   C     0.50012   0.25001   0.85528   0.00000  Uiso   1.00
C506   C     0.99988   0.25002   0.14471   0.00000  Uiso   1.00
C507   C     0.75000   0.49999   0.85503   0.00000  Uiso   1.00
C508   C     0.75000   0.49999   0.14450   0.00000  Uiso   1.00
C509   C     0.67995   0.07004   0.25000   0.00000  Uiso   1.00
C510   C     0.77934   0.48470   0.03999   0.00000  Uiso   1.00
C511   C     0.82003   0.42997   0.75000   0.00000  Uiso   1.00
C512   C     0.92994   0.17994   0.25000   0.00000  Uiso   1.00
C513   C     0.57007   0.32006   0.75001   0.00000  Uiso   1.00
C514   C     0.82004   0.42996   0.25000   0.00000  Uiso   1.00
C515   C     0.67995   0.07005   0.75000   0.00000  Uiso   1.00
C516   C     0.57006   0.32006   0.25001   0.00000  Uiso   1.00
C517   C     0.92994   0.17993   0.74999   0.00000  Uiso   1.00
C518   C     0.67994   0.42994   0.75000   0.00000  Uiso   1.00
C519   C     0.82006   0.07006   0.25000   0.00000  Uiso   1.00
C520   C     0.92996   0.32005   0.74999   0.00000  Uiso   1.00
C521   C     0.73188   0.47222   0.95805   0.00000  Uiso   1.00
C522   C     0.57004   0.17996   0.25000   0.00000  Uiso   1.00
C523   C     0.82006   0.07006   0.75000   0.00000  Uiso   1.00
C524   C     0.67995   0.42995   0.25000   0.00000  Uiso   1.00
C525   C     0.57004   0.17996   0.75000   0.00000  Uiso   1.00
C526   C     0.92996   0.32004   0.25000   0.00000  Uiso   1.00
C527   C     0.63900   0.38788   0.21485   0.00000  Uiso   1.00
C528   C     0.88296   0.09032   0.76488   0.00000  Uiso   1.00
C529   C     0.60814   0.13501   0.21519   0.00000  Uiso   1.00
C530   C     0.88666   0.35982   0.78505   0.00000  Uiso   1.00
C531   C     0.88354   0.08974   0.23716   0.00000  Uiso   1.00
C532   C     0.52120   0.27307   0.04028   0.00000  Uiso   1.00
C533   C     0.61704   0.40969   0.76486   0.00000  Uiso   1.00
C534   C     0.89186   0.36500   0.21519   0.00000  Uiso   1.00
C535   C     0.58949   0.11627   0.76178   0.00000  Uiso   1.00
C536   C     0.61627   0.08951   0.76183   0.00000  Uiso   1.00
C537   C     0.86481   0.39161   0.21515   0.00000  Uiso   1.00
C538   C     0.59034   0.38297   0.76487   0.00000  Uiso   1.00
C539   C     0.91029   0.11645   0.23726   0.00000  Uiso   1.00
C540   C     0.86016   0.38707   0.78511   0.00000  Uiso   1.00
C541   C     0.63518   0.10839   0.21516   0.00000  Uiso   1.00
C542   C     0.90967   0.11702   0.76486   0.00000  Uiso   1.00
C543   C     0.52164   0.22264   0.95839   0.00000  Uiso   1.00
C544   C     0.61256   0.36066   0.21490   0.00000  Uiso   1.00
C545   C     0.86703   0.15965   0.73509   0.00000  Uiso   1.00
C546   C     0.61063   0.36260   0.28512   0.00000  Uiso   1.00
C547   C     0.86295   0.38987   0.71489   0.00000  Uiso   1.00
C548   C     0.64162   0.11482   0.28485   0.00000  Uiso   1.00
C549   C     0.63298   0.34032   0.73517   0.00000  Uiso   1.00
C550   C     0.86644   0.16029   0.26274   0.00000  Uiso   1.00
C551   C     0.66049   0.13373   0.73818   0.00000  Uiso   1.00
C552   C     0.85840   0.38519   0.28484   0.00000  Uiso   1.00
C553   C     0.88501   0.35815   0.28481   0.00000  Uiso   1.00
C554   C     0.97398   0.26942   0.54062   0.00000  Uiso   1.00
C555   C     0.63373   0.16052   0.73822   0.00000  Uiso   1.00
C556   C     0.83974   0.13354   0.26283   0.00000  Uiso   1.00
C557   C     0.65969   0.36704   0.73515   0.00000  Uiso   1.00
C558   C     0.61501   0.14186   0.28482   0.00000  Uiso   1.00
C559   C     0.89020   0.36338   0.71494   0.00000  Uiso   1.00
C560   C     0.63786   0.38904   0.28516   0.00000  Uiso   1.00
C561   C     0.84032   0.13295   0.73510   0.00000  Uiso   1.00
C562   C     0.59812   0.34813   0.25001   0.00000  Uiso   1.00
C563   C     0.90188   0.15187   0.74998   0.00000  Uiso   1.00
C564   C     0.65189   0.09810   0.25000   0.00000  Uiso   1.00
F565   F     0.69236   0.02946   0.01943   0.00000  Uiso   1.00
F566   F     0.55085   0.28865   0.48016   0.00000  Uiso   1.00
F567   F     0.69549   0.46469   0.52171   0.00000  Uiso   1.00
F568   F     0.72040   0.05767   0.48051   0.00000  Uiso   1.00
F569   F     0.54948   0.20658   0.52126   0.00000  Uiso   1.00
F570   F     0.95026   0.20701   0.47875   0.00000  Uiso   1.00
F571   F     0.80447   0.03537   0.52173   0.00000  Uiso   1.00
F572   F     0.77955   0.44239   0.48056   0.00000  Uiso   1.00
F573   F     0.65292   0.39961   0.18065   0.00000  Uiso   1.00
F574   F     0.89156   0.05667   0.77873   0.00000  Uiso   1.00
F575   F     0.59265   0.14508   0.18111   0.00000  Uiso   1.00
F576   F     0.78544   0.05435   0.97832   0.00000  Uiso   1.00
F577   F     0.89643   0.34390   0.81895   0.00000  Uiso   1.00
F578   F     0.89263   0.05551   0.22541   0.00000  Uiso   1.00
F579   F     0.60843   0.44335   0.77868   0.00000  Uiso   1.00
F580   F     0.90734   0.35494   0.18111   0.00000  Uiso   1.00
F581   F     0.55499   0.10704   0.77235   0.00000  Uiso   1.00
F582   F     0.60705   0.05504   0.77249   0.00000  Uiso   1.00
F583   F     0.85409   0.40639   0.18098   0.00000  Uiso   1.00
F584   F     0.55667   0.39160   0.77867   0.00000  Uiso   1.00
F585   F     0.94458   0.10730   0.22573   0.00000  Uiso   1.00
F586   F     0.84538   0.39805   0.81921   0.00000  Uiso   1.00
F587   F     0.95767   0.19825   0.02185   0.00000  Uiso   1.00
F588   F     0.64589   0.09362   0.18099   0.00000  Uiso   1.00
F589   F     0.94334   0.10840   0.77866   0.00000  Uiso   1.00
F590   F     0.60212   0.34552   0.18085   0.00000  Uiso   1.00
F591   F     0.85841   0.19331   0.72126   0.00000  Uiso   1.00
F592   F     0.59547   0.35221   0.31916   0.00000  Uiso   1.00
F593   F     0.85197   0.40468   0.68078   0.00000  Uiso   1.00
F594   F     0.65639   0.10410   0.31902   0.00000  Uiso   1.00
F595   F     0.64161   0.30665   0.72140   0.00000  Uiso   1.00
F596   F     0.85730   0.19459   0.27423   0.00000  Uiso   1.00
F597   F     0.69496   0.14295   0.72752   0.00000  Uiso   1.00
F598   F     0.95824   0.29694   0.98069   0.00000  Uiso   1.00
F599   F     0.84364   0.39591   0.31901   0.00000  Uiso   1.00
F600   F     0.89508   0.34266   0.31889   0.00000  Uiso   1.00
F601   F     0.64297   0.19501   0.72767   0.00000  Uiso   1.00
F602   F     0.80550   0.14263   0.27457   0.00000  Uiso   1.00
F603   F     0.69334   0.35843   0.72133   0.00000  Uiso   1.00
F604   F     0.60496   0.15736   0.31890   0.00000  Uiso   1.00
F605   F     0.90616   0.35366   0.68105   0.00000  Uiso   1.00
F606   F     0.64959   0.40298   0.31936   0.00000  Uiso   1.00
F607   F     0.80666   0.14155   0.72126   0.00000  Uiso   1.00
F608   F     0.80767   0.47035   0.01951   0.00000  Uiso   1.00
F609   F     0.71463   0.44546   0.97824   0.00000  Uiso   1.00
F610   F     0.54130   0.29716   0.01927   0.00000  Uiso   1.00
F611   F     0.54283   0.19841   0.97809   0.00000  Uiso   1.00
F612   F     0.94925   0.28916   0.51994   0.00000  Uiso   1.00
H613   H     0.63493   0.02716   0.15903   0.00000  Uiso   1.00
H614   H     0.87562   0.07993   0.86944   0.00000  Uiso   1.00
H615   H     0.86173   0.09119   0.61352   0.00000  Uiso   1.00
H616   H     0.83015   0.12549   0.63062   0.00000  Uiso   1.00
H617   H     0.80293   0.08981   0.57665   0.00000  Uiso   1.00
H618   H     0.77810   0.08339   0.62104   0.00000  Uiso   1.00
H619   H     0.81460   0.02440   0.63205   0.00000  Uiso   1.00
H620   H     0.83587   0.03067   0.58666   0.00000  Uiso   1.00
H621   H     0.77718   0.38494   0.34095   0.00000  Uiso   1.00
H622   H     0.79869   0.36557   0.38360   0.00000  Uiso   1.00
H623   H     0.75293   0.35238   0.37021   0.00000  Uiso   1.00
H624   H     0.74913   0.39547   0.42423   0.00000  Uiso   1.00
H625   H     0.83992   0.05273   0.92340   0.00000  Uiso   1.00
H626   H     0.73144   0.41650   0.38120   0.00000  Uiso   1.00
H627   H     0.79775   0.44511   0.37292   0.00000  Uiso   1.00
H628   H     0.80727   0.42769   0.41874   0.00000  Uiso   1.00
H629   H     0.83344   0.02795   0.87899   0.00000  Uiso   1.00
H630   H     0.77450   0.06456   0.86802   0.00000  Uiso   1.00
H631   H     0.78083   0.08579   0.91342   0.00000  Uiso   1.00
H632   H     0.93034   0.14797   0.15692   0.00000  Uiso   1.00
H633   H     0.91065   0.13481   0.11098   0.00000  Uiso   1.00
H634   H     0.94779   0.10868   0.13139   0.00000  Uiso   1.00
H635   H     0.96955   0.14864   0.07788   0.00000  Uiso   1.00
H636   H     0.98996   0.16074   0.12339   0.00000  Uiso   1.00
H637   H     0.61555   0.04863   0.11638   0.00000  Uiso   1.00
H638   H     0.94143   0.21107   0.13077   0.00000  Uiso   1.00
H639   H     0.92378   0.19926   0.08515   0.00000  Uiso   1.00
H640   H     0.95814   0.36228   0.84497   0.00000  Uiso   1.00
H641   H     0.93050   0.37417   0.88677   0.00000  Uiso   1.00
H642   H     0.97392   0.39611   0.87872   0.00000  Uiso   1.00
H643   H     0.98237   0.35052   0.92930   0.00000  Uiso   1.00
H644   H     0.50546   0.33549   0.88626   0.00000  Uiso   1.00
H645   H     0.94644   0.29691   0.87127   0.00000  Uiso   1.00
H646   H     0.93061   0.30946   0.91726   0.00000  Uiso   1.00
H647   H     0.86488   0.47303   0.15933   0.00000  Uiso   1.00
H648   H     0.60237   0.00288   0.12978   0.00000  Uiso   1.00
H649   H     0.88444   0.45141   0.11685   0.00000  Uiso   1.00
H650   H     0.89753   0.49722   0.13013   0.00000  Uiso   1.00
H651   H     0.85463   0.00079   0.07589   0.00000  Uiso   1.00
H652   H     0.83344   0.01861   0.11876   0.00000  Uiso   1.00
H653   H     0.80491   0.45223   0.12716   0.00000  Uiso   1.00
H654   H     0.82239   0.44271   0.08137   0.00000  Uiso   1.00
H655   H     0.66564   0.41313   0.84176   0.00000  Uiso   1.00
H656   H     0.65871   0.38832   0.88645   0.00000  Uiso   1.00
H657   H     0.62442   0.41993   0.86938   0.00000  Uiso   1.00
H658   H     0.66016   0.44710   0.92335   0.00000  Uiso   1.00
H659   H     0.64545   0.49906   0.07577   0.00000  Uiso   1.00
H660   H     0.66657   0.47194   0.87897   0.00000  Uiso   1.00
H661   H     0.72554   0.43540   0.86791   0.00000  Uiso   1.00
H662   H     0.71927   0.41410   0.91328   0.00000  Uiso   1.00
H663   H     0.54017   0.36277   0.15489   0.00000  Uiso   1.00
H664   H     0.56767   0.37485   0.11309   0.00000  Uiso   1.00
H665   H     0.52391   0.39635   0.12104   0.00000  Uiso   1.00
H666   H     0.51611   0.35057   0.07061   0.00000  Uiso   1.00
H667   H     0.99334   0.33533   0.11371   0.00000  Uiso   1.00
H668   H     0.55305   0.29743   0.12861   0.00000  Uiso   1.00
H669   H     0.56857   0.31016   0.08260   0.00000  Uiso   1.00
H670   H     0.66650   0.48140   0.11880   0.00000  Uiso   1.00
H671   H     0.56981   0.14816   0.84261   0.00000  Uiso   1.00
H672   H     0.59002   0.13504   0.88833   0.00000  Uiso   1.00
H673   H     0.55288   0.10883   0.86830   0.00000  Uiso   1.00
H674   H     0.53127   0.14866   0.92203   0.00000  Uiso   1.00
H675   H     0.51045   0.16085   0.87672   0.00000  Uiso   1.00
H676   H     0.55879   0.21119   0.86912   0.00000  Uiso   1.00
H677   H     0.57658   0.19936   0.91471   0.00000  Uiso   1.00
H678   H     0.87460   0.31874   0.61477   0.00000  Uiso   1.00
H679   H     0.85279   0.27543   0.62378   0.00000  Uiso   1.00
H680   H     0.88711   0.29161   0.65674   0.00000  Uiso   1.00
H681   H     0.69510   0.04772   0.12705   0.00000  Uiso   1.00
H682   H     0.89758   0.26630   0.57261   0.00000  Uiso   1.00
H683   H     0.91334   0.24382   0.61572   0.00000  Uiso   1.00
H684   H     0.95212   0.30307   0.62908   0.00000  Uiso   1.00
H685   H     0.93879   0.31829   0.58315   0.00000  Uiso   1.00
H686   H     0.61334   0.28991   0.34344   0.00000  Uiso   1.00
H687   H     0.62603   0.31688   0.38543   0.00000  Uiso   1.00
H688   H     0.64741   0.27323   0.37651   0.00000  Uiso   1.00
H689   H     0.60243   0.26475   0.42753   0.00000  Uiso   1.00
H690   H     0.58645   0.24260   0.38436   0.00000  Uiso   1.00
H691   H     0.54837   0.30255   0.37110   0.00000  Uiso   1.00
H692   H     0.67766   0.05721   0.08123   0.00000  Uiso   1.00
H693   H     0.56186   0.31742   0.41706   0.00000  Uiso   1.00
H694   H     0.66313   0.41572   0.65819   0.00000  Uiso   1.00
H695   H     0.63831   0.40879   0.61350   0.00000  Uiso   1.00
H696   H     0.66991   0.37450   0.63057   0.00000  Uiso   1.00
H697   H     0.69709   0.41020   0.57660   0.00000  Uiso   1.00
H698   H     0.72194   0.41662   0.62099   0.00000  Uiso   1.00
H699   H     0.68540   0.47559   0.63203   0.00000  Uiso   1.00
H700   H     0.66412   0.46932   0.58664   0.00000  Uiso   1.00
H701   H     0.72301   0.11489   0.34071   0.00000  Uiso   1.00
H702   H     0.70140   0.13443   0.38320   0.00000  Uiso   1.00
H703   H     0.83438   0.08682   0.84187   0.00000  Uiso   1.00
H704   H     0.74720   0.14754   0.36992   0.00000  Uiso   1.00
H705   H     0.75081   0.10464   0.42413   0.00000  Uiso   1.00
H706   H     0.76862   0.08345   0.38126   0.00000  Uiso   1.00
H707   H     0.70224   0.05490   0.37286   0.00000  Uiso   1.00
H708   H     0.69273   0.07239   0.41866   0.00000  Uiso   1.00
H709   H     0.60352   0.18371   0.65647   0.00000  Uiso   1.00
H710   H     0.61653   0.16305   0.61094   0.00000  Uiso   1.00
H711   H     0.64189   0.20135   0.62971   0.00000  Uiso   1.00
H712   H     0.60061   0.22082   0.57633   0.00000  Uiso   1.00
H713   H     0.58837   0.24196   0.62145   0.00000  Uiso   1.00
H714   H     0.84140   0.11155   0.88660   0.00000  Uiso   1.00
H715   H     0.53979   0.19182   0.63058   0.00000  Uiso   1.00
H716   H     0.55158   0.17413   0.58499   0.00000  Uiso   1.00
H717   H     0.89631   0.18370   0.34394   0.00000  Uiso   1.00
H718   H     0.88326   0.16361   0.38971   0.00000  Uiso   1.00
H719   H     0.85796   0.20188   0.37049   0.00000  Uiso   1.00
H720   H     0.89935   0.22154   0.42368   0.00000  Uiso   1.00
H721   H     0.91148   0.24226   0.37834   0.00000  Uiso   1.00
H722   H     0.96011   0.19201   0.36947   0.00000  Uiso   1.00
H723   H     0.94834   0.17443   0.41508   0.00000  Uiso   1.00
H724   H     0.83694   0.08425   0.65822   0.00000  Uiso   1.00
O725   O     0.75000   0.00000   0.25000   0.00000  Uiso   1.00
O726   O     0.75000   0.46964   0.66317   0.00000  Uiso   1.00
O727   O     0.96964   0.25000   0.33683   0.00000  Uiso   1.00
O728   O     0.53036   0.25000   0.66317   0.00000  Uiso   1.00
O729   O     0.50000   0.21964   0.83683   0.00000  Uiso   1.00
O730   O     0.50000   0.28036   0.16317   0.00000  Uiso   1.00
O731   O     0.78036   0.00000   0.83683   0.00000  Uiso   1.00
O732   O     0.71964   0.00000   0.16317   0.00000  Uiso   1.00
O733   O     0.50000   0.28036   0.83683   0.00000  Uiso   1.00
O734   O     0.50000   0.21964   0.16317   0.00000  Uiso   1.00
O735   O     0.71964   0.00000   0.83683   0.00000  Uiso   1.00
O736   O     0.75000   0.00000   0.75000   0.00000  Uiso   1.00
O737   O     0.78036   0.00000   0.16317   0.00000  Uiso   1.00
O738   O     0.70725   0.07307   0.27282   0.00000  Uiso   1.00
O739   O     0.79274   0.42693   0.72718   0.00000  Uiso   1.00
O740   O     0.92693   0.20725   0.27282   0.00000  Uiso   1.00
O741   O     0.57307   0.29274   0.72718   0.00000  Uiso   1.00
O742   O     0.79274   0.42693   0.27282   0.00000  Uiso   1.00
O743   O     0.70725   0.07307   0.72718   0.00000  Uiso   1.00
O744   O     0.57307   0.29274   0.27282   0.00000  Uiso   1.00
O745   O     0.92693   0.20725   0.72718   0.00000  Uiso   1.00
O746   O     0.70725   0.42693   0.72718   0.00000  Uiso   1.00
O747   O     0.50000   0.25000   0.25000   0.00000  Uiso   1.00
O748   O     0.79274   0.07307   0.27282   0.00000  Uiso   1.00
O749   O     0.92693   0.29274   0.72718   0.00000  Uiso   1.00
O750   O     0.57307   0.20725   0.27282   0.00000  Uiso   1.00
O751   O     0.79274   0.07307   0.72718   0.00000  Uiso   1.00
O752   O     0.70725   0.42693   0.27282   0.00000  Uiso   1.00
O753   O     0.57307   0.20725   0.72718   0.00000  Uiso   1.00
O754   O     0.92693   0.29274   0.27282   0.00000  Uiso   1.00
O755   O     0.95725   0.32307   0.77282   0.00000  Uiso   1.00
O756   O     0.54274   0.17693   0.22718   0.00000  Uiso   1.00
O757   O     0.67693   0.45725   0.77282   0.00000  Uiso   1.00
O758   O     0.50000   0.25000   0.75000   0.00000  Uiso   1.00
O759   O     0.82307   0.04275   0.22718   0.00000  Uiso   1.00
O760   O     0.54274   0.17693   0.77282   0.00000  Uiso   1.00
O761   O     0.95725   0.32307   0.22718   0.00000  Uiso   1.00
O762   O     0.82307   0.04275   0.77282   0.00000  Uiso   1.00
O763   O     0.67693   0.45725   0.22718   0.00000  Uiso   1.00
O764   O     0.95725   0.17693   0.22718   0.00000  Uiso   1.00
O765   O     0.54274   0.32307   0.77282   0.00000  Uiso   1.00
O766   O     0.67693   0.04275   0.22718   0.00000  Uiso   1.00
O767   O     0.82307   0.45725   0.77282   0.00000  Uiso   1.00
O768   O     0.54274   0.32307   0.22718   0.00000  Uiso   1.00
O769   O     0.75000   0.46964   0.33683   0.00000  Uiso   1.00
O770   O     0.95725   0.17693   0.77282   0.00000  Uiso   1.00
O771   O     0.82307   0.45725   0.22718   0.00000  Uiso   1.00
O772   O     0.67693   0.04275   0.77282   0.00000  Uiso   1.00
O773   O     0.75000   0.03036   0.66317   0.00000  Uiso   1.00
O774   O     0.53036   0.25000   0.33683   0.00000  Uiso   1.00
O775   O     0.96964   0.25000   0.66317   0.00000  Uiso   1.00
O776   O     0.75000   0.03036   0.33683   0.00000  Uiso   1.00
Zn777  Zn    0.70660   0.00000   0.21760   0.00000  Uiso   1.00
Zn778  Zn    0.54340   0.25000   0.28240   0.00000  Uiso   1.00
Zn779  Zn    0.75000   0.45660   0.71760   0.00000  Uiso   1.00
Zn780  Zn    0.75000   0.04340   0.28240   0.00000  Uiso   1.00
Zn781  Zn    0.54340   0.25000   0.71760   0.00000  Uiso   1.00
Zn782  Zn    0.95660   0.25000   0.28240   0.00000  Uiso   1.00
Zn783  Zn    0.75000   0.04340   0.71760   0.00000  Uiso   1.00
Zn784  Zn    0.75000   0.45660   0.28240   0.00000  Uiso   1.00
Zn785  Zn    0.79340  -0.00000   0.78240   0.00000  Uiso   1.00
Zn786  Zn    0.50000   0.20660   0.21760   0.00000  Uiso   1.00
Zn787  Zn    0.50000   0.29340   0.78240   0.00000  Uiso   1.00
Zn788  Zn    0.79340   0.00000   0.21760   0.00000  Uiso   1.00
Zn789  Zn    0.70660  -0.00000   0.78240   0.00000  Uiso   1.00
Zn790  Zn    0.50000   0.29340   0.21760   0.00000  Uiso   1.00
Zn791  Zn    0.50000   0.20660   0.78240   0.00000  Uiso   1.00
Zn792  Zn    0.95660   0.25000   0.71760   0.00000  Uiso   1.00
C793   C     0.22068   0.51512   0.03995   0.00000  Uiso   1.00
C794   C     0.02603   0.76916   0.45945   0.00000  Uiso   1.00
C795   C     0.34808   0.90193   0.75000   0.00000  Uiso   1.00
C796   C     0.40189   0.65189   0.25000   0.00000  Uiso   1.00
C797   C     0.09813   0.84812   0.75002   0.00000  Uiso   1.00
C798   C     0.34811   0.90190   0.25000   0.00000  Uiso   1.00
C799   C     0.15189   0.59811   0.75000   0.00000  Uiso   1.00
C800   C     0.09809   0.65191   0.75000   0.00000  Uiso   1.00
C801   C     0.40192   0.84808   0.25000   0.00000  Uiso   1.00
C802   C     0.15189   0.90189   0.75000   0.00000  Uiso   1.00
C803   C     0.34812   0.59812   0.25000   0.00000  Uiso   1.00
C804   C     0.40190   0.84811   0.74999   0.00000  Uiso   1.00
C805   C     0.22225   0.98191   0.54192   0.00000  Uiso   1.00
C806   C     0.09809   0.65192   0.25001   0.00000  Uiso   1.00
C807   C     0.34811   0.59811   0.75000   0.00000  Uiso   1.00
C808   C     0.15191   0.90192   0.25000   0.00000  Uiso   1.00
C809   C     0.25000   0.99996   0.10149   0.00000  Uiso   1.00
C810   C     0.25002   0.99996   0.89725   0.00000  Uiso   1.00
C811   C     0.49931   0.74982   0.10207   0.00000  Uiso   1.00
C812   C     0.00068   0.74980   0.89790   0.00000  Uiso   1.00
C813   C     0.49955   0.74917   0.60212   0.00000  Uiso   1.00
C814   C     0.00045   0.74912   0.39791   0.00000  Uiso   1.00
C815   C     0.25000   0.50000   0.60275   0.00000  Uiso   1.00
C816   C     0.23476   0.52935   0.46002   0.00000  Uiso   1.00
C817   C     0.24999   0.50001   0.39851   0.00000  Uiso   1.00
C818   C     0.18760   0.53424   0.09948   0.00000  Uiso   1.00
C819   C     0.15637   0.50672   0.10464   0.00000  Uiso   1.00
C820   C     0.12542   0.52251   0.12896   0.00000  Uiso   1.00
C821   C     0.28633   0.56013   0.89721   0.00000  Uiso   1.00
C822   C     0.32769   0.55416   0.89401   0.00000  Uiso   1.00
C823   C     0.34580   0.58510   0.87157   0.00000  Uiso   1.00
C824   C     0.44950   0.69976   0.10225   0.00000  Uiso   1.00
C825   C     0.46398   0.66065   0.10681   0.00000  Uiso   1.00
C826   C     0.43640   0.63660   0.12785   0.00000  Uiso   1.00
C827   C     0.02517   0.72741   0.54128   0.00000  Uiso   1.00
C828   C     0.45610   0.80481   0.90047   0.00000  Uiso   1.00
C829   C     0.47815   0.84044   0.89931   0.00000  Uiso   1.00
C830   C     0.45878   0.87001   0.87599   0.00000  Uiso   1.00
C831   C     0.31242   0.96568   0.09959   0.00000  Uiso   1.00
C832   C     0.34362   0.99324   0.10476   0.00000  Uiso   1.00
C833   C     0.37450   0.97757   0.12928   0.00000  Uiso   1.00
C834   C     0.21373   0.93978   0.89712   0.00000  Uiso   1.00
C835   C     0.17236   0.94572   0.89395   0.00000  Uiso   1.00
C836   C     0.15425   0.91479   0.87147   0.00000  Uiso   1.00
C837   C     0.04319   0.80522   0.09944   0.00000  Uiso   1.00
C838   C     0.47466   0.72763   0.45874   0.00000  Uiso   1.00
C839   C     0.02055   0.84059   0.10061   0.00000  Uiso   1.00
C840   C     0.03945   0.87042   0.12386   0.00000  Uiso   1.00
C841   C     0.05083   0.69986   0.89765   0.00000  Uiso   1.00
C842   C     0.03655   0.66074   0.89309   0.00000  Uiso   1.00
C843   C     0.06411   0.63678   0.87174   0.00000  Uiso   1.00
C844   C     0.44374   0.79301   0.60019   0.00000  Uiso   1.00
C845   C     0.40815   0.77095   0.60234   0.00000  Uiso   1.00
C846   C     0.37892   0.79060   0.62587   0.00000  Uiso   1.00
C847   C     0.05662   0.79226   0.39995   0.00000  Uiso   1.00
C848   C     0.09195   0.76961   0.39779   0.00000  Uiso   1.00
C849   C     0.27771   0.51814   0.54194   0.00000  Uiso   1.00
C850   C     0.12144   0.78880   0.37433   0.00000  Uiso   1.00
C851   C     0.18979   0.96377   0.60283   0.00000  Uiso   1.00
C852   C     0.19572   0.92241   0.60600   0.00000  Uiso   1.00
C853   C     0.16478   0.90432   0.62848   0.00000  Uiso   1.00
C854   C     0.21570   0.56242   0.40044   0.00000  Uiso   1.00
C855   C     0.24325   0.59362   0.39527   0.00000  Uiso   1.00
C856   C     0.22756   0.62450   0.37076   0.00000  Uiso   1.00
C857   C     0.05044   0.69998   0.60183   0.00000  Uiso   1.00
C858   C     0.08912   0.71561   0.60555   0.00000  Uiso   1.00
C859   C     0.11426   0.68921   0.62702   0.00000  Uiso   1.00
C860   C     0.26520   0.97070   0.46004   0.00000  Uiso   1.00
C861   C     0.44946   0.70026   0.39821   0.00000  Uiso   1.00
C862   C     0.41077   0.71605   0.39447   0.00000  Uiso   1.00
C863   C     0.38558   0.68959   0.37332   0.00000  Uiso   1.00
C864   C     0.31021   0.53622   0.60285   0.00000  Uiso   1.00
C865   C     0.30431   0.57759   0.60604   0.00000  Uiso   1.00
C866   C     0.33527   0.59566   0.62851   0.00000  Uiso   1.00
C867   C     0.28429   0.93762   0.40050   0.00000  Uiso   1.00
C868   C     0.25677   0.90639   0.39535   0.00000  Uiso   1.00
C869   C     0.27255   0.87544   0.37102   0.00000  Uiso   1.00
C870   C     0.22030   0.51596   0.08045   0.00000  Uiso   1.00
C871   C     0.26811   0.52828   0.91763   0.00000  Uiso   1.00
C872   C     0.47717   0.72403   0.08202   0.00000  Uiso   1.00
C873   C     0.26818   0.52762   0.95809   0.00000  Uiso   1.00
C874   C     0.47865   0.77481   0.91926   0.00000  Uiso   1.00
C875   C     0.27971   0.98392   0.08050   0.00000  Uiso   1.00
C876   C     0.23194   0.97161   0.91759   0.00000  Uiso   1.00
C877   C     0.02109   0.77495   0.08070   0.00000  Uiso   1.00
C878   C     0.02305   0.72409   0.91793   0.00000  Uiso   1.00
C879   C     0.47344   0.77028   0.58106   0.00000  Uiso   1.00
C880   C     0.02665   0.76998   0.41900   0.00000  Uiso   1.00
C881   C     0.22164   0.98196   0.58238   0.00000  Uiso   1.00
C882   C     0.23395   0.52972   0.41951   0.00000  Uiso   1.00
C883   C     0.02499   0.72680   0.58176   0.00000  Uiso   1.00
C884   C     0.47864   0.72256   0.04157   0.00000  Uiso   1.00
C885   C     0.47491   0.72697   0.41825   0.00000  Uiso   1.00
C886   C     0.27835   0.51806   0.58240   0.00000  Uiso   1.00
C887   C     0.26601   0.97032   0.41954   0.00000  Uiso   1.00
C888   C     0.25002   0.99990   0.02014   0.00000  Uiso   1.00
C889   C     0.25003   0.99991   0.97798   0.00000  Uiso   1.00
C890   C     0.00042   0.74693   0.02107   0.00000  Uiso   1.00
C891   C     0.49965   0.74693   0.97889   0.00000  Uiso   1.00
C892   C     0.49982   0.74849   0.52109   0.00000  Uiso   1.00
C893   C     0.00006   0.74850   0.47895   0.00000  Uiso   1.00
C894   C     0.24997   0.50004   0.52202   0.00000  Uiso   1.00
C895   C     0.47859   0.77296   0.95968   0.00000  Uiso   1.00
C896   C     0.24997   0.50003   0.47986   0.00000  Uiso   1.00
C897   C     0.25000   0.50000   0.35550   0.00000  Uiso   1.00
C898   C     0.25000   0.50000   0.64497   0.00000  Uiso   1.00
C899   C     0.00010   0.74993   0.35529   0.00000  Uiso   1.00
C900   C     0.49991   0.74995   0.64473   0.00000  Uiso   1.00
C901   C     0.00012   0.75001   0.85528   0.00000  Uiso   1.00
C902   C     0.49988   0.75002   0.14471   0.00000  Uiso   1.00
C903   C     0.25000   0.99999   0.85503   0.00000  Uiso   1.00
C904   C     0.25000   0.99999   0.14450   0.00000  Uiso   1.00
C905   C     0.17995   0.57004   0.25000   0.00000  Uiso   1.00
C906   C     0.27934   0.98470   0.03999   0.00000  Uiso   1.00
C907   C     0.32003   0.92997   0.75000   0.00000  Uiso   1.00
C908   C     0.42994   0.67994   0.25000   0.00000  Uiso   1.00
C909   C     0.07007   0.82006   0.75001   0.00000  Uiso   1.00
C910   C     0.32004   0.92996   0.25000   0.00000  Uiso   1.00
C911   C     0.17995   0.57005   0.75000   0.00000  Uiso   1.00
C912   C     0.07006   0.82006   0.25001   0.00000  Uiso   1.00
C913   C     0.42994   0.67993   0.74999   0.00000  Uiso   1.00
C914   C     0.17994   0.92994   0.75000   0.00000  Uiso   1.00
C915   C     0.32006   0.57006   0.25000   0.00000  Uiso   1.00
C916   C     0.42996   0.82005   0.74999   0.00000  Uiso   1.00
C917   C     0.23188   0.97222   0.95805   0.00000  Uiso   1.00
C918   C     0.07004   0.67996   0.25000   0.00000  Uiso   1.00
C919   C     0.32006   0.57006   0.75000   0.00000  Uiso   1.00
C920   C     0.17995   0.92995   0.25000   0.00000  Uiso   1.00
C921   C     0.07004   0.67996   0.75000   0.00000  Uiso   1.00
C922   C     0.42996   0.82004   0.25000   0.00000  Uiso   1.00
C923   C     0.13900   0.88788   0.21485   0.00000  Uiso   1.00
C924   C     0.38296   0.59032   0.76488   0.00000  Uiso   1.00
C925   C     0.10814   0.63501   0.21519   0.00000  Uiso   1.00
C926   C     0.38666   0.85982   0.78505   0.00000  Uiso   1.00
C927   C     0.38354   0.58974   0.23716   0.00000  Uiso   1.00
C928   C     0.02120   0.77307   0.04028   0.00000  Uiso   1.00
C929   C     0.11704   0.90969   0.76486   0.00000  Uiso   1.00
C930   C     0.39186   0.86500   0.21519   0.00000  Uiso   1.00
C931   C     0.08949   0.61627   0.76178   0.00000  Uiso   1.00
C932   C     0.11627   0.58951   0.76183   0.00000  Uiso   1.00
C933   C     0.36481   0.89161   0.21515   0.00000  Uiso   1.00
C934   C     0.09034   0.88297   0.76487   0.00000  Uiso   1.00
C935   C     0.41029   0.61645   0.23726   0.00000  Uiso   1.00
C936   C     0.36016   0.88707   0.78511   0.00000  Uiso   1.00
C937   C     0.13518   0.60839   0.21516   0.00000  Uiso   1.00
C938   C     0.40967   0.61702   0.76486   0.00000  Uiso   1.00
C939   C     0.02164   0.72264   0.95839   0.00000  Uiso   1.00
C940   C     0.11256   0.86066   0.21490   0.00000  Uiso   1.00
C941   C     0.36703   0.65965   0.73509   0.00000  Uiso   1.00
C942   C     0.11063   0.86260   0.28512   0.00000  Uiso   1.00
C943   C     0.36295   0.88987   0.71489   0.00000  Uiso   1.00
C944   C     0.14162   0.61482   0.28485   0.00000  Uiso   1.00
C945   C     0.13298   0.84032   0.73517   0.00000  Uiso   1.00
C946   C     0.36644   0.66029   0.26274   0.00000  Uiso   1.00
C947   C     0.16049   0.63373   0.73818   0.00000  Uiso   1.00
C948   C     0.35840   0.88519   0.28484   0.00000  Uiso   1.00
C949   C     0.38501   0.85815   0.28481   0.00000  Uiso   1.00
C950   C     0.47398   0.76942   0.54062   0.00000  Uiso   1.00
C951   C     0.13373   0.66052   0.73822   0.00000  Uiso   1.00
C952   C     0.33974   0.63354   0.26283   0.00000  Uiso   1.00
C953   C     0.15969   0.86704   0.73515   0.00000  Uiso   1.00
C954   C     0.11501   0.64186   0.28482   0.00000  Uiso   1.00
C955   C     0.39020   0.86338   0.71494   0.00000  Uiso   1.00
C956   C     0.13786   0.88904   0.28516   0.00000  Uiso   1.00
C957   C     0.34032   0.63295   0.73510   0.00000  Uiso   1.00
C958   C     0.09812   0.84813   0.25001   0.00000  Uiso   1.00
C959   C     0.40188   0.65187   0.74998   0.00000  Uiso   1.00
C960   C     0.15189   0.59810   0.25000   0.00000  Uiso   1.00
F961   F     0.19236   0.52946   0.01943   0.00000  Uiso   1.00
F962   F     0.05085   0.78865   0.48016   0.00000  Uiso   1.00
F963   F     0.19549   0.96469   0.52171   0.00000  Uiso   1.00
F964   F     0.22040   0.55767   0.48051   0.00000  Uiso   1.00
F965   F     0.04948   0.70658   0.52126   0.00000  Uiso   1.00
F966   F     0.45026   0.70701   0.47875   0.00000  Uiso   1.00
F967   F     0.30447   0.53537   0.52173   0.00000  Uiso   1.00
F968   F     0.27955   0.94239   0.48056   0.00000  Uiso   1.00
F969   F     0.15292   0.89961   0.18065   0.00000  Uiso   1.00
F970   F     0.39156   0.55667   0.77873   0.00000  Uiso   1.00
F971   F     0.09265   0.64508   0.18111   0.00000  Uiso   1.00
F972   F     0.28544   0.55435   0.97832   0.00000  Uiso   1.00
F973   F     0.39643   0.84390   0.81895   0.00000  Uiso   1.00
F974   F     0.39263   0.55551   0.22541   0.00000  Uiso   1.00
F975   F     0.10843   0.94335   0.77868   0.00000  Uiso   1.00
F976   F     0.40734   0.85494   0.18111   0.00000  Uiso   1.00
F977   F     0.05499   0.60704   0.77235   0.00000  Uiso   1.00
F978   F     0.10705   0.55504   0.77249   0.00000  Uiso   1.00
F979   F     0.35409   0.90639   0.18098   0.00000  Uiso   1.00
F980   F     0.05667   0.89160   0.77867   0.00000  Uiso   1.00
F981   F     0.44458   0.60730   0.22573   0.00000  Uiso   1.00
F982   F     0.34538   0.89805   0.81921   0.00000  Uiso   1.00
F983   F     0.45767   0.69825   0.02185   0.00000  Uiso   1.00
F984   F     0.14589   0.59362   0.18099   0.00000  Uiso   1.00
F985   F     0.44334   0.60840   0.77866   0.00000  Uiso   1.00
F986   F     0.10212   0.84552   0.18085   0.00000  Uiso   1.00
F987   F     0.35841   0.69331   0.72126   0.00000  Uiso   1.00
F988   F     0.09547   0.85221   0.31916   0.00000  Uiso   1.00
F989   F     0.35197   0.90468   0.68078   0.00000  Uiso   1.00
F990   F     0.15639   0.60410   0.31902   0.00000  Uiso   1.00
F991   F     0.14161   0.80665   0.72140   0.00000  Uiso   1.00
F992   F     0.35730   0.69459   0.27423   0.00000  Uiso   1.00
F993   F     0.19496   0.64295   0.72752   0.00000  Uiso   1.00
F994   F     0.45824   0.79694   0.98069   0.00000  Uiso   1.00
F995   F     0.34364   0.89591   0.31901   0.00000  Uiso   1.00
F996   F     0.39508   0.84266   0.31889   0.00000  Uiso   1.00
F997   F     0.14297   0.69501   0.72767   0.00000  Uiso   1.00
F998   F     0.30550   0.64263   0.27457   0.00000  Uiso   1.00
F999   F     0.19334   0.85843   0.72133   0.00000  Uiso   1.00
F1000  F     0.10496   0.65736   0.31890   0.00000  Uiso   1.00
F1001  F     0.40616   0.85366   0.68105   0.00000  Uiso   1.00
F1002  F     0.14959   0.90298   0.31936   0.00000  Uiso   1.00
F1003  F     0.30666   0.64155   0.72126   0.00000  Uiso   1.00
F1004  F     0.30767   0.97035   0.01951   0.00000  Uiso   1.00
F1005  F     0.21463   0.94546   0.97824   0.00000  Uiso   1.00
F1006  F     0.04130   0.79716   0.01927   0.00000  Uiso   1.00
F1007  F     0.04283   0.69841   0.97809   0.00000  Uiso   1.00
F1008  F     0.44925   0.78916   0.51994   0.00000  Uiso   1.00
H1009  H     0.13493   0.52716   0.15903   0.00000  Uiso   1.00
H1010  H     0.37562   0.57993   0.86944   0.00000  Uiso   1.00
H1011  H     0.36173   0.59119   0.61352   0.00000  Uiso   1.00
H1012  H     0.33015   0.62549   0.63062   0.00000  Uiso   1.00
H1013  H     0.30293   0.58981   0.57665   0.00000  Uiso   1.00
H1014  H     0.27810   0.58339   0.62104   0.00000  Uiso   1.00
H1015  H     0.31460   0.52440   0.63205   0.00000  Uiso   1.00
H1016  H     0.33587   0.53067   0.58666   0.00000  Uiso   1.00
H1017  H     0.27718   0.88494   0.34095   0.00000  Uiso   1.00
H1018  H     0.29869   0.86557   0.38360   0.00000  Uiso   1.00
H1019  H     0.25293   0.85238   0.37021   0.00000  Uiso   1.00
H1020  H     0.24913   0.89547   0.42423   0.00000  Uiso   1.00
H1021  H     0.33992   0.55273   0.92340   0.00000  Uiso   1.00
H1022  H     0.23144   0.91650   0.38120   0.00000  Uiso   1.00
H1023  H     0.29775   0.94511   0.37292   0.00000  Uiso   1.00
H1024  H     0.30727   0.92769   0.41874   0.00000  Uiso   1.00
H1025  H     0.33344   0.52795   0.87899   0.00000  Uiso   1.00
H1026  H     0.27450   0.56456   0.86802   0.00000  Uiso   1.00
H1027  H     0.28083   0.58579   0.91342   0.00000  Uiso   1.00
H1028  H     0.43034   0.64797   0.15692   0.00000  Uiso   1.00
H1029  H     0.41065   0.63481   0.11098   0.00000  Uiso   1.00
H1030  H     0.44779   0.60868   0.13139   0.00000  Uiso   1.00
H1031  H     0.46955   0.64864   0.07788   0.00000  Uiso   1.00
H1032  H     0.48996   0.66074   0.12339   0.00000  Uiso   1.00
H1033  H     0.11555   0.54863   0.11638   0.00000  Uiso   1.00
H1034  H     0.44143   0.71107   0.13077   0.00000  Uiso   1.00
H1035  H     0.42378   0.69926   0.08515   0.00000  Uiso   1.00
H1036  H     0.45814   0.86228   0.84497   0.00000  Uiso   1.00
H1037  H     0.43050   0.87417   0.88677   0.00000  Uiso   1.00
H1038  H     0.47392   0.89611   0.87872   0.00000  Uiso   1.00
H1039  H     0.48237   0.85052   0.92930   0.00000  Uiso   1.00
H1040  H     0.00546   0.83549   0.88626   0.00000  Uiso   1.00
H1041  H     0.44644   0.79691   0.87127   0.00000  Uiso   1.00
H1042  H     0.43061   0.80946   0.91726   0.00000  Uiso   1.00
H1043  H     0.36488   0.97303   0.15933   0.00000  Uiso   1.00
H1044  H     0.10237   0.50288   0.12978   0.00000  Uiso   1.00
H1045  H     0.38444   0.95141   0.11685   0.00000  Uiso   1.00
H1046  H     0.39753   0.99722   0.13013   0.00000  Uiso   1.00
H1047  H     0.35463   0.50079   0.07589   0.00000  Uiso   1.00
H1048  H     0.33344   0.51861   0.11876   0.00000  Uiso   1.00
H1049  H     0.30491   0.95223   0.12716   0.00000  Uiso   1.00
H1050  H     0.32239   0.94271   0.08137   0.00000  Uiso   1.00
H1051  H     0.16564   0.91313   0.84176   0.00000  Uiso   1.00
H1052  H     0.15871   0.88832   0.88645   0.00000  Uiso   1.00
H1053  H     0.12442   0.91993   0.86938   0.00000  Uiso   1.00
H1054  H     0.16016   0.94710   0.92335   0.00000  Uiso   1.00
H1055  H     0.14545   0.99906   0.07577   0.00000  Uiso   1.00
H1056  H     0.16657   0.97194   0.87897   0.00000  Uiso   1.00
H1057  H     0.22554   0.93540   0.86791   0.00000  Uiso   1.00
H1058  H     0.21927   0.91410   0.91328   0.00000  Uiso   1.00
H1059  H     0.04017   0.86277   0.15489   0.00000  Uiso   1.00
H1060  H     0.06767   0.87485   0.11309   0.00000  Uiso   1.00
H1061  H     0.02391   0.89635   0.12104   0.00000  Uiso   1.00
H1062  H     0.01611   0.85057   0.07061   0.00000  Uiso   1.00
H1063  H     0.49334   0.83533   0.11371   0.00000  Uiso   1.00
H1064  H     0.05305   0.79743   0.12861   0.00000  Uiso   1.00
H1065  H     0.06857   0.81016   0.08260   0.00000  Uiso   1.00
H1066  H     0.16650   0.98140   0.11880   0.00000  Uiso   1.00
H1067  H     0.06981   0.64816   0.84261   0.00000  Uiso   1.00
H1068  H     0.09002   0.63504   0.88833   0.00000  Uiso   1.00
H1069  H     0.05288   0.60883   0.86830   0.00000  Uiso   1.00
H1070  H     0.03127   0.64866   0.92203   0.00000  Uiso   1.00
H1071  H     0.01045   0.66085   0.87672   0.00000  Uiso   1.00
H1072  H     0.05879   0.71119   0.86912   0.00000  Uiso   1.00
H1073  H     0.07658   0.69936   0.91471   0.00000  Uiso   1.00
H1074  H     0.37460   0.81874   0.61477   0.00000  Uiso   1.00
H1075  H     0.35279   0.77543   0.62378   0.00000  Uiso   1.00
H1076  H     0.38711   0.79161   0.65674   0.00000  Uiso   1.00
H1077  H     0.19510   0.54772   0.12705   0.00000  Uiso   1.00
H1078  H     0.39758   0.76630   0.57261   0.00000  Uiso   1.00
H1079  H     0.41334   0.74382   0.61572   0.00000  Uiso   1.00
H1080  H     0.45212   0.80307   0.62908   0.00000  Uiso   1.00
H1081  H     0.43879   0.81829   0.58315   0.00000  Uiso   1.00
H1082  H     0.11334   0.78991   0.34344   0.00000  Uiso   1.00
H1083  H     0.12603   0.81688   0.38543   0.00000  Uiso   1.00
H1084  H     0.14741   0.77323   0.37651   0.00000  Uiso   1.00
H1085  H     0.10243   0.76475   0.42753   0.00000  Uiso   1.00
H1086  H     0.08645   0.74260   0.38436   0.00000  Uiso   1.00
H1087  H     0.04837   0.80255   0.37110   0.00000  Uiso   1.00
H1088  H     0.17766   0.55721   0.08123   0.00000  Uiso   1.00
H1089  H     0.06186   0.81742   0.41706   0.00000  Uiso   1.00
H1090  H     0.16313   0.91572   0.65819   0.00000  Uiso   1.00
H1091  H     0.13831   0.90879   0.61350   0.00000  Uiso   1.00
H1092  H     0.16991   0.87450   0.63057   0.00000  Uiso   1.00
H1093  H     0.19709   0.91020   0.57660   0.00000  Uiso   1.00
H1094  H     0.22194   0.91662   0.62099   0.00000  Uiso   1.00
H1095  H     0.18540   0.97559   0.63203   0.00000  Uiso   1.00
H1096  H     0.16412   0.96932   0.58664   0.00000  Uiso   1.00
H1097  H     0.22301   0.61489   0.34071   0.00000  Uiso   1.00
H1098  H     0.20140   0.63443   0.38320   0.00000  Uiso   1.00
H1099  H     0.33438   0.58682   0.84187   0.00000  Uiso   1.00
H1100  H     0.24720   0.64754   0.36992   0.00000  Uiso   1.00
H1101  H     0.25081   0.60464   0.42413   0.00000  Uiso   1.00
H1102  H     0.26862   0.58345   0.38126   0.00000  Uiso   1.00
H1103  H     0.20224   0.55490   0.37286   0.00000  Uiso   1.00
H1104  H     0.19273   0.57239   0.41866   0.00000  Uiso   1.00
H1105  H     0.10352   0.68371   0.65647   0.00000  Uiso   1.00
H1106  H     0.11653   0.66305   0.61094   0.00000  Uiso   1.00
H1107  H     0.14189   0.70135   0.62971   0.00000  Uiso   1.00
H1108  H     0.10061   0.72082   0.57633   0.00000  Uiso   1.00
H1109  H     0.08837   0.74196   0.62145   0.00000  Uiso   1.00
H1110  H     0.34140   0.61155   0.88660   0.00000  Uiso   1.00
H1111  H     0.03979   0.69182   0.63058   0.00000  Uiso   1.00
H1112  H     0.05158   0.67413   0.58499   0.00000  Uiso   1.00
H1113  H     0.39631   0.68370   0.34394   0.00000  Uiso   1.00
H1114  H     0.38326   0.66361   0.38971   0.00000  Uiso   1.00
H1115  H     0.35796   0.70188   0.37049   0.00000  Uiso   1.00
H1116  H     0.39935   0.72154   0.42368   0.00000  Uiso   1.00
H1117  H     0.41148   0.74226   0.37834   0.00000  Uiso   1.00
H1118  H     0.46011   0.69201   0.36947   0.00000  Uiso   1.00
H1119  H     0.44834   0.67443   0.41508   0.00000  Uiso   1.00
H1120  H     0.33694   0.58425   0.65822   0.00000  Uiso   1.00
O1121  O     0.25000   0.50000   0.25000   0.00000  Uiso   1.00
O1122  O     0.25000   0.96964   0.66317   0.00000  Uiso   1.00
O1123  O     0.46964   0.75000   0.33683   0.00000  Uiso   1.00
O1124  O     0.03036   0.75000   0.66317   0.00000  Uiso   1.00
O1125  O     0.00000   0.71964   0.83683   0.00000  Uiso   1.00
O1126  O     0.00000   0.78036   0.16317   0.00000  Uiso   1.00
O1127  O     0.28036   0.50000   0.83683   0.00000  Uiso   1.00
O1128  O     0.21964   0.50000   0.16317   0.00000  Uiso   1.00
O1129  O    -0.00000   0.78036   0.83683   0.00000  Uiso   1.00
O1130  O     0.00000   0.71964   0.16317   0.00000  Uiso   1.00
O1131  O     0.21964   0.50000   0.83683   0.00000  Uiso   1.00
O1132  O     0.25000   0.50000   0.75000   0.00000  Uiso   1.00
O1133  O     0.28036   0.50000   0.16317   0.00000  Uiso   1.00
O1134  O     0.20725   0.57307   0.27282   0.00000  Uiso   1.00
O1135  O     0.29274   0.92693   0.72718   0.00000  Uiso   1.00
O1136  O     0.42693   0.70725   0.27282   0.00000  Uiso   1.00
O1137  O     0.07307   0.79274   0.72718   0.00000  Uiso   1.00
O1138  O     0.29274   0.92693   0.27282   0.00000  Uiso   1.00
O1139  O     0.20725   0.57307   0.72718   0.00000  Uiso   1.00
O1140  O     0.07307   0.79274   0.27282   0.00000  Uiso   1.00
O1141  O     0.42693   0.70725   0.72718   0.00000  Uiso   1.00
O1142  O     0.20725   0.92693   0.72718   0.00000  Uiso   1.00
O1143  O    -0.00000   0.75000   0.25000   0.00000  Uiso   1.00
O1144  O     0.29274   0.57307   0.27282   0.00000  Uiso   1.00
O1145  O     0.42693   0.79274   0.72718   0.00000  Uiso   1.00
O1146  O     0.07307   0.70725   0.27282   0.00000  Uiso   1.00
O1147  O     0.29274   0.57307   0.72718   0.00000  Uiso   1.00
O1148  O     0.20725   0.92693   0.27282   0.00000  Uiso   1.00
O1149  O     0.07307   0.70725   0.72718   0.00000  Uiso   1.00
O1150  O     0.42693   0.79274   0.27282   0.00000  Uiso   1.00
O1151  O     0.45725   0.82307   0.77282   0.00000  Uiso   1.00
O1152  O     0.04274   0.67693   0.22718   0.00000  Uiso   1.00
O1153  O     0.17693   0.95725   0.77282   0.00000  Uiso   1.00
O1154  O     0.00000   0.75000   0.75000   0.00000  Uiso   1.00
O1155  O     0.32307   0.54275   0.22718   0.00000  Uiso   1.00
O1156  O     0.04274   0.67693   0.77282   0.00000  Uiso   1.00
O1157  O     0.45725   0.82307   0.22718   0.00000  Uiso   1.00
O1158  O     0.32307   0.54275   0.77282   0.00000  Uiso   1.00
O1159  O     0.17693   0.95725   0.22718   0.00000  Uiso   1.00
O1160  O     0.45725   0.67693   0.22718   0.00000  Uiso   1.00
O1161  O     0.04274   0.82307   0.77282   0.00000  Uiso   1.00
O1162  O     0.17693   0.54275   0.22718   0.00000  Uiso   1.00
O1163  O     0.32307   0.95725   0.77282   0.00000  Uiso   1.00
O1164  O     0.04274   0.82307   0.22718   0.00000  Uiso   1.00
O1165  O     0.25000   0.96964   0.33683   0.00000  Uiso   1.00
O1166  O     0.45725   0.67693   0.77282   0.00000  Uiso   1.00
O1167  O     0.32307   0.95725   0.22718   0.00000  Uiso   1.00
O1168  O     0.17693   0.54275   0.77282   0.00000  Uiso   1.00
O1169  O     0.25000   0.53036   0.66317   0.00000  Uiso   1.00
O1170  O     0.03036   0.75000   0.33683   0.00000  Uiso   1.00
O1171  O     0.46964   0.75000   0.66317   0.00000  Uiso   1.00
O1172  O     0.25000   0.53036   0.33683   0.00000  Uiso   1.00
Zn1173 Zn    0.20660   0.50000   0.21760   0.00000  Uiso   1.00
Zn1174 Zn    0.04340   0.75000   0.28240   0.00000  Uiso   1.00
Zn1175 Zn    0.25000   0.95660   0.71760   0.00000  Uiso   1.00
Zn1176 Zn    0.25000   0.54340   0.28240   0.00000  Uiso   1.00
Zn1177 Zn    0.04340   0.75000   0.71760   0.00000  Uiso   1.00
Zn1178 Zn    0.45660   0.75000   0.28240   0.00000  Uiso   1.00
Zn1179 Zn    0.25000   0.54340   0.71760   0.00000  Uiso   1.00
Zn1180 Zn    0.25000   0.95660   0.28240   0.00000  Uiso   1.00
Zn1181 Zn    0.29340   0.50000   0.78240   0.00000  Uiso   1.00
Zn1182 Zn    0.00000   0.70660   0.21760   0.00000  Uiso   1.00
Zn1183 Zn   -0.00000   0.79340   0.78240   0.00000  Uiso   1.00
Zn1184 Zn    0.29340   0.50000   0.21760   0.00000  Uiso   1.00
Zn1185 Zn    0.20660   0.50000   0.78240   0.00000  Uiso   1.00
Zn1186 Zn    0.00000   0.79340   0.21760   0.00000  Uiso   1.00
Zn1187 Zn    0.00000   0.70660   0.78240   0.00000  Uiso   1.00
Zn1188 Zn    0.45660   0.75000   0.71760   0.00000  Uiso   1.00
C1189  C     0.72068   0.51512   0.03995   0.00000  Uiso   1.00
C1190  C     0.52603   0.76916   0.45945   0.00000  Uiso   1.00
C1191  C     0.84808   0.90193   0.75000   0.00000  Uiso   1.00
C1192  C     0.90189   0.65189   0.25000   0.00000  Uiso   1.00
C1193  C     0.59813   0.84812   0.75002   0.00000  Uiso   1.00
C1194  C     0.84811   0.90190   0.25000   0.00000  Uiso   1.00
C1195  C     0.65189   0.59811   0.75000   0.00000  Uiso   1.00
C1196  C     0.59809   0.65191   0.75000   0.00000  Uiso   1.00
C1197  C     0.90192   0.84808   0.25000   0.00000  Uiso   1.00
C1198  C     0.65189   0.90189   0.75000   0.00000  Uiso   1.00
C1199  C     0.84812   0.59812   0.25000   0.00000  Uiso   1.00
C1200  C     0.90190   0.84811   0.74999   0.00000  Uiso   1.00
C1201  C     0.72225   0.98191   0.54192   0.00000  Uiso   1.00
C1202  C     0.59809   0.65192   0.25001   0.00000  Uiso   1.00
C1203  C     0.84811   0.59811   0.75000   0.00000  Uiso   1.00
C1204  C     0.65191   0.90192   0.25000   0.00000  Uiso   1.00
C1205  C     0.75000   0.99996   0.10149   0.00000  Uiso   1.00
C1206  C     0.75002   0.99996   0.89725   0.00000  Uiso   1.00
C1207  C     0.99931   0.74982   0.10207   0.00000  Uiso   1.00
C1208  C     0.50068   0.74980   0.89790   0.00000  Uiso   1.00
C1209  C     0.99955   0.74917   0.60212   0.00000  Uiso   1.00
C1210  C     0.50045   0.74912   0.39791   0.00000  Uiso   1.00
C1211  C     0.75000   0.50000   0.60275   0.00000  Uiso   1.00
C1212  C     0.73476   0.52935   0.46002   0.00000  Uiso   1.00
C1213  C     0.74999   0.50001   0.39851   0.00000  Uiso   1.00
C1214  C     0.68760   0.53424   0.09948   0.00000  Uiso   1.00
C1215  C     0.65637   0.50672   0.10464   0.00000  Uiso   1.00
C1216  C     0.62542   0.52251   0.12896   0.00000  Uiso   1.00
C1217  C     0.78633   0.56013   0.89721   0.00000  Uiso   1.00
C1218  C     0.82769   0.55416   0.89401   0.00000  Uiso   1.00
C1219  C     0.84580   0.58510   0.87157   0.00000  Uiso   1.00
C1220  C     0.94950   0.69976   0.10225   0.00000  Uiso   1.00
C1221  C     0.96398   0.66065   0.10681   0.00000  Uiso   1.00
C1222  C     0.93640   0.63660   0.12785   0.00000  Uiso   1.00
C1223  C     0.52517   0.72741   0.54128   0.00000  Uiso   1.00
C1224  C     0.95610   0.80481   0.90047   0.00000  Uiso   1.00
C1225  C     0.97815   0.84044   0.89931   0.00000  Uiso   1.00
C1226  C     0.95878   0.87001   0.87599   0.00000  Uiso   1.00
C1227  C     0.81242   0.96568   0.09959   0.00000  Uiso   1.00
C1228  C     0.84362   0.99324   0.10476   0.00000  Uiso   1.00
C1229  C     0.87450   0.97757   0.12928   0.00000  Uiso   1.00
C1230  C     0.71373   0.93978   0.89712   0.00000  Uiso   1.00
C1231  C     0.67236   0.94572   0.89395   0.00000  Uiso   1.00
C1232  C     0.65425   0.91479   0.87147   0.00000  Uiso   1.00
C1233  C     0.54319   0.80522   0.09944   0.00000  Uiso   1.00
C1234  C     0.97466   0.72763   0.45874   0.00000  Uiso   1.00
C1235  C     0.52055   0.84059   0.10061   0.00000  Uiso   1.00
C1236  C     0.53945   0.87042   0.12386   0.00000  Uiso   1.00
C1237  C     0.55083   0.69986   0.89765   0.00000  Uiso   1.00
C1238  C     0.53655   0.66074   0.89309   0.00000  Uiso   1.00
C1239  C     0.56411   0.63678   0.87174   0.00000  Uiso   1.00
C1240  C     0.94374   0.79301   0.60019   0.00000  Uiso   1.00
C1241  C     0.90815   0.77095   0.60234   0.00000  Uiso   1.00
C1242  C     0.87892   0.79060   0.62587   0.00000  Uiso   1.00
C1243  C     0.55662   0.79226   0.39995   0.00000  Uiso   1.00
C1244  C     0.59195   0.76961   0.39779   0.00000  Uiso   1.00
C1245  C     0.77771   0.51814   0.54194   0.00000  Uiso   1.00
C1246  C     0.62144   0.78880   0.37433   0.00000  Uiso   1.00
C1247  C     0.68979   0.96377   0.60283   0.00000  Uiso   1.00
C1248  C     0.69572   0.92241   0.60600   0.00000  Uiso   1.00
C1249  C     0.66478   0.90432   0.62848   0.00000  Uiso   1.00
C1250  C     0.71570   0.56242   0.40044   0.00000  Uiso   1.00
C1251  C     0.74325   0.59362   0.39527   0.00000  Uiso   1.00
C1252  C     0.72756   0.62450   0.37076   0.00000  Uiso   1.00
C1253  C     0.55044   0.69998   0.60183   0.00000  Uiso   1.00
C1254  C     0.58912   0.71561   0.60555   0.00000  Uiso   1.00
C1255  C     0.61426   0.68921   0.62702   0.00000  Uiso   1.00
C1256  C     0.76520   0.97070   0.46004   0.00000  Uiso   1.00
C1257  C     0.94946   0.70026   0.39821   0.00000  Uiso   1.00
C1258  C     0.91077   0.71605   0.39447   0.00000  Uiso   1.00
C1259  C     0.88558   0.68959   0.37332   0.00000  Uiso   1.00
C1260  C     0.81021   0.53622   0.60285   0.00000  Uiso   1.00
C1261  C     0.80431   0.57759   0.60604   0.00000  Uiso   1.00
C1262  C     0.83527   0.59566   0.62851   0.00000  Uiso   1.00
C1263  C     0.78429   0.93762   0.40050   0.00000  Uiso   1.00
C1264  C     0.75677   0.90639   0.39535   0.00000  Uiso   1.00
C1265  C     0.77255   0.87544   0.37102   0.00000  Uiso   1.00
C1266  C     0.72030   0.51596   0.08045   0.00000  Uiso   1.00
C1267  C     0.76811   0.52828   0.91763   0.00000  Uiso   1.00
C1268  C     0.97717   0.72403   0.08202   0.00000  Uiso   1.00
C1269  C     0.76818   0.52762   0.95809   0.00000  Uiso   1.00
C1270  C     0.97865   0.77481   0.91926   0.00000  Uiso   1.00
C1271  C     0.77971   0.98392   0.08050   0.00000  Uiso   1.00
C1272  C     0.73194   0.97161   0.91759   0.00000  Uiso   1.00
C1273  C     0.52109   0.77495   0.08070   0.00000  Uiso   1.00
C1274  C     0.52305   0.72409   0.91793   0.00000  Uiso   1.00
C1275  C     0.97344   0.77028   0.58106   0.00000  Uiso   1.00
C1276  C     0.52665   0.76998   0.41900   0.00000  Uiso   1.00
C1277  C     0.72164   0.98196   0.58238   0.00000  Uiso   1.00
C1278  C     0.73395   0.52972   0.41951   0.00000  Uiso   1.00
C1279  C     0.52499   0.72680   0.58176   0.00000  Uiso   1.00
C1280  C     0.97864   0.72256   0.04157   0.00000  Uiso   1.00
C1281  C     0.97491   0.72697   0.41825   0.00000  Uiso   1.00
C1282  C     0.77835   0.51806   0.58240   0.00000  Uiso   1.00
C1283  C     0.76601   0.97032   0.41954   0.00000  Uiso   1.00
C1284  C     0.75002   0.99990   0.02014   0.00000  Uiso   1.00
C1285  C     0.75003   0.99991   0.97798   0.00000  Uiso   1.00
C1286  C     0.50042   0.74693   0.02107   0.00000  Uiso   1.00
C1287  C     0.99965   0.74693   0.97889   0.00000  Uiso   1.00
C1288  C     0.99982   0.74849   0.52109   0.00000  Uiso   1.00
C1289  C     0.50006   0.74850   0.47895   0.00000  Uiso   1.00
C1290  C     0.74997   0.50004   0.52202   0.00000  Uiso   1.00
C1291  C     0.97859   0.77296   0.95968   0.00000  Uiso   1.00
C1292  C     0.74997   0.50003   0.47986   0.00000  Uiso   1.00
C1293  C     0.75000   0.50000   0.35550   0.00000  Uiso   1.00
C1294  C     0.75000   0.50000   0.64497   0.00000  Uiso   1.00
C1295  C     0.50010   0.74993   0.35529   0.00000  Uiso   1.00
C1296  C     0.99991   0.74995   0.64473   0.00000  Uiso   1.00
C1297  C     0.50012   0.75001   0.85528   0.00000  Uiso   1.00
C1298  C     0.99988   0.75002   0.14471   0.00000  Uiso   1.00
C1299  C     0.75000   0.99999   0.85503   0.00000  Uiso   1.00
C1300  C     0.75000   0.99999   0.14450   0.00000  Uiso   1.00
C1301  C     0.67995   0.57004   0.25000   0.00000  Uiso   1.00
C1302  C     0.77934   0.98470   0.03999   0.00000  Uiso   1.00
C1303  C     0.82003   0.92997   0.75000   0.00000  Uiso   1.00
C1304  C     0.92994   0.67994   0.25000   0.00000  Uiso   1.00
C1305  C     0.57007   0.82006   0.75001   0.00000  Uiso   1.00
C1306  C     0.82004   0.92996   0.25000   0.00000  Uiso   1.00
C1307  C     0.67995   0.57005   0.75000   0.00000  Uiso   1.00
C1308  C     0.57006   0.82006   0.25001   0.00000  Uiso   1.00
C1309  C     0.92994   0.67993   0.74999   0.00000  Uiso   1.00
C1310  C     0.67994   0.92994   0.75000   0.00000  Uiso   1.00
C1311  C     0.82006   0.57006   0.25000   0.00000  Uiso   1.00
C1312  C     0.92996   0.82005   0.74999   0.00000  Uiso   1.00
C1313  C     0.73188   0.97222   0.95805   0.00000  Uiso   1.00
C1314  C     0.57004   0.67996   0.25000   0.00000  Uiso   1.00
C1315  C     0.82006   0.57006   0.75000   0.00000  Uiso   1.00
C1316  C     0.67995   0.92995   0.25000   0.00000  Uiso   1.00
C1317  C     0.57004   0.67996   0.75000   0.00000  Uiso   1.00
C1318  C     0.92996   0.82004   0.25000   0.00000  Uiso   1.00
C1319  C     0.63900   0.88788   0.21485   0.00000  Uiso   1.00
C1320  C     0.88296   0.59032   0.76488   0.00000  Uiso   1.00
C1321  C     0.60814   0.63501   0.21519   0.00000  Uiso   1.00
C1322  C     0.88666   0.85982   0.78505   0.00000  Uiso   1.00
C1323  C     0.88354   0.58974   0.23716   0.00000  Uiso   1.00
C1324  C     0.52120   0.77307   0.04028   0.00000  Uiso   1.00
C1325  C     0.61704   0.90969   0.76486   0.00000  Uiso   1.00
C1326  C     0.89186   0.86500   0.21519   0.00000  Uiso   1.00
C1327  C     0.58949   0.61627   0.76178   0.00000  Uiso   1.00
C1328  C     0.61627   0.58951   0.76183   0.00000  Uiso   1.00
C1329  C     0.86481   0.89161   0.21515   0.00000  Uiso   1.00
C1330  C     0.59034   0.88297   0.76487   0.00000  Uiso   1.00
C1331  C     0.91029   0.61645   0.23726   0.00000  Uiso   1.00
C1332  C     0.86016   0.88707   0.78511   0.00000  Uiso   1.00
C1333  C     0.63518   0.60839   0.21516   0.00000  Uiso   1.00
C1334  C     0.90967   0.61702   0.76486   0.00000  Uiso   1.00
C1335  C     0.52164   0.72264   0.95839   0.00000  Uiso   1.00
C1336  C     0.61256   0.86066   0.21490   0.00000  Uiso   1.00
C1337  C     0.86703   0.65965   0.73509   0.00000  Uiso   1.00
C1338  C     0.61063   0.86260   0.28512   0.00000  Uiso   1.00
C1339  C     0.86295   0.88987   0.71489   0.00000  Uiso   1.00
C1340  C     0.64162   0.61482   0.28485   0.00000  Uiso   1.00
C1341  C     0.63298   0.84032   0.73517   0.00000  Uiso   1.00
C1342  C     0.86644   0.66029   0.26274   0.00000  Uiso   1.00
C1343  C     0.66049   0.63373   0.73818   0.00000  Uiso   1.00
C1344  C     0.85840   0.88519   0.28484   0.00000  Uiso   1.00
C1345  C     0.88501   0.85815   0.28481   0.00000  Uiso   1.00
C1346  C     0.97398   0.76942   0.54062   0.00000  Uiso   1.00
C1347  C     0.63373   0.66052   0.73822   0.00000  Uiso   1.00
C1348  C     0.83974   0.63354   0.26283   0.00000  Uiso   1.00
C1349  C     0.65969   0.86704   0.73515   0.00000  Uiso   1.00
C1350  C     0.61501   0.64186   0.28482   0.00000  Uiso   1.00
C1351  C     0.89020   0.86338   0.71494   0.00000  Uiso   1.00
C1352  C     0.63786   0.88904   0.28516   0.00000  Uiso   1.00
C1353  C     0.84032   0.63295   0.73510   0.00000  Uiso   1.00
C1354  C     0.59812   0.84813   0.25001   0.00000  Uiso   1.00
C1355  C     0.90188   0.65187   0.74998   0.00000  Uiso   1.00
C1356  C     0.65189   0.59810   0.25000   0.00000  Uiso   1.00
F1357  F     0.69236   0.52946   0.01943   0.00000  Uiso   1.00
F1358  F     0.55085   0.78865   0.48016   0.00000  Uiso   1.00
F1359  F     0.69549   0.96469   0.52171   0.00000  Uiso   1.00
F1360  F     0.72040   0.55767   0.48051   0.00000  Uiso   1.00
F1361  F     0.54948   0.70658   0.52126   0.00000  Uiso   1.00
F1362  F     0.95026   0.70701   0.47875   0.00000  Uiso   1.00
F1363  F     0.80447   0.53537   0.52173   0.00000  Uiso   1.00
F1364  F     0.77955   0.94239   0.48056   0.00000  Uiso   1.00
F1365  F     0.65292   0.89961   0.18065   0.00000  Uiso   1.00
F1366  F     0.89156   0.55667   0.77873   0.00000  Uiso   1.00
F1367  F     0.59265   0.64508   0.18111   0.00000  Uiso   1.00
F1368  F     0.78544   0.55435   0.97832   0.00000  Uiso   1.00
F1369  F     0.89643   0.84390   0.81895   0.00000  Uiso   1.00
F1370  F     0.89263   0.55551   0.22541   0.00000  Uiso   1.00
F1371  F     0.60843   0.94335   0.77868   0.00000  Uiso   1.00
F1372  F     0.90734   0.85494   0.18111   0.00000  Uiso   1.00
F1373  F     0.55499   0.60704   0.77235   0.00000  Uiso   1.00
F1374  F     0.60705   0.55504   0.77249   0.00000  Uiso   1.00
F1375  F     0.85409   0.90639   0.18098   0.00000  Uiso   1.00
F1376  F     0.55667   0.89160   0.77867   0.00000  Uiso   1.00
F1377  F     0.94458   0.60730   0.22573   0.00000  Uiso   1.00
F1378  F     0.84538   0.89805   0.81921   0.00000  Uiso   1.00
F1379  F     0.95767   0.69825   0.02185   0.00000  Uiso   1.00
F1380  F     0.64589   0.59362   0.18099   0.00000  Uiso   1.00
F1381  F     0.94334   0.60840   0.77866   0.00000  Uiso   1.00
F1382  F     0.60212   0.84552   0.18085   0.00000  Uiso   1.00
F1383  F     0.85841   0.69331   0.72126   0.00000  Uiso   1.00
F1384  F     0.59547   0.85221   0.31916   0.00000  Uiso   1.00
F1385  F     0.85197   0.90468   0.68078   0.00000  Uiso   1.00
F1386  F     0.65639   0.60410   0.31902   0.00000  Uiso   1.00
F1387  F     0.64161   0.80665   0.72140   0.00000  Uiso   1.00
F1388  F     0.85730   0.69459   0.27423   0.00000  Uiso   1.00
F1389  F     0.69496   0.64295   0.72752   0.00000  Uiso   1.00
F1390  F     0.95824   0.79694   0.98069   0.00000  Uiso   1.00
F1391  F     0.84364   0.89591   0.31901   0.00000  Uiso   1.00
F1392  F     0.89508   0.84266   0.31889   0.00000  Uiso   1.00
F1393  F     0.64297   0.69501   0.72767   0.00000  Uiso   1.00
F1394  F     0.80550   0.64263   0.27457   0.00000  Uiso   1.00
F1395  F     0.69334   0.85843   0.72133   0.00000  Uiso   1.00
F1396  F     0.60496   0.65736   0.31890   0.00000  Uiso   1.00
F1397  F     0.90616   0.85366   0.68105   0.00000  Uiso   1.00
F1398  F     0.64959   0.90298   0.31936   0.00000  Uiso   1.00
F1399  F     0.80666   0.64155   0.72126   0.00000  Uiso   1.00
F1400  F     0.80767   0.97035   0.01951   0.00000  Uiso   1.00
F1401  F     0.71463   0.94546   0.97824   0.00000  Uiso   1.00
F1402  F     0.54130   0.79716   0.01927   0.00000  Uiso   1.00
F1403  F     0.54283   0.69841   0.97809   0.00000  Uiso   1.00
F1404  F     0.94925   0.78916   0.51994   0.00000  Uiso   1.00
H1405  H     0.63493   0.52716   0.15903   0.00000  Uiso   1.00
H1406  H     0.87562   0.57993   0.86944   0.00000  Uiso   1.00
H1407  H     0.86173   0.59119   0.61352   0.00000  Uiso   1.00
H1408  H     0.83015   0.62549   0.63062   0.00000  Uiso   1.00
H1409  H     0.80293   0.58981   0.57665   0.00000  Uiso   1.00
H1410  H     0.77810   0.58339   0.62104   0.00000  Uiso   1.00
H1411  H     0.81460   0.52440   0.63205   0.00000  Uiso   1.00
H1412  H     0.83587   0.53067   0.58666   0.00000  Uiso   1.00
H1413  H     0.77718   0.88494   0.34095   0.00000  Uiso   1.00
H1414  H     0.79869   0.86557   0.38360   0.00000  Uiso   1.00
H1415  H     0.75293   0.85238   0.37021   0.00000  Uiso   1.00
H1416  H     0.74913   0.89547   0.42423   0.00000  Uiso   1.00
H1417  H     0.83992   0.55273   0.92340   0.00000  Uiso   1.00
H1418  H     0.73144   0.91650   0.38120   0.00000  Uiso   1.00
H1419  H     0.79775   0.94511   0.37292   0.00000  Uiso   1.00
H1420  H     0.80727   0.92769   0.41874   0.00000  Uiso   1.00
H1421  H     0.83344   0.52795   0.87899   0.00000  Uiso   1.00
H1422  H     0.77450   0.56456   0.86802   0.00000  Uiso   1.00
H1423  H     0.78083   0.58579   0.91342   0.00000  Uiso   1.00
H1424  H     0.93034   0.64797   0.15692   0.00000  Uiso   1.00
H1425  H     0.91065   0.63481   0.11098   0.00000  Uiso   1.00
H1426  H     0.94779   0.60868   0.13139   0.00000  Uiso   1.00
H1427  H     0.96955   0.64864   0.07788   0.00000  Uiso   1.00
H1428  H     0.98996   0.66074   0.12339   0.00000  Uiso   1.00
H1429  H     0.61555   0.54863   0.11638   0.00000  Uiso   1.00
H1430  H     0.94143   0.71107   0.13077   0.00000  Uiso   1.00
H1431  H     0.92378   0.69926   0.08515   0.00000  Uiso   1.00
H1432  H     0.95814   0.86228   0.84497   0.00000  Uiso   1.00
H1433  H     0.93050   0.87417   0.88677   0.00000  Uiso   1.00
H1434  H     0.97392   0.89611   0.87872   0.00000  Uiso   1.00
H1435  H     0.98237   0.85052   0.92930   0.00000  Uiso   1.00
H1436  H     0.50546   0.83549   0.88626   0.00000  Uiso   1.00
H1437  H     0.94644   0.79691   0.87127   0.00000  Uiso   1.00
H1438  H     0.93061   0.80946   0.91726   0.00000  Uiso   1.00
H1439  H     0.86488   0.97303   0.15933   0.00000  Uiso   1.00
H1440  H     0.60237   0.50288   0.12978   0.00000  Uiso   1.00
H1441  H     0.88444   0.95141   0.11685   0.00000  Uiso   1.00
H1442  H     0.89753   0.99722   0.13013   0.00000  Uiso   1.00
H1443  H     0.85463   0.50079   0.07589   0.00000  Uiso   1.00
H1444  H     0.83344   0.51861   0.11876   0.00000  Uiso   1.00
H1445  H     0.80491   0.95223   0.12716   0.00000  Uiso   1.00
H1446  H     0.82239   0.94271   0.08137   0.00000  Uiso   1.00
H1447  H     0.66564   0.91313   0.84176   0.00000  Uiso   1.00
H1448  H     0.65871   0.88832   0.88645   0.00000  Uiso   1.00
H1449  H     0.62442   0.91993   0.86938   0.00000  Uiso   1.00
H1450  H     0.66016   0.94710   0.92335   0.00000  Uiso   1.00
H1451  H     0.64545   0.99906   0.07577   0.00000  Uiso   1.00
H1452  H     0.66657   0.97194   0.87897   0.00000  Uiso   1.00
H1453  H     0.72554   0.93540   0.86791   0.00000  Uiso   1.00
H1454  H     0.71927   0.91410   0.91328   0.00000  Uiso   1.00
H1455  H     0.54017   0.86277   0.15489   0.00000  Uiso   1.00
H1456  H     0.56767   0.87485   0.11309   0.00000  Uiso   1.00
H1457  H     0.52391   0.89635   0.12104   0.00000  Uiso   1.00
H1458  H     0.51611   0.85057   0.07061   0.00000  Uiso   1.00
H1459  H     0.99334   0.83533   0.11371   0.00000  Uiso   1.00
H1460  H     0.55305   0.79743   0.12861   0.00000  Uiso   1.00
H1461  H     0.56857   0.81016   0.08260   0.00000  Uiso   1.00
H1462  H     0.66650   0.98140   0.11880   0.00000  Uiso   1.00
H1463  H     0.56981   0.64816   0.84261   0.00000  Uiso   1.00
H1464  H     0.59002   0.63504   0.88833   0.00000  Uiso   1.00
H1465  H     0.55288   0.60883   0.86830   0.00000  Uiso   1.00
H1466  H     0.53127   0.64866   0.92203   0.00000  Uiso   1.00
H1467  H     0.51045   0.66085   0.87672   0.00000  Uiso   1.00
H1468  H     0.55879   0.71119   0.86912   0.00000  Uiso   1.00
H1469  H     0.57658   0.69936   0.91471   0.00000  Uiso   1.00
H1470  H     0.87460   0.81874   0.61477   0.00000  Uiso   1.00
H1471  H     0.85279   0.77543   0.62378   0.00000  Uiso   1.00
H1472  H     0.88711   0.79161   0.65674   0.00000  Uiso   1.00
H1473  H     0.69510   0.54772   0.12705   0.00000  Uiso   1.00
H1474  H     0.89758   0.76630   0.57261   0.00000  Uiso   1.00
H1475  H     0.91334   0.74382   0.61572   0.00000  Uiso   1.00
H1476  H     0.95212   0.80307   0.62908   0.00000  Uiso   1.00
H1477  H     0.93879   0.81829   0.58315   0.00000  Uiso   1.00
H1478  H     0.61334   0.78991   0.34344   0.00000  Uiso   1.00
H1479  H     0.62603   0.81688   0.38543   0.00000  Uiso   1.00
H1480  H     0.64741   0.77323   0.37651   0.00000  Uiso   1.00
H1481  H     0.60243   0.76475   0.42753   0.00000  Uiso   1.00
H1482  H     0.58645   0.74260   0.38436   0.00000  Uiso   1.00
H1483  H     0.54837   0.80255   0.37110   0.00000  Uiso   1.00
H1484  H     0.67766   0.55721   0.08123   0.00000  Uiso   1.00
H1485  H     0.56186   0.81742   0.41706   0.00000  Uiso   1.00
H1486  H     0.66313   0.91572   0.65819   0.00000  Uiso   1.00
H1487  H     0.63831   0.90879   0.61350   0.00000  Uiso   1.00
H1488  H     0.66991   0.87450   0.63057   0.00000  Uiso   1.00
H1489  H     0.69709   0.91020   0.57660   0.00000  Uiso   1.00
H1490  H     0.72194   0.91662   0.62099   0.00000  Uiso   1.00
H1491  H     0.68540   0.97559   0.63203   0.00000  Uiso   1.00
H1492  H     0.66412   0.96932   0.58664   0.00000  Uiso   1.00
H1493  H     0.72301   0.61489   0.34071   0.00000  Uiso   1.00
H1494  H     0.70140   0.63443   0.38320   0.00000  Uiso   1.00
H1495  H     0.83438   0.58682   0.84187   0.00000  Uiso   1.00
H1496  H     0.74720   0.64754   0.36992   0.00000  Uiso   1.00
H1497  H     0.75081   0.60464   0.42413   0.00000  Uiso   1.00
H1498  H     0.76862   0.58345   0.38126   0.00000  Uiso   1.00
H1499  H     0.70224   0.55490   0.37286   0.00000  Uiso   1.00
H1500  H     0.69273   0.57239   0.41866   0.00000  Uiso   1.00
H1501  H     0.60352   0.68371   0.65647   0.00000  Uiso   1.00
H1502  H     0.61653   0.66305   0.61094   0.00000  Uiso   1.00
H1503  H     0.64189   0.70135   0.62971   0.00000  Uiso   1.00
H1504  H     0.60061   0.72082   0.57633   0.00000  Uiso   1.00
H1505  H     0.58837   0.74196   0.62145   0.00000  Uiso   1.00
H1506  H     0.84140   0.61155   0.88660   0.00000  Uiso   1.00
H1507  H     0.53979   0.69182   0.63058   0.00000  Uiso   1.00
H1508  H     0.55158   0.67413   0.58499   0.00000  Uiso   1.00
H1509  H     0.89631   0.68370   0.34394   0.00000  Uiso   1.00
H1510  H     0.88326   0.66361   0.38971   0.00000  Uiso   1.00
H1511  H     0.85796   0.70188   0.37049   0.00000  Uiso   1.00
H1512  H     0.89935   0.72154   0.42368   0.00000  Uiso   1.00
H1513  H     0.91148   0.74226   0.37834   0.00000  Uiso   1.00
H1514  H     0.96011   0.69201   0.36947   0.00000  Uiso   1.00
H1515  H     0.94834   0.67443   0.41508   0.00000  Uiso   1.00
H1516  H     0.83694   0.58425   0.65822   0.00000  Uiso   1.00
O1517  O     0.75000   0.50000   0.25000   0.00000  Uiso   1.00
O1518  O     0.75000   0.96964   0.66317   0.00000  Uiso   1.00
O1519  O     0.96964   0.75000   0.33683   0.00000  Uiso   1.00
O1520  O     0.53036   0.75000   0.66317   0.00000  Uiso   1.00
O1521  O     0.50000   0.71964   0.83683   0.00000  Uiso   1.00
O1522  O     0.50000   0.78036   0.16317   0.00000  Uiso   1.00
O1523  O     0.78036   0.50000   0.83683   0.00000  Uiso   1.00
O1524  O     0.71964   0.50000   0.16317   0.00000  Uiso   1.00
O1525  O     0.50000   0.78036   0.83683   0.00000  Uiso   1.00
O1526  O     0.50000   0.71964   0.16317   0.00000  Uiso   1.00
O1527  O     0.71964   0.50000   0.83683   0.00000  Uiso   1.00
O1528  O     0.75000   0.50000   0.75000   0.00000  Uiso   1.00
O1529  O     0.78036   0.50000   0.16317   0.00000  Uiso   1.00
O1530  O     0.70725   0.57307   0.27282   0.00000  Uiso   1.00
O1531  O     0.79274   0.92693   0.72718   0.00000  Uiso   1.00
O1532  O     0.92693   0.70725   0.27282   0.00000  Uiso   1.00
O1533  O     0.57307   0.79274   0.72718   0.00000  Uiso   1.00
O1534  O     0.79274   0.92693   0.27282   0.00000  Uiso   1.00
O1535  O     0.70725   0.57307   0.72718   0.00000  Uiso   1.00
O1536  O     0.57307   0.79274   0.27282   0.00000  Uiso   1.00
O1537  O     0.92693   0.70725   0.72718   0.00000  Uiso   1.00
O1538  O     0.70725   0.92693   0.72718   0.00000  Uiso   1.00
O1539  O     0.50000   0.75000   0.25000   0.00000  Uiso   1.00
O1540  O     0.79274   0.57307   0.27282   0.00000  Uiso   1.00
O1541  O     0.92693   0.79274   0.72718   0.00000  Uiso   1.00
O1542  O     0.57307   0.70725   0.27282   0.00000  Uiso   1.00
O1543  O     0.79274   0.57307   0.72718   0.00000  Uiso   1.00
O1544  O     0.70725   0.92693   0.27282   0.00000  Uiso   1.00
O1545  O     0.57307   0.70725   0.72718   0.00000  Uiso   1.00
O1546  O     0.92693   0.79274   0.27282   0.00000  Uiso   1.00
O1547  O     0.95725   0.82307   0.77282   0.00000  Uiso   1.00
O1548  O     0.54274   0.67693   0.22718   0.00000  Uiso   1.00
O1549  O     0.67693   0.95725   0.77282   0.00000  Uiso   1.00
O1550  O     0.50000   0.75000   0.75000   0.00000  Uiso   1.00
O1551  O     0.82307   0.54275   0.22718   0.00000  Uiso   1.00
O1552  O     0.54274   0.67693   0.77282   0.00000  Uiso   1.00
O1553  O     0.95725   0.82307   0.22718   0.00000  Uiso   1.00
O1554  O     0.82307   0.54275   0.77282   0.00000  Uiso   1.00
O1555  O     0.67693   0.95725   0.22718   0.00000  Uiso   1.00
O1556  O     0.95725   0.67693   0.22718   0.00000  Uiso   1.00
O1557  O     0.54274   0.82307   0.77282   0.00000  Uiso   1.00
O1558  O     0.67693   0.54275   0.22718   0.00000  Uiso   1.00
O1559  O     0.82307   0.95725   0.77282   0.00000  Uiso   1.00
O1560  O     0.54274   0.82307   0.22718   0.00000  Uiso   1.00
O1561  O     0.75000   0.96964   0.33683   0.00000  Uiso   1.00
O1562  O     0.95725   0.67693   0.77282   0.00000  Uiso   1.00
O1563  O     0.82307   0.95725   0.22718   0.00000  Uiso   1.00
O1564  O     0.67693   0.54275   0.77282   0.00000  Uiso   1.00
O1565  O     0.75000   0.53036   0.66317   0.00000  Uiso   1.00
O1566  O     0.53036   0.75000   0.33683   0.00000  Uiso   1.00
O1567  O     0.96964   0.75000   0.66317   0.00000  Uiso   1.00
O1568  O     0.75000   0.53036   0.33683   0.00000  Uiso   1.00
Zn1569 Zn    0.70660   0.50000   0.21760   0.00000  Uiso   1.00
Zn1570 Zn    0.54340   0.75000   0.28240   0.00000  Uiso   1.00
Zn1571 Zn    0.75000   0.95660   0.71760   0.00000  Uiso   1.00
Zn1572 Zn    0.75000   0.54340   0.28240   0.00000  Uiso   1.00
Zn1573 Zn    0.54340   0.75000   0.71760   0.00000  Uiso   1.00
Zn1574 Zn    0.95660   0.75000   0.28240   0.00000  Uiso   1.00
Zn1575 Zn    0.75000   0.54340   0.71760   0.00000  Uiso   1.00
Zn1576 Zn    0.75000   0.95660   0.28240   0.00000  Uiso   1.00
Zn1577 Zn    0.79340   0.50000   0.78240   0.00000  Uiso   1.00
Zn1578 Zn    0.50000   0.70660   0.21760   0.00000  Uiso   1.00
Zn1579 Zn    0.50000   0.79340   0.78240   0.00000  Uiso   1.00
Zn1580 Zn    0.79340   0.50000   0.21760   0.00000  Uiso   1.00
Zn1581 Zn    0.70660   0.50000   0.78240   0.00000  Uiso   1.00
Zn1582 Zn    0.50000   0.79340   0.21760   0.00000  Uiso   1.00
Zn1583 Zn    0.50000   0.70660   0.78240   0.00000  Uiso   1.00
Zn1584 Zn    0.95660   0.75000   0.71760   0.00000  Uiso   1.00
loop_
_geom_bond_atom_site_label_1
_geom_bond_atom_site_label_2
_geom_bond_distance
_geom_bond_site_symmetry_2
_ccdc_geom_bond_type
C1     C78     1.401   .     A
C1     F169    1.361   .     S
C1     C888    1.390   1_545 S
C2     F170    1.361   .     S
C2     C88     1.399   .     A
C2     C101    1.391   .     A
C3     C144    1.402   .     A
C3     C115    1.451   .     S
C3     C151    1.402   .     A
C4     C154    1.404   .     A
C4     C116    1.455   .     S
C4     C143    1.404   .     A
C5     C142    1.405   .     A
C5     C117    1.455   .     S
C5     C153    1.405   .     A
C6     C141    1.403   .     A
C6     C156    1.402   .     A
C6     C118    1.452   .     S
C7     C119    1.452   .     S
C7     C140    1.404   .     A
C7     C155    1.404   .     A
C8     C129    1.451   .     S
C8     C159    1.404   .     A
C8     C139    1.404   .     A
C9     C130    1.451   .     S
C9     C157    1.403   .     A
C9     C138    1.403   .     A
C10    C122    1.454   .     S
C10    C161    1.405   .     A
C10    C137    1.405   .     A
C11    C160    1.404   .     A
C11    C135    1.404   .     A
C11    C123    1.455   .     S
C12    C163    1.402   .     A
C12    C134    1.402   .     A
C12    C124    1.452   .     S
C13    F171    1.360   .     S
C13    C89     1.399   .     A
C13    C894    1.396   .     S
C14    C126    1.451   .     S
C14    C133    1.403   .     A
C14    C162    1.403   .     A
C15    C132    1.404   .     A
C15    C127    1.454   .     S
C15    C165    1.405   .     A
C16    C164    1.402   .     A
C16    C131    1.402   .     A
C16    C128    1.454   .     S
C17    C83     1.433   .     A
C17    C112    1.487   .     S
C17    C870    1.433   .     S
C18    C111    1.460   .     S
C18    C84     1.419   .     A
C18    C871    1.419   .     S
C19    C80     1.426   .     A
C19    C110    1.475   .     S
C19    C481    1.426   .     S
C20    C86     1.426   .     A
C20    C109    1.474   .     S
C20    C478    1.426   1_455 S
C21    C87     1.428   .     A
C21    C108    1.474   .     S
C21    C487    1.425   .     S
C22    C107    1.474   .     S
C22    C88     1.428   .     A
C22    C489    1.425   1_455 S
C23    C94     1.419   .     A
C23    C881    1.419   1_545 S
C23    C106    1.460   .     S
C24    C90     1.401   .     A
C24    C104    1.390   .     A
C24    F172    1.361   .     S
C25    C105    1.487   .     S
C25    C90     1.433   .     A
C25    C887    1.433   1_545 S
C26    C78     1.520   .     S
C26    H296    1.112   .     S
C26    H285    1.108   .     S
C26    C27     1.537   .     S
C27    C28     1.524   .     S
C27    H1055   1.112   1_545 S
C27    H1066   1.111   1_545 S
C28    H217    1.110   .     S
C28    H252    1.110   .     S
C28    H241    1.111   .     S
C29    H235    1.112   .     S
C29    C30     1.534   .     S
C29    C79     1.519   .     S
C29    H234    1.110   .     S
C30    H233    1.111   .     S
C30    H229    1.112   .     S
C30    C31     1.527   .     S
C31    H218    1.110   .     S
C31    H307    1.111   .     S
C31    H318    1.111   .     S
C32    C80     1.520   .     S
C32    H242    1.110   .     S
C32    C33     1.534   .     S
C32    H243    1.112   .     S
C33    H240    1.111   .     S
C33    H239    1.111   .     S
C33    C34     1.526   .     S
C34    H238    1.110   .     S
C34    H236    1.110   .     S
C34    H237    1.111   .     S
C35    F173    1.360   .     S
C35    C91     1.400   .     A
C35    C496    1.394   1_455 S
C36    H250    1.112   .     S
C36    C37     1.537   .     S
C36    H249    1.108   .     S
C36    C82     1.519   .     S
C37    C38     1.524   .     S
C37    H247    1.112   .     S
C37    H644    1.112   .     S
C38    H245    1.111   .     S
C38    H244    1.109   .     S
C38    H246    1.110   .     S
C39    C40     1.537   .     S
C39    H258    1.112   .     S
C39    C83     1.520   .     S
C39    H257    1.108   .     S
C40    C41     1.525   .     S
C40    H1047   1.112   .     S
C40    H1048   1.111   .     S
C41    H251    1.110   .     S
C41    H254    1.110   .     S
C41    H253    1.111   .     S
C42    H266    1.112   .     S
C42    C84     1.519   .     S
C42    H265    1.110   .     S
C42    C43     1.534   .     S
C43    H264    1.111   .     S
C43    H262    1.112   .     S
C43    C44     1.527   .     S
C44    H261    1.110   .     S
C44    H260    1.111   .     S
C44    H259    1.111   .     S
C45    C47     1.537   .     S
C45    H273    1.112   .     S
C45    H272    1.108   .     S
C45    C85     1.519   .     S
C46    F174    1.360   .     S
C46    C93     1.400   .     A
C46    C497    1.393   .     S
C47    H270    1.112   .     S
C47    C48     1.524   .     S
C47    H667    1.112   1_455 S
C48    H269    1.110   .     S
C48    H267    1.109   .     S
C48    H268    1.111   .     S
C49    H280    1.110   .     S
C49    C86     1.520   .     S
C49    H281    1.112   .     S
C49    C50     1.534   .     S
C50    C51     1.526   .     S
C50    H278    1.111   .     S
C50    H279    1.111   .     S
C51    H276    1.111   .     S
C51    H277    1.110   .     S
C51    H275    1.110   .     S
C52    H289    1.112   .     S
C52    C53     1.537   .     S
C52    H288    1.108   .     S
C52    C87     1.520   .     S
C53    C54     1.524   .     S
C53    H287    1.112   .     S
C53    H286    1.112   .     S
C54    H282    1.111   .     S
C54    H283    1.110   .     S
C54    H284    1.109   .     S
C55    C88     1.520   .     S
C55    H295    1.108   .     S
C55    C56     1.537   .     S
C55    H297    1.112   .     S
C56    H294    1.112   .     S
C56    C58     1.524   .     S
C56    H293    1.112   .     S
C57    C102    1.396   .     A
C57    F175    1.360   .     S
C57    C94     1.399   .     A
C58    H291    1.111   .     S
C58    H292    1.110   .     S
C58    H290    1.109   .     S
C59    C89     1.519   .     S
C59    H303    1.110   .     S
C59    C60     1.534   .     S
C59    H304    1.112   .     S
C60    H302    1.111   .     S
C60    C61     1.526   .     S
C60    H301    1.112   .     S
C61    H300    1.110   .     S
C61    H299    1.111   .     S
C61    H298    1.111   .     S
C62    H312    1.112   .     S
C62    C63     1.537   .     S
C62    H311    1.108   .     S
C62    C90     1.520   .     S
C63    H309    1.112   .     S
C63    C64     1.525   .     S
C63    H310    1.111   .     S
C64    H306    1.111   .     S
C64    H308    1.110   .     S
C64    H305    1.110   .     S
C65    C91     1.520   .     S
C65    H319    1.109   .     S
C65    H320    1.112   .     S
C65    C66     1.534   .     S
C66    C67     1.526   .     S
C66    H316    1.112   .     S
C66    H317    1.111   .     S
C67    H314    1.111   .     S
C67    H315    1.110   .     S
C67    H313    1.110   .     S
C68    F176    1.361   .     S
C68    C95     1.401   .     A
C68    C896    1.390   .     S
C69    C93     1.520   .     S
C69    H327    1.112   .     S
C69    C70     1.534   .     S
C69    H326    1.109   .     S
C70    H325    1.111   .     S
C70    C71     1.526   .     S
C70    H324    1.112   .     S
C71    H323    1.110   .     S
C71    H321    1.110   .     S
C71    H322    1.111   .     S
C72    H224    1.112   .     S
C72    C94     1.519   .     S
C72    C73     1.534   .     S
C72    H223    1.110   .     S
C73    H221    1.112   .     S
C73    C74     1.527   .     S
C73    H222    1.111   .     S
C74    H220    1.110   .     S
C74    H328    1.111   .     S
C74    H219    1.111   .     S
C75    C95     1.520   .     S
C75    C76     1.537   .     S
C75    H232    1.112   .     S
C75    H231    1.108   .     S
C76    H228    1.112   .     S
C76    H230    1.111   .     S
C76    C77     1.524   .     S
C77    H226    1.111   .     S
C77    H225    1.110   .     S
C77    H227    1.110   .     S
C78    C809    1.433   1_545 S
C79    C81     1.399   .     A
C79    C810    1.419   1_545 S
C80    C92     1.401   .     A
C81    F180    1.360   .     S
C81    C889    1.396   1_545 S
C82    C103    1.400   .     A
C82    C416    1.426   .     S
C83    C114    1.401   .     A
C84    C125    1.399   .     A
C85    C136    1.400   .     A
C85    C415    1.426   1_455 S
C86    C147    1.401   .     A
C87    C158    1.399   .     A
C89    C815    1.419   .     S
C91    C417    1.425   1_455 S
C92    F191    1.360   .     S
C92    C494    1.393   .     S
C93    C418    1.425   .     S
C95    C817    1.433   .     S
C96    C114    1.390   .     A
C96    C793    1.390   .     S
C96    C97     1.458   1_554 S
C97    C125    1.396   .     A
C97    C96     1.458   1_556 S
C97    C873    1.396   .     S
C98    C136    1.393   .     A
C98    C488    1.393   1_455 S
C98    C495    1.459   1_454 S
C99    C103    1.393   .     A
C99    C494    1.459   1_556 S
C99    C543    1.393   .     S
C100   C158    1.391   .     A
C100   C431    1.394   .     S
C100   C497    1.457   .     S
C101   C442    1.393   1_455 S
C101   C496    1.457   1_455 S
C102   C104    1.458   .     S
C102   C805    1.396   1_545 S
C103   F202    1.361   .     S
C104   C860    1.390   1_545 S
C105   O380    1.286   .     A
C105   O1165   1.286   1_545 S
C106   O1122   1.278   1_545 A
C106   O377    1.278   .     S
C107   O378    1.279   .     A
C107   O727    1.285   1_455 S
C108   O379    1.279   .     A
C108   O728    1.285   .     S
C109   O333    1.282   .     A
C109   O337    1.282   .     S
C110   O730    1.282   .     S
C110   O734    1.283   .     S
C111   O1127   1.278   .     S
C111   O1131   1.278   .     S
C112   O1128   1.286   .     S
C112   O1133   1.286   .     S
C113   O342    1.279   .     A
C113   C168    1.452   .     S
C113   O370    1.279   .     A
C114   F212    1.361   .     S
C115   O371    1.278   .     A
C115   O343    1.278   .     A
C116   O368    1.279   .     A
C116   O344    1.279   .     A
C117   O369    1.279   .     A
C117   O345    1.279   .     A
C118   O346    1.279   .     A
C118   O375    1.279   .     A
C119   O347    1.279   .     A
C119   O376    1.279   .     A
C120   C166    1.455   .     S
C120   O372    1.279   .     A
C120   O348    1.279   .     A
C121   O349    1.279   .     A
C121   C167    1.455   .     S
C121   O374    1.279   .     A
C122   O350    1.279   .     A
C122   O361    1.279   .     A
C123   O363    1.279   .     A
C123   O352    1.279   .     A
C124   O359    1.279   .     A
C124   O353    1.279   .     A
C125   F213    1.360   .     S
C126   O360    1.278   .     A
C126   O354    1.278   .     A
C127   O366    1.279   .     A
C127   O355    1.279   .     A
C128   O367    1.278   .     A
C128   O356    1.278   .     A
C129   O364    1.279   .     A
C129   O357    1.279   .     A
C130   O365    1.279   .     A
C130   O358    1.279   .     A
C131   F177    1.358   .     S
C131   C148    1.391   .     A
C132   F178    1.359   .     S
C132   C146    1.385   .     A
C133   C145    1.388   .     A
C133   F179    1.358   .     S
C134   C144    1.390   .     A
C134   F181    1.357   .     S
C135   C143    1.386   .     A
C135   F182    1.359   .     S
C136   F214    1.361   .     S
C137   F183    1.359   .     S
C137   C142    1.385   .     A
C138   C141    1.388   .     A
C138   F184    1.359   .     S
C139   C140    1.385   .     A
C139   F185    1.359   .     S
C140   F186    1.359   .     S
C141   F187    1.357   .     S
C142   F188    1.359   .     S
C143   F189    1.359   .     S
C144   F190    1.358   .     S
C145   C168    1.402   .     A
C145   F192    1.357   .     S
C146   C167    1.405   .     A
C146   F193    1.359   .     S
C147   F215    1.360   .     S
C147   C495    1.393   1_455 S
C148   C166    1.402   .     A
C148   F194    1.357   .     S
C149   C165    1.385   .     A
C149   F195    1.359   .     S
C149   C167    1.405   .     A
C150   C166    1.402   .     A
C150   C164    1.391   .     A
C150   F196    1.357   .     S
C151   F197    1.358   .     S
C151   C163    1.390   .     A
C152   C168    1.403   .     A
C152   C162    1.388   .     A
C152   F198    1.357   .     S
C153   C161    1.385   .     A
C153   F199    1.359   .     S
C154   F200    1.359   .     S
C154   C160    1.386   .     A
C155   C159    1.385   .     A
C155   F201    1.359   .     S
C156   F203    1.357   .     S
C156   C157    1.388   .     A
C157   F204    1.358   .     S
C158   F216    1.361   .     S
C159   F205    1.359   .     S
C160   F206    1.359   .     S
C161   F207    1.359   .     S
C162   F208    1.359   .     S
C163   F209    1.357   .     S
C164   F210    1.358   .     S
C165   F211    1.359   .     S
H248   C433    1.112   1_455 S
H255   C832    1.112   1_545 S
H256   C832    1.111   1_545 S
H263   C819    1.112   .     S
H271   C443    1.112   .     S
H274   C819    1.111   .     S
O329   Zn384   1.945   .     S
O329   Zn381   1.944   .     S
O329   Zn392   1.945   .     S
O329   Zn1180  1.945   1_545 S
O330   Zn383   1.942   .     S
O330   C898    1.278   .     A
O331   Zn386   1.942   .     S
O331   C503    1.285   .     S
O332   Zn385   1.942   .     S
O332   C504    1.285   1_455 S
O333   Zn395   1.942   .     S
O334   Zn394   1.942   .     S
O334   C506    1.282   1_455 S
O335   C903    1.278   1_545 S
O335   Zn389   1.942   .     S
O336   Zn381   1.942   .     S
O336   C904    1.286   1_545 S
O337   Zn391   1.942   .     S
O338   Zn390   1.942   .     S
O338   C506    1.283   1_455 S
O339   C903    1.278   1_545 S
O339   Zn393   1.942   .     S
O340   Zn387   1.945   .     S
O340   Zn1175  1.945   1_545 S
O340   Zn389   1.944   .     S
O340   Zn393   1.945   .     S
O341   Zn392   1.942   .     S
O341   C904    1.286   1_545 S
O342   Zn384   1.932   .     S
O343   Zn383   1.932   .     S
O344   Zn386   1.936   .     S
O345   Zn385   1.936   .     S
O346   Zn388   1.932   .     S
O347   Zn387   1.932   .     S
O348   Zn382   1.936   .     S
O349   Zn396   1.936   .     S
O350   Zn383   1.936   .     S
O351   Zn782   1.945   1_455 S
O351   Zn382   1.944   .     S
O351   Zn390   1.945   .     S
O351   Zn394   1.945   .     S
O352   Zn384   1.936   .     S
O353   Zn396   1.932   .     S
O354   Zn382   1.932   .     S
O355   Zn387   1.936   .     S
O356   Zn388   1.936   .     S
O357   Zn385   1.932   .     S
O358   Zn386   1.932   .     S
O359   Zn787   1.932   .     S
O360   Zn390   1.932   .     S
O361   Zn1185  1.936   .     S
O362   Zn385   1.945   .     S
O362   Zn395   1.945   .     S
O362   Zn391   1.945   .     S
O362   Zn792   1.944   1_455 S
O363   Zn392   1.936   .     S
O364   Zn395   1.932   .     S
O365   Zn790   1.932   .     S
O366   Zn389   1.936   .     S
O367   Zn1173  1.936   .     S
O368   Zn786   1.936   .     S
O369   Zn391   1.936   .     S
O370   Zn381   1.932   .     S
O371   Zn1181  1.932   .     S
O372   Zn394   1.936   .     S
O373   Zn388   1.942   .     S
O373   C897    1.286   .     S
O374   Zn791   1.936   .     S
O375   Zn1184  1.932   .     S
O376   Zn393   1.932   .     S
O377   Zn387   1.942   .     S
O378   Zn382   1.942   .     S
O379   Zn396   1.942   .     S
O380   Zn384   1.942   .     S
Zn381  O1159   1.936   1_545 S
Zn383  O1132   1.945   .     S
Zn386  O747    1.945   .     S
Zn388  O1121   1.945   .     S
Zn389  O1163   1.932   1_545 S
Zn390  O764    1.936   1_455 S
Zn391  O755    1.932   1_455 S
Zn392  O1167   1.932   1_545 S
Zn393  O1153   1.936   1_545 S
Zn394  O761    1.932   1_455 S
Zn395  O770    1.936   1_455 S
Zn396  O758    1.944   .     S
C397   C474    1.401   .     A
C397   F565    1.361   .     S
C397   C1284   1.390   1_545 S
C398   F566    1.361   .     S
C398   C484    1.399   .     A
C398   C497    1.391   .     A
C399   C540    1.402   .     A
C399   C511    1.451   .     S
C399   C547    1.402   .     A
C400   C550    1.404   .     A
C400   C512    1.455   .     S
C400   C539    1.404   .     A
C401   C538    1.405   .     A
C401   C513    1.455   .     S
C401   C549    1.405   .     A
C402   C537    1.403   .     A
C402   C552    1.402   .     A
C402   C514    1.452   .     S
C403   C515    1.452   .     S
C403   C536    1.404   .     A
C403   C551    1.404   .     A
C404   C525    1.451   .     S
C404   C555    1.404   .     A
C404   C535    1.404   .     A
C405   C526    1.451   .     S
C405   C553    1.403   .     A
C405   C534    1.403   .     A
C406   C518    1.454   .     S
C406   C557    1.405   .     A
C406   C533    1.405   .     A
C407   C556    1.404   .     A
C407   C531    1.404   .     A
C407   C519    1.455   .     S
C408   C559    1.402   .     A
C408   C530    1.402   .     A
C408   C520    1.452   .     S
C409   F567    1.360   .     S
C409   C485    1.399   .     A
C409   C1290   1.396   .     S
C410   C522    1.451   .     S
C410   C529    1.403   .     A
C410   C558    1.403   .     A
C411   C528    1.404   .     A
C411   C523    1.454   .     S
C411   C561    1.405   .     A
C412   C560    1.402   .     A
C412   C527    1.402   .     A
C412   C524    1.454   .     S
C413   C479    1.433   .     A
C413   C508    1.487   .     S
C413   C1266   1.433   .     S
C414   C507    1.460   .     S
C414   C480    1.419   .     A
C414   C1267   1.419   .     S
C415   C476    1.426   .     A
C415   C506    1.475   .     S
C415   C85     1.426   1_655 S
C416   C482    1.426   .     A
C416   C505    1.474   .     S
C417   C483    1.428   .     A
C417   C504    1.474   .     S
C417   C91     1.425   1_655 S
C418   C503    1.474   .     S
C418   C484    1.428   .     A
C419   C490    1.419   .     A
C419   C1277   1.419   1_545 S
C419   C502    1.460   .     S
C420   C486    1.401   .     A
C420   C500    1.390   .     A
C420   F568    1.361   .     S
C421   C501    1.487   .     S
C421   C486    1.433   .     A
C421   C1283   1.433   1_545 S
C422   C474    1.520   .     S
C422   H692    1.112   .     S
C422   H681    1.108   .     S
C422   C423    1.537   .     S
C423   C424    1.524   .     S
C423   H1451   1.112   1_545 S
C423   H1462   1.111   1_545 S
C424   H613    1.110   .     S
C424   H648    1.110   .     S
C424   H637    1.111   .     S
C425   H631    1.112   .     S
C425   C426    1.534   .     S
C425   C475    1.519   .     S
C425   H630    1.110   .     S
C426   H629    1.111   .     S
C426   H625    1.112   .     S
C426   C427    1.527   .     S
C427   H614    1.110   .     S
C427   H703    1.111   .     S
C427   H714    1.111   .     S
C428   C476    1.520   .     S
C428   H638    1.110   .     S
C428   C429    1.534   .     S
C428   H639    1.112   .     S
C429   H636    1.111   .     S
C429   H635    1.111   .     S
C429   C430    1.526   .     S
C430   H634    1.110   .     S
C430   H632    1.110   .     S
C430   H633    1.111   .     S
C431   F569    1.360   .     S
C431   C487    1.400   .     A
C432   H646    1.112   .     S
C432   C433    1.537   .     S
C432   H645    1.108   .     S
C432   C478    1.519   .     S
C433   C434    1.524   .     S
C433   H643    1.112   .     S
C433   H248    1.112   1_655 S
C434   H641    1.111   .     S
C434   H640    1.109   .     S
C434   H642    1.110   .     S
C435   C436    1.537   .     S
C435   H654    1.112   .     S
C435   C479    1.520   .     S
C435   H653    1.108   .     S
C436   C437    1.525   .     S
C436   H1443   1.112   .     S
C436   H1444   1.111   .     S
C437   H647    1.110   .     S
C437   H650    1.110   .     S
C437   H649    1.111   .     S
C438   H662    1.112   .     S
C438   C480    1.519   .     S
C438   H661    1.110   .     S
C438   C439    1.534   .     S
C439   H660    1.111   .     S
C439   H658    1.112   .     S
C439   C440    1.527   .     S
C440   H657    1.110   .     S
C440   H656    1.111   .     S
C440   H655    1.111   .     S
C441   C443    1.537   .     S
C441   H669    1.112   .     S
C441   H668    1.108   .     S
C441   C481    1.519   .     S
C442   F570    1.360   .     S
C442   C489    1.400   .     A
C442   C101    1.393   1_655 S
C443   H666    1.112   .     S
C443   C444    1.524   .     S
C444   H665    1.110   .     S
C444   H663    1.109   .     S
C444   H664    1.111   .     S
C445   H676    1.110   .     S
C445   C482    1.520   .     S
C445   H677    1.112   .     S
C445   C446    1.534   .     S
C446   C447    1.526   .     S
C446   H674    1.111   .     S
C446   H675    1.111   .     S
C447   H672    1.111   .     S
C447   H673    1.110   .     S
C447   H671    1.110   .     S
C448   H685    1.112   .     S
C448   C449    1.537   .     S
C448   H684    1.108   .     S
C448   C483    1.520   .     S
C449   C450    1.524   .     S
C449   H683    1.112   .     S
C449   H682    1.112   .     S
C450   H678    1.111   .     S
C450   H679    1.110   .     S
C450   H680    1.109   .     S
C451   C484    1.520   .     S
C451   H691    1.108   .     S
C451   C452    1.537   .     S
C451   H693    1.112   .     S
C452   H690    1.112   .     S
C452   C454    1.524   .     S
C452   H689    1.112   .     S
C453   C498    1.396   .     A
C453   F571    1.360   .     S
C453   C490    1.399   .     A
C454   H687    1.111   .     S
C454   H688    1.110   .     S
C454   H686    1.109   .     S
C455   C485    1.519   .     S
C455   H699    1.110   .     S
C455   C456    1.534   .     S
C455   H700    1.112   .     S
C456   H698    1.111   .     S
C456   C457    1.526   .     S
C456   H697    1.112   .     S
C457   H696    1.110   .     S
C457   H695    1.111   .     S
C457   H694    1.111   .     S
C458   H708    1.112   .     S
C458   C459    1.537   .     S
C458   H707    1.108   .     S
C458   C486    1.520   .     S
C459   H705    1.112   .     S
C459   C460    1.525   .     S
C459   H706    1.111   .     S
C460   H702    1.111   .     S
C460   H704    1.110   .     S
C460   H701    1.110   .     S
C461   C487    1.520   .     S
C461   H715    1.109   .     S
C461   H716    1.112   .     S
C461   C462    1.534   .     S
C462   C463    1.526   .     S
C462   H712    1.112   .     S
C462   H713    1.111   .     S
C463   H710    1.111   .     S
C463   H711    1.110   .     S
C463   H709    1.110   .     S
C464   F572    1.361   .     S
C464   C491    1.401   .     A
C464   C1292   1.390   .     S
C465   C489    1.520   .     S
C465   H723    1.112   .     S
C465   C466    1.534   .     S
C465   H722    1.109   .     S
C466   H721    1.111   .     S
C466   C467    1.526   .     S
C466   H720    1.112   .     S
C467   H719    1.110   .     S
C467   H717    1.110   .     S
C467   H718    1.111   .     S
C468   H620    1.112   .     S
C468   C490    1.519   .     S
C468   C469    1.534   .     S
C468   H619    1.110   .     S
C469   H617    1.112   .     S
C469   C470    1.527   .     S
C469   H618    1.111   .     S
C470   H616    1.110   .     S
C470   H724    1.111   .     S
C470   H615    1.111   .     S
C471   C491    1.520   .     S
C471   C472    1.537   .     S
C471   H628    1.112   .     S
C471   H627    1.108   .     S
C472   H624    1.112   .     S
C472   H626    1.111   .     S
C472   C473    1.524   .     S
C473   H622    1.111   .     S
C473   H621    1.110   .     S
C473   H623    1.110   .     S
C474   C1205   1.433   1_545 S
C475   C477    1.399   .     A
C475   C1206   1.419   1_545 S
C476   C488    1.401   .     A
C477   F576    1.360   .     S
C477   C1285   1.396   1_545 S
C478   C499    1.400   .     A
C478   C20     1.426   1_655 S
C479   C510    1.401   .     A
C480   C521    1.399   .     A
C481   C532    1.400   .     A
C482   C543    1.401   .     A
C483   C554    1.399   .     A
C485   C1211   1.419   .     S
C488   F587    1.360   .     S
C488   C98     1.393   1_655 S
C489   C22     1.425   1_655 S
C491   C1213   1.433   .     S
C492   C510    1.390   .     A
C492   C1189   1.390   .     S
C492   C493    1.458   1_554 S
C493   C521    1.396   .     A
C493   C492    1.458   1_556 S
C493   C1269   1.396   .     S
C494   C532    1.393   .     A
C494   C99     1.459   1_554 S
C495   C499    1.393   .     A
C495   C98     1.459   1_656 S
C495   C147    1.393   1_655 S
C496   C554    1.391   .     A
C496   C35     1.394   1_655 S
C496   C101    1.457   1_655 S
C498   C500    1.458   .     S
C498   C1201   1.396   1_545 S
C499   F598    1.361   .     S
C500   C1256   1.390   1_545 S
C501   O776    1.286   .     A
C501   O1561   1.286   1_545 S
C502   O1518   1.278   1_545 A
C502   O773    1.278   .     S
C503   O774    1.279   .     A
C504   O775    1.279   .     A
C504   O332    1.285   1_655 S
C505   O729    1.282   .     A
C505   O733    1.282   .     S
C506   O334    1.282   1_655 S
C506   O338    1.283   1_655 S
C507   O1523   1.278   .     S
C507   O1527   1.278   .     S
C508   O1524   1.286   .     S
C508   O1529   1.286   .     S
C509   O738    1.279   .     A
C509   C564    1.452   .     S
C509   O766    1.279   .     A
C510   F608    1.361   .     S
C511   O767    1.278   .     A
C511   O739    1.278   .     A
C512   O764    1.279   .     A
C512   O740    1.279   .     A
C513   O765    1.279   .     A
C513   O741    1.279   .     A
C514   O742    1.279   .     A
C514   O771    1.279   .     A
C515   O743    1.279   .     A
C515   O772    1.279   .     A
C516   C562    1.455   .     S
C516   O768    1.279   .     A
C516   O744    1.279   .     A
C517   O745    1.279   .     A
C517   C563    1.455   .     S
C517   O770    1.279   .     A
C518   O746    1.279   .     A
C518   O757    1.279   .     A
C519   O759    1.279   .     A
C519   O748    1.279   .     A
C520   O755    1.279   .     A
C520   O749    1.279   .     A
C521   F609    1.360   .     S
C522   O756    1.278   .     A
C522   O750    1.278   .     A
C523   O762    1.279   .     A
C523   O751    1.279   .     A
C524   O763    1.278   .     A
C524   O752    1.278   .     A
C525   O760    1.279   .     A
C525   O753    1.279   .     A
C526   O761    1.279   .     A
C526   O754    1.279   .     A
C527   F573    1.358   .     S
C527   C544    1.391   .     A
C528   F574    1.359   .     S
C528   C542    1.385   .     A
C529   C541    1.388   .     A
C529   F575    1.358   .     S
C530   C540    1.390   .     A
C530   F577    1.357   .     S
C531   C539    1.386   .     A
C531   F578    1.359   .     S
C532   F610    1.361   .     S
C533   F579    1.359   .     S
C533   C538    1.385   .     A
C534   C537    1.388   .     A
C534   F580    1.359   .     S
C535   C536    1.385   .     A
C535   F581    1.359   .     S
C536   F582    1.359   .     S
C537   F583    1.357   .     S
C538   F584    1.359   .     S
C539   F585    1.359   .     S
C540   F586    1.358   .     S
C541   C564    1.402   .     A
C541   F588    1.357   .     S
C542   C563    1.405   .     A
C542   F589    1.359   .     S
C543   F611    1.360   .     S
C544   C562    1.402   .     A
C544   F590    1.357   .     S
C545   C561    1.385   .     A
C545   F591    1.359   .     S
C545   C563    1.405   .     A
C546   C562    1.402   .     A
C546   C560    1.391   .     A
C546   F592    1.357   .     S
C547   F593    1.358   .     S
C547   C559    1.390   .     A
C548   C564    1.403   .     A
C548   C558    1.388   .     A
C548   F594    1.357   .     S
C549   C557    1.385   .     A
C549   F595    1.359   .     S
C550   F596    1.359   .     S
C550   C556    1.386   .     A
C551   C555    1.385   .     A
C551   F597    1.359   .     S
C552   F599    1.357   .     S
C552   C553    1.388   .     A
C553   F600    1.358   .     S
C554   F612    1.361   .     S
C555   F601    1.359   .     S
C556   F602    1.359   .     S
C557   F603    1.359   .     S
C558   F604    1.359   .     S
C559   F605    1.357   .     S
C560   F606    1.358   .     S
C561   F607    1.359   .     S
H651   C1228   1.112   1_545 S
H652   C1228   1.111   1_545 S
H659   C1215   1.112   .     S
H667   C47     1.112   1_655 S
H670   C1215   1.111   .     S
O725   Zn780   1.945   .     S
O725   Zn777   1.944   .     S
O725   Zn788   1.945   .     S
O725   Zn1576  1.945   1_545 S
O726   Zn779   1.942   .     S
O726   C1294   1.278   .     A
O727   Zn782   1.942   .     S
O727   C107    1.285   1_655 S
O728   Zn781   1.942   .     S
O729   Zn791   1.942   .     S
O730   Zn790   1.942   .     S
O731   C1299   1.278   1_545 S
O731   Zn785   1.942   .     S
O732   Zn777   1.942   .     S
O732   C1300   1.286   1_545 S
O733   Zn787   1.942   .     S
O734   Zn786   1.942   .     S
O735   C1299   1.278   1_545 S
O735   Zn789   1.942   .     S
O736   Zn783   1.945   .     S
O736   Zn1571  1.945   1_545 S
O736   Zn785   1.944   .     S
O736   Zn789   1.945   .     S
O737   Zn788   1.942   .     S
O737   C1300   1.286   1_545 S
O738   Zn780   1.932   .     S
O739   Zn779   1.932   .     S
O740   Zn782   1.936   .     S
O741   Zn781   1.936   .     S
O742   Zn784   1.932   .     S
O743   Zn783   1.932   .     S
O744   Zn778   1.936   .     S
O745   Zn792   1.936   .     S
O746   Zn779   1.936   .     S
O747   Zn778   1.944   .     S
O747   Zn786   1.945   .     S
O747   Zn790   1.945   .     S
O748   Zn780   1.936   .     S
O749   Zn792   1.932   .     S
O750   Zn778   1.932   .     S
O751   Zn783   1.936   .     S
O752   Zn784   1.936   .     S
O753   Zn781   1.932   .     S
O754   Zn782   1.932   .     S
O755   Zn391   1.932   1_655 S
O756   Zn786   1.932   .     S
O757   Zn1581  1.936   .     S
O758   Zn781   1.945   .     S
O758   Zn791   1.945   .     S
O758   Zn787   1.945   .     S
O759   Zn788   1.936   .     S
O760   Zn791   1.932   .     S
O761   Zn394   1.932   1_655 S
O762   Zn785   1.936   .     S
O763   Zn1569  1.936   .     S
O764   Zn390   1.936   1_655 S
O765   Zn787   1.936   .     S
O766   Zn777   1.932   .     S
O767   Zn1577  1.932   .     S
O768   Zn790   1.936   .     S
O769   Zn784   1.942   .     S
O769   C1293   1.286   .     S
O770   Zn395   1.936   1_655 S
O771   Zn1580  1.932   .     S
O772   Zn789   1.932   .     S
O773   Zn783   1.942   .     S
O774   Zn778   1.942   .     S
O775   Zn792   1.942   .     S
O776   Zn780   1.942   .     S
Zn777  O1555   1.936   1_545 S
Zn779  O1528   1.945   .     S
Zn782  O351    1.945   1_655 S
Zn784  O1517   1.945   .     S
Zn785  O1559   1.932   1_545 S
Zn788  O1563   1.932   1_545 S
Zn789  O1549   1.936   1_545 S
Zn792  O362    1.944   1_655 S
C793   C870    1.401   .     A
C793   F961    1.361   .     S
C794   F962    1.361   .     S
C794   C880    1.399   .     A
C794   C893    1.391   .     A
C795   C936    1.402   .     A
C795   C907    1.451   .     S
C795   C943    1.402   .     A
C796   C946    1.404   .     A
C796   C908    1.455   .     S
C796   C935    1.404   .     A
C797   C934    1.405   .     A
C797   C909    1.455   .     S
C797   C945    1.405   .     A
C798   C933    1.403   .     A
C798   C948    1.402   .     A
C798   C910    1.452   .     S
C799   C911    1.452   .     S
C799   C932    1.404   .     A
C799   C947    1.404   .     A
C800   C921    1.451   .     S
C800   C951    1.404   .     A
C800   C931    1.404   .     A
C801   C922    1.451   .     S
C801   C949    1.403   .     A
C801   C930    1.403   .     A
C802   C914    1.454   .     S
C802   C953    1.405   .     A
C802   C929    1.405   .     A
C803   C952    1.404   .     A
C803   C927    1.404   .     A
C803   C915    1.455   .     S
C804   C955    1.402   .     A
C804   C926    1.402   .     A
C804   C916    1.452   .     S
C805   F963    1.360   .     S
C805   C881    1.399   .     A
C805   C102    1.396   1_565 S
C806   C918    1.451   .     S
C806   C925    1.403   .     A
C806   C954    1.403   .     A
C807   C924    1.404   .     A
C807   C919    1.454   .     S
C807   C957    1.405   .     A
C808   C956    1.402   .     A
C808   C923    1.402   .     A
C808   C920    1.454   .     S
C809   C875    1.433   .     A
C809   C904    1.487   .     S
C809   C78     1.433   1_565 S
C810   C903    1.460   .     S
C810   C876    1.419   .     A
C810   C79     1.419   1_565 S
C811   C872    1.426   .     A
C811   C902    1.475   .     S
C811   C1273   1.426   .     S
C812   C878    1.426   .     A
C812   C901    1.474   .     S
C812   C1270   1.426   1_455 S
C813   C879    1.428   .     A
C813   C900    1.474   .     S
C813   C1279   1.425   .     S
C814   C899    1.474   .     S
C814   C880    1.428   .     A
C814   C1281   1.425   1_455 S
C815   C886    1.419   .     A
C815   C898    1.460   .     S
C816   C882    1.401   .     A
C816   C896    1.390   .     A
C816   F964    1.361   .     S
C817   C897    1.487   .     S
C817   C882    1.433   .     A
C818   C870    1.520   .     S
C818   H1088   1.112   .     S
C818   H1077   1.108   .     S
C818   C819    1.537   .     S
C819   C820    1.524   .     S
C820   H1009   1.110   .     S
C820   H1044   1.110   .     S
C820   H1033   1.111   .     S
C821   H1027   1.112   .     S
C821   C822    1.534   .     S
C821   C871    1.519   .     S
C821   H1026   1.110   .     S
C822   H1025   1.111   .     S
C822   H1021   1.112   .     S
C822   C823    1.527   .     S
C823   H1010   1.110   .     S
C823   H1099   1.111   .     S
C823   H1110   1.111   .     S
C824   C872    1.520   .     S
C824   H1034   1.110   .     S
C824   C825    1.534   .     S
C824   H1035   1.112   .     S
C825   H1032   1.111   .     S
C825   H1031   1.111   .     S
C825   C826    1.526   .     S
C826   H1030   1.110   .     S
C826   H1028   1.110   .     S
C826   H1029   1.111   .     S
C827   F965    1.360   .     S
C827   C883    1.400   .     A
C827   C1288   1.394   1_455 S
C828   H1042   1.112   .     S
C828   C829    1.537   .     S
C828   H1041   1.108   .     S
C828   C874    1.519   .     S
C829   C830    1.524   .     S
C829   H1039   1.112   .     S
C829   H1436   1.112   .     S
C830   H1037   1.111   .     S
C830   H1036   1.109   .     S
C830   H1038   1.110   .     S
C831   C832    1.537   .     S
C831   H1050   1.112   .     S
C831   C875    1.520   .     S
C831   H1049   1.108   .     S
C832   C833    1.525   .     S
C832   H255    1.112   1_565 S
C832   H256    1.111   1_565 S
C833   H1043   1.110   .     S
C833   H1046   1.110   .     S
C833   H1045   1.111   .     S
C834   H1058   1.112   .     S
C834   C876    1.519   .     S
C834   H1057   1.110   .     S
C834   C835    1.534   .     S
C835   H1056   1.111   .     S
C835   H1054   1.112   .     S
C835   C836    1.527   .     S
C836   H1053   1.110   .     S
C836   H1052   1.111   .     S
C836   H1051   1.111   .     S
C837   C839    1.537   .     S
C837   H1065   1.112   .     S
C837   H1064   1.108   .     S
C837   C877    1.519   .     S
C838   F966    1.360   .     S
C838   C885    1.400   .     A
C838   C1289   1.393   .     S
C839   H1062   1.112   .     S
C839   C840    1.524   .     S
C839   H1459   1.112   1_455 S
C840   H1061   1.110   .     S
C840   H1059   1.109   .     S
C840   H1060   1.111   .     S
C841   H1072   1.110   .     S
C841   C878    1.520   .     S
C841   H1073   1.112   .     S
C841   C842    1.534   .     S
C842   C843    1.526   .     S
C842   H1070   1.111   .     S
C842   H1071   1.111   .     S
C843   H1068   1.111   .     S
C843   H1069   1.110   .     S
C843   H1067   1.110   .     S
C844   H1081   1.112   .     S
C844   C845    1.537   .     S
C844   H1080   1.108   .     S
C844   C879    1.520   .     S
C845   C846    1.524   .     S
C845   H1079   1.112   .     S
C845   H1078   1.112   .     S
C846   H1074   1.111   .     S
C846   H1075   1.110   .     S
C846   H1076   1.109   .     S
C847   C880    1.520   .     S
C847   H1087   1.108   .     S
C847   C848    1.537   .     S
C847   H1089   1.112   .     S
C848   H1086   1.112   .     S
C848   C850    1.524   .     S
C848   H1085   1.112   .     S
C849   C894    1.396   .     A
C849   F967    1.360   .     S
C849   C886    1.399   .     A
C850   H1083   1.111   .     S
C850   H1084   1.110   .     S
C850   H1082   1.109   .     S
C851   C881    1.519   .     S
C851   H1095   1.110   .     S
C851   C852    1.534   .     S
C851   H1096   1.112   .     S
C852   H1094   1.111   .     S
C852   C853    1.526   .     S
C852   H1093   1.112   .     S
C853   H1092   1.110   .     S
C853   H1091   1.111   .     S
C853   H1090   1.111   .     S
C854   H1104   1.112   .     S
C854   C855    1.537   .     S
C854   H1103   1.108   .     S
C854   C882    1.520   .     S
C855   H1101   1.112   .     S
C855   C856    1.525   .     S
C855   H1102   1.111   .     S
C856   H1098   1.111   .     S
C856   H1100   1.110   .     S
C856   H1097   1.110   .     S
C857   C883    1.520   .     S
C857   H1111   1.109   .     S
C857   H1112   1.112   .     S
C857   C858    1.534   .     S
C858   C859    1.526   .     S
C858   H1108   1.112   .     S
C858   H1109   1.111   .     S
C859   H1106   1.111   .     S
C859   H1107   1.110   .     S
C859   H1105   1.110   .     S
C860   F968    1.361   .     S
C860   C887    1.401   .     A
C860   C104    1.390   1_565 S
C861   C885    1.520   .     S
C861   H1119   1.112   .     S
C861   C862    1.534   .     S
C861   H1118   1.109   .     S
C862   H1117   1.111   .     S
C862   C863    1.526   .     S
C862   H1116   1.112   .     S
C863   H1115   1.110   .     S
C863   H1113   1.110   .     S
C863   H1114   1.111   .     S
C864   H1016   1.112   .     S
C864   C886    1.519   .     S
C864   C865    1.534   .     S
C864   H1015   1.110   .     S
C865   H1013   1.112   .     S
C865   C866    1.527   .     S
C865   H1014   1.111   .     S
C866   H1012   1.110   .     S
C866   H1120   1.111   .     S
C866   H1011   1.111   .     S
C867   C887    1.520   .     S
C867   C868    1.537   .     S
C867   H1024   1.112   .     S
C867   H1023   1.108   .     S
C868   H1020   1.112   .     S
C868   H1022   1.111   .     S
C868   C869    1.524   .     S
C869   H1018   1.111   .     S
C869   H1017   1.110   .     S
C869   H1019   1.110   .     S
C871   C873    1.399   .     A
C872   C884    1.401   .     A
C873   F972    1.360   .     S
C874   C895    1.400   .     A
C874   C1208   1.426   .     S
C875   C906    1.401   .     A
C876   C917    1.399   .     A
C877   C928    1.400   .     A
C877   C1207   1.426   1_455 S
C878   C939    1.401   .     A
C879   C950    1.399   .     A
C881   C23     1.419   1_565 S
C883   C1209   1.425   1_455 S
C884   F983    1.360   .     S
C884   C1286   1.393   .     S
C885   C1210   1.425   .     S
C887   C25     1.433   1_565 S
C888   C906    1.390   .     A
C888   C1      1.390   1_565 S
C888   C889    1.458   1_554 S
C889   C917    1.396   .     A
C889   C888    1.458   1_556 S
C889   C81     1.396   1_565 S
C890   C928    1.393   .     A
C890   C1280   1.393   1_455 S
C890   C1287   1.459   1_454 S
C891   C895    1.393   .     A
C891   C1286   1.459   1_556 S
C891   C1335   1.393   .     S
C892   C950    1.391   .     A
C892   C1223   1.394   .     S
C892   C1289   1.457   .     S
C893   C1234   1.393   1_455 S
C893   C1288   1.457   1_455 S
C894   C896    1.458   .     S
C895   F994    1.361   .     S
C897   O1172   1.286   .     A
C898   O1169   1.278   .     S
C899   O1170   1.279   .     A
C899   O1519   1.285   1_455 S
C900   O1171   1.279   .     A
C900   O1520   1.285   .     S
C901   O1125   1.282   .     A
C901   O1129   1.282   .     S
C902   O1522   1.282   .     S
C902   O1526   1.283   .     S
C903   O335    1.278   1_565 S
C903   O339    1.278   1_565 S
C904   O336    1.286   1_565 S
C904   O341    1.286   1_565 S
C905   O1134   1.279   .     A
C905   C960    1.452   .     S
C905   O1162   1.279   .     A
C906   F1004   1.361   .     S
C907   O1163   1.278   .     A
C907   O1135   1.278   .     A
C908   O1160   1.279   .     A
C908   O1136   1.279   .     A
C909   O1161   1.279   .     A
C909   O1137   1.279   .     A
C910   O1138   1.279   .     A
C910   O1167   1.279   .     A
C911   O1139   1.279   .     A
C911   O1168   1.279   .     A
C912   C958    1.455   .     S
C912   O1164   1.279   .     A
C912   O1140   1.279   .     A
C913   O1141   1.279   .     A
C913   C959    1.455   .     S
C913   O1166   1.279   .     A
C914   O1142   1.279   .     A
C914   O1153   1.279   .     A
C915   O1155   1.279   .     A
C915   O1144   1.279   .     A
C916   O1151   1.279   .     A
C916   O1145   1.279   .     A
C917   F1005   1.360   .     S
C918   O1152   1.278   .     A
C918   O1146   1.278   .     A
C919   O1158   1.279   .     A
C919   O1147   1.279   .     A
C920   O1159   1.278   .     A
C920   O1148   1.278   .     A
C921   O1156   1.279   .     A
C921   O1149   1.279   .     A
C922   O1157   1.279   .     A
C922   O1150   1.279   .     A
C923   F969    1.358   .     S
C923   C940    1.391   .     A
C924   F970    1.359   .     S
C924   C938    1.385   .     A
C925   C937    1.388   .     A
C925   F971    1.358   .     S
C926   C936    1.390   .     A
C926   F973    1.357   .     S
C927   C935    1.386   .     A
C927   F974    1.359   .     S
C928   F1006   1.361   .     S
C929   F975    1.359   .     S
C929   C934    1.385   .     A
C930   C933    1.388   .     A
C930   F976    1.359   .     S
C931   C932    1.385   .     A
C931   F977    1.359   .     S
C932   F978    1.359   .     S
C933   F979    1.357   .     S
C934   F980    1.359   .     S
C935   F981    1.359   .     S
C936   F982    1.358   .     S
C937   C960    1.402   .     A
C937   F984    1.357   .     S
C938   C959    1.405   .     A
C938   F985    1.359   .     S
C939   F1007   1.360   .     S
C939   C1287   1.393   1_455 S
C940   C958    1.402   .     A
C940   F986    1.357   .     S
C941   C957    1.385   .     A
C941   F987    1.359   .     S
C941   C959    1.405   .     A
C942   C958    1.402   .     A
C942   C956    1.391   .     A
C942   F988    1.357   .     S
C943   F989    1.358   .     S
C943   C955    1.390   .     A
C944   C960    1.403   .     A
C944   C954    1.388   .     A
C944   F990    1.357   .     S
C945   C953    1.385   .     A
C945   F991    1.359   .     S
C946   F992    1.359   .     S
C946   C952    1.386   .     A
C947   C951    1.385   .     A
C947   F993    1.359   .     S
C948   F995    1.357   .     S
C948   C949    1.388   .     A
C949   F996    1.358   .     S
C950   F1008   1.361   .     S
C951   F997    1.359   .     S
C952   F998    1.359   .     S
C953   F999    1.359   .     S
C954   F1000   1.359   .     S
C955   F1001   1.357   .     S
C956   F1002   1.358   .     S
C957   F1003   1.359   .     S
H1040  C1225   1.112   1_455 S
H1055  C27     1.112   1_565 S
H1063  C1235   1.112   .     S
H1066  C27     1.111   1_565 S
O1121  Zn1176  1.945   .     S
O1121  Zn1173  1.944   .     S
O1121  Zn1184  1.945   .     S
O1122  Zn1175  1.942   .     S
O1122  C106    1.278   1_565 A
O1123  Zn1178  1.942   .     S
O1123  C1295   1.285   .     S
O1124  Zn1177  1.942   .     S
O1124  C1296   1.285   1_455 S
O1125  Zn1187  1.942   .     S
O1126  Zn1186  1.942   .     S
O1126  C1298   1.282   1_455 S
O1127  Zn1181  1.942   .     S
O1128  Zn1173  1.942   .     S
O1129  Zn1183  1.942   .     S
O1130  Zn1182  1.942   .     S
O1130  C1298   1.283   1_455 S
O1131  Zn1185  1.942   .     S
O1132  Zn1179  1.945   .     S
O1132  Zn1181  1.944   .     S
O1132  Zn1185  1.945   .     S
O1133  Zn1184  1.942   .     S
O1134  Zn1176  1.932   .     S
O1135  Zn1175  1.932   .     S
O1136  Zn1178  1.936   .     S
O1137  Zn1177  1.936   .     S
O1138  Zn1180  1.932   .     S
O1139  Zn1179  1.932   .     S
O1140  Zn1174  1.936   .     S
O1141  Zn1188  1.936   .     S
O1142  Zn1175  1.936   .     S
O1143  Zn1574  1.945   1_455 S
O1143  Zn1174  1.944   .     S
O1143  Zn1182  1.945   .     S
O1143  Zn1186  1.945   .     S
O1144  Zn1176  1.936   .     S
O1145  Zn1188  1.932   .     S
O1146  Zn1174  1.932   .     S
O1147  Zn1179  1.936   .     S
O1148  Zn1180  1.936   .     S
O1149  Zn1177  1.932   .     S
O1150  Zn1178  1.932   .     S
O1151  Zn1579  1.932   .     S
O1152  Zn1182  1.932   .     S
O1153  Zn393   1.936   1_565 S
O1154  Zn1177  1.945   .     S
O1154  Zn1187  1.945   .     S
O1154  Zn1183  1.945   .     S
O1154  Zn1584  1.944   1_455 S
O1155  Zn1184  1.936   .     S
O1156  Zn1187  1.932   .     S
O1157  Zn1582  1.932   .     S
O1158  Zn1181  1.936   .     S
O1159  Zn381   1.936   1_565 S
O1160  Zn1578  1.936   .     S
O1161  Zn1183  1.936   .     S
O1162  Zn1173  1.932   .     S
O1163  Zn389   1.932   1_565 S
O1164  Zn1186  1.936   .     S
O1165  Zn1180  1.942   .     S
O1165  C105    1.286   1_565 S
O1166  Zn1583  1.936   .     S
O1167  Zn392   1.932   1_565 S
O1168  Zn1185  1.932   .     S
O1169  Zn1179  1.942   .     S
O1170  Zn1174  1.942   .     S
O1171  Zn1188  1.942   .     S
O1172  Zn1176  1.942   .     S
Zn1175 O340    1.945   1_565 S
Zn1178 O1539   1.945   .     S
Zn1180 O329    1.945   1_565 S
Zn1182 O1556   1.936   1_455 S
Zn1183 O1547   1.932   1_455 S
Zn1186 O1553   1.932   1_455 S
Zn1187 O1562   1.936   1_455 S
Zn1188 O1550   1.944   .     S
C1189  C1266   1.401   .     A
C1189  F1357   1.361   .     S
C1190  F1358   1.361   .     S
C1190  C1276   1.399   .     A
C1190  C1289   1.391   .     A
C1191  C1332   1.402   .     A
C1191  C1303   1.451   .     S
C1191  C1339   1.402   .     A
C1192  C1342   1.404   .     A
C1192  C1304   1.455   .     S
C1192  C1331   1.404   .     A
C1193  C1330   1.405   .     A
C1193  C1305   1.455   .     S
C1193  C1341   1.405   .     A
C1194  C1329   1.403   .     A
C1194  C1344   1.402   .     A
C1194  C1306   1.452   .     S
C1195  C1307   1.452   .     S
C1195  C1328   1.404   .     A
C1195  C1343   1.404   .     A
C1196  C1317   1.451   .     S
C1196  C1347   1.404   .     A
C1196  C1327   1.404   .     A
C1197  C1318   1.451   .     S
C1197  C1345   1.403   .     A
C1197  C1326   1.403   .     A
C1198  C1310   1.454   .     S
C1198  C1349   1.405   .     A
C1198  C1325   1.405   .     A
C1199  C1348   1.404   .     A
C1199  C1323   1.404   .     A
C1199  C1311   1.455   .     S
C1200  C1351   1.402   .     A
C1200  C1322   1.402   .     A
C1200  C1312   1.452   .     S
C1201  F1359   1.360   .     S
C1201  C1277   1.399   .     A
C1201  C498    1.396   1_565 S
C1202  C1314   1.451   .     S
C1202  C1321   1.403   .     A
C1202  C1350   1.403   .     A
C1203  C1320   1.404   .     A
C1203  C1315   1.454   .     S
C1203  C1353   1.405   .     A
C1204  C1352   1.402   .     A
C1204  C1319   1.402   .     A
C1204  C1316   1.454   .     S
C1205  C1271   1.433   .     A
C1205  C1300   1.487   .     S
C1205  C474    1.433   1_565 S
C1206  C1299   1.460   .     S
C1206  C1272   1.419   .     A
C1206  C475    1.419   1_565 S
C1207  C1268   1.426   .     A
C1207  C1298   1.475   .     S
C1207  C877    1.426   1_655 S
C1208  C1274   1.426   .     A
C1208  C1297   1.474   .     S
C1209  C1275   1.428   .     A
C1209  C1296   1.474   .     S
C1209  C883    1.425   1_655 S
C1210  C1295   1.474   .     S
C1210  C1276   1.428   .     A
C1211  C1282   1.419   .     A
C1211  C1294   1.460   .     S
C1212  C1278   1.401   .     A
C1212  C1292   1.390   .     A
C1212  F1360   1.361   .     S
C1213  C1293   1.487   .     S
C1213  C1278   1.433   .     A
C1214  C1266   1.520   .     S
C1214  H1484   1.112   .     S
C1214  H1473   1.108   .     S
C1214  C1215   1.537   .     S
C1215  C1216   1.524   .     S
C1216  H1405   1.110   .     S
C1216  H1440   1.110   .     S
C1216  H1429   1.111   .     S
C1217  H1423   1.112   .     S
C1217  C1218   1.534   .     S
C1217  C1267   1.519   .     S
C1217  H1422   1.110   .     S
C1218  H1421   1.111   .     S
C1218  H1417   1.112   .     S
C1218  C1219   1.527   .     S
C1219  H1406   1.110   .     S
C1219  H1495   1.111   .     S
C1219  H1506   1.111   .     S
C1220  C1268   1.520   .     S
C1220  H1430   1.110   .     S
C1220  C1221   1.534   .     S
C1220  H1431   1.112   .     S
C1221  H1428   1.111   .     S
C1221  H1427   1.111   .     S
C1221  C1222   1.526   .     S
C1222  H1426   1.110   .     S
C1222  H1424   1.110   .     S
C1222  H1425   1.111   .     S
C1223  F1361   1.360   .     S
C1223  C1279   1.400   .     A
C1224  H1438   1.112   .     S
C1224  C1225   1.537   .     S
C1224  H1437   1.108   .     S
C1224  C1270   1.519   .     S
C1225  C1226   1.524   .     S
C1225  H1435   1.112   .     S
C1225  H1040   1.112   1_655 S
C1226  H1433   1.111   .     S
C1226  H1432   1.109   .     S
C1226  H1434   1.110   .     S
C1227  C1228   1.537   .     S
C1227  H1446   1.112   .     S
C1227  C1271   1.520   .     S
C1227  H1445   1.108   .     S
C1228  C1229   1.525   .     S
C1228  H651    1.112   1_565 S
C1228  H652    1.111   1_565 S
C1229  H1439   1.110   .     S
C1229  H1442   1.110   .     S
C1229  H1441   1.111   .     S
C1230  H1454   1.112   .     S
C1230  C1272   1.519   .     S
C1230  H1453   1.110   .     S
C1230  C1231   1.534   .     S
C1231  H1452   1.111   .     S
C1231  H1450   1.112   .     S
C1231  C1232   1.527   .     S
C1232  H1449   1.110   .     S
C1232  H1448   1.111   .     S
C1232  H1447   1.111   .     S
C1233  C1235   1.537   .     S
C1233  H1461   1.112   .     S
C1233  H1460   1.108   .     S
C1233  C1273   1.519   .     S
C1234  F1362   1.360   .     S
C1234  C1281   1.400   .     A
C1234  C893    1.393   1_655 S
C1235  H1458   1.112   .     S
C1235  C1236   1.524   .     S
C1236  H1457   1.110   .     S
C1236  H1455   1.109   .     S
C1236  H1456   1.111   .     S
C1237  H1468   1.110   .     S
C1237  C1274   1.520   .     S
C1237  H1469   1.112   .     S
C1237  C1238   1.534   .     S
C1238  C1239   1.526   .     S
C1238  H1466   1.111   .     S
C1238  H1467   1.111   .     S
C1239  H1464   1.111   .     S
C1239  H1465   1.110   .     S
C1239  H1463   1.110   .     S
C1240  H1477   1.112   .     S
C1240  C1241   1.537   .     S
C1240  H1476   1.108   .     S
C1240  C1275   1.520   .     S
C1241  C1242   1.524   .     S
C1241  H1475   1.112   .     S
C1241  H1474   1.112   .     S
C1242  H1470   1.111   .     S
C1242  H1471   1.110   .     S
C1242  H1472   1.109   .     S
C1243  C1276   1.520   .     S
C1243  H1483   1.108   .     S
C1243  C1244   1.537   .     S
C1243  H1485   1.112   .     S
C1244  H1482   1.112   .     S
C1244  C1246   1.524   .     S
C1244  H1481   1.112   .     S
C1245  C1290   1.396   .     A
C1245  F1363   1.360   .     S
C1245  C1282   1.399   .     A
C1246  H1479   1.111   .     S
C1246  H1480   1.110   .     S
C1246  H1478   1.109   .     S
C1247  C1277   1.519   .     S
C1247  H1491   1.110   .     S
C1247  C1248   1.534   .     S
C1247  H1492   1.112   .     S
C1248  H1490   1.111   .     S
C1248  C1249   1.526   .     S
C1248  H1489   1.112   .     S
C1249  H1488   1.110   .     S
C1249  H1487   1.111   .     S
C1249  H1486   1.111   .     S
C1250  H1500   1.112   .     S
C1250  C1251   1.537   .     S
C1250  H1499   1.108   .     S
C1250  C1278   1.520   .     S
C1251  H1497   1.112   .     S
C1251  C1252   1.525   .     S
C1251  H1498   1.111   .     S
C1252  H1494   1.111   .     S
C1252  H1496   1.110   .     S
C1252  H1493   1.110   .     S
C1253  C1279   1.520   .     S
C1253  H1507   1.109   .     S
C1253  H1508   1.112   .     S
C1253  C1254   1.534   .     S
C1254  C1255   1.526   .     S
C1254  H1504   1.112   .     S
C1254  H1505   1.111   .     S
C1255  H1502   1.111   .     S
C1255  H1503   1.110   .     S
C1255  H1501   1.110   .     S
C1256  F1364   1.361   .     S
C1256  C1283   1.401   .     A
C1256  C500    1.390   1_565 S
C1257  C1281   1.520   .     S
C1257  H1515   1.112   .     S
C1257  C1258   1.534   .     S
C1257  H1514   1.109   .     S
C1258  H1513   1.111   .     S
C1258  C1259   1.526   .     S
C1258  H1512   1.112   .     S
C1259  H1511   1.110   .     S
C1259  H1509   1.110   .     S
C1259  H1510   1.111   .     S
C1260  H1412   1.112   .     S
C1260  C1282   1.519   .     S
C1260  C1261   1.534   .     S
C1260  H1411   1.110   .     S
C1261  H1409   1.112   .     S
C1261  C1262   1.527   .     S
C1261  H1410   1.111   .     S
C1262  H1408   1.110   .     S
C1262  H1516   1.111   .     S
C1262  H1407   1.111   .     S
C1263  C1283   1.520   .     S
C1263  C1264   1.537   .     S
C1263  H1420   1.112   .     S
C1263  H1419   1.108   .     S
C1264  H1416   1.112   .     S
C1264  H1418   1.111   .     S
C1264  C1265   1.524   .     S
C1265  H1414   1.111   .     S
C1265  H1413   1.110   .     S
C1265  H1415   1.110   .     S
C1267  C1269   1.399   .     A
C1268  C1280   1.401   .     A
C1269  F1368   1.360   .     S
C1270  C1291   1.400   .     A
C1270  C812    1.426   1_655 S
C1271  C1302   1.401   .     A
C1272  C1313   1.399   .     A
C1273  C1324   1.400   .     A
C1274  C1335   1.401   .     A
C1275  C1346   1.399   .     A
C1277  C419    1.419   1_565 S
C1280  F1379   1.360   .     S
C1280  C890    1.393   1_655 S
C1281  C814    1.425   1_655 S
C1283  C421    1.433   1_565 S
C1284  C1302   1.390   .     A
C1284  C397    1.390   1_565 S
C1284  C1285   1.458   1_554 S
C1285  C1313   1.396   .     A
C1285  C1284   1.458   1_556 S
C1285  C477    1.396   1_565 S
C1286  C1324   1.393   .     A
C1286  C891    1.459   1_554 S
C1287  C1291   1.393   .     A
C1287  C890    1.459   1_656 S
C1287  C939    1.393   1_655 S
C1288  C1346   1.391   .     A
C1288  C827    1.394   1_655 S
C1288  C893    1.457   1_655 S
C1290  C1292   1.458   .     S
C1291  F1390   1.361   .     S
C1293  O1568   1.286   .     A
C1294  O1565   1.278   .     S
C1295  O1566   1.279   .     A
C1296  O1567   1.279   .     A
C1296  O1124   1.285   1_655 S
C1297  O1521   1.282   .     A
C1297  O1525   1.282   .     S
C1298  O1126   1.282   1_655 S
C1298  O1130   1.283   1_655 S
C1299  O731    1.278   1_565 S
C1299  O735    1.278   1_565 S
C1300  O732    1.286   1_565 S
C1300  O737    1.286   1_565 S
C1301  O1530   1.279   .     A
C1301  C1356   1.452   .     S
C1301  O1558   1.279   .     A
C1302  F1400   1.361   .     S
C1303  O1559   1.278   .     A
C1303  O1531   1.278   .     A
C1304  O1556   1.279   .     A
C1304  O1532   1.279   .     A
C1305  O1557   1.279   .     A
C1305  O1533   1.279   .     A
C1306  O1534   1.279   .     A
C1306  O1563   1.279   .     A
C1307  O1535   1.279   .     A
C1307  O1564   1.279   .     A
C1308  C1354   1.455   .     S
C1308  O1560   1.279   .     A
C1308  O1536   1.279   .     A
C1309  O1537   1.279   .     A
C1309  C1355   1.455   .     S
C1309  O1562   1.279   .     A
C1310  O1538   1.279   .     A
C1310  O1549   1.279   .     A
C1311  O1551   1.279   .     A
C1311  O1540   1.279   .     A
C1312  O1547   1.279   .     A
C1312  O1541   1.279   .     A
C1313  F1401   1.360   .     S
C1314  O1548   1.278   .     A
C1314  O1542   1.278   .     A
C1315  O1554   1.279   .     A
C1315  O1543   1.279   .     A
C1316  O1555   1.278   .     A
C1316  O1544   1.278   .     A
C1317  O1552   1.279   .     A
C1317  O1545   1.279   .     A
C1318  O1553   1.279   .     A
C1318  O1546   1.279   .     A
C1319  F1365   1.358   .     S
C1319  C1336   1.391   .     A
C1320  F1366   1.359   .     S
C1320  C1334   1.385   .     A
C1321  C1333   1.388   .     A
C1321  F1367   1.358   .     S
C1322  C1332   1.390   .     A
C1322  F1369   1.357   .     S
C1323  C1331   1.386   .     A
C1323  F1370   1.359   .     S
C1324  F1402   1.361   .     S
C1325  F1371   1.359   .     S
C1325  C1330   1.385   .     A
C1326  C1329   1.388   .     A
C1326  F1372   1.359   .     S
C1327  C1328   1.385   .     A
C1327  F1373   1.359   .     S
C1328  F1374   1.359   .     S
C1329  F1375   1.357   .     S
C1330  F1376   1.359   .     S
C1331  F1377   1.359   .     S
C1332  F1378   1.358   .     S
C1333  C1356   1.402   .     A
C1333  F1380   1.357   .     S
C1334  C1355   1.405   .     A
C1334  F1381   1.359   .     S
C1335  F1403   1.360   .     S
C1336  C1354   1.402   .     A
C1336  F1382   1.357   .     S
C1337  C1353   1.385   .     A
C1337  F1383   1.359   .     S
C1337  C1355   1.405   .     A
C1338  C1354   1.402   .     A
C1338  C1352   1.391   .     A
C1338  F1384   1.357   .     S
C1339  F1385   1.358   .     S
C1339  C1351   1.390   .     A
C1340  C1356   1.403   .     A
C1340  C1350   1.388   .     A
C1340  F1386   1.357   .     S
C1341  C1349   1.385   .     A
C1341  F1387   1.359   .     S
C1342  F1388   1.359   .     S
C1342  C1348   1.386   .     A
C1343  C1347   1.385   .     A
C1343  F1389   1.359   .     S
C1344  F1391   1.357   .     S
C1344  C1345   1.388   .     A
C1345  F1392   1.358   .     S
C1346  F1404   1.361   .     S
C1347  F1393   1.359   .     S
C1348  F1394   1.359   .     S
C1349  F1395   1.359   .     S
C1350  F1396   1.359   .     S
C1351  F1397   1.357   .     S
C1352  F1398   1.358   .     S
C1353  F1399   1.359   .     S
H1451  C423    1.112   1_565 S
H1459  C839    1.112   1_655 S
H1462  C423    1.111   1_565 S
O1517  Zn1572  1.945   .     S
O1517  Zn1569  1.944   .     S
O1517  Zn1580  1.945   .     S
O1518  Zn1571  1.942   .     S
O1518  C502    1.278   1_565 A
O1519  Zn1574  1.942   .     S
O1519  C899    1.285   1_655 S
O1520  Zn1573  1.942   .     S
O1521  Zn1583  1.942   .     S
O1522  Zn1582  1.942   .     S
O1523  Zn1577  1.942   .     S
O1524  Zn1569  1.942   .     S
O1525  Zn1579  1.942   .     S
O1526  Zn1578  1.942   .     S
O1527  Zn1581  1.942   .     S
O1528  Zn1575  1.945   .     S
O1528  Zn1577  1.944   .     S
O1528  Zn1581  1.945   .     S
O1529  Zn1580  1.942   .     S
O1530  Zn1572  1.932   .     S
O1531  Zn1571  1.932   .     S
O1532  Zn1574  1.936   .     S
O1533  Zn1573  1.936   .     S
O1534  Zn1576  1.932   .     S
O1535  Zn1575  1.932   .     S
O1536  Zn1570  1.936   .     S
O1537  Zn1584  1.936   .     S
O1538  Zn1571  1.936   .     S
O1539  Zn1570  1.944   .     S
O1539  Zn1578  1.945   .     S
O1539  Zn1582  1.945   .     S
O1540  Zn1572  1.936   .     S
O1541  Zn1584  1.932   .     S
O1542  Zn1570  1.932   .     S
O1543  Zn1575  1.936   .     S
O1544  Zn1576  1.936   .     S
O1545  Zn1573  1.932   .     S
O1546  Zn1574  1.932   .     S
O1547  Zn1183  1.932   1_655 S
O1548  Zn1578  1.932   .     S
O1549  Zn789   1.936   1_565 S
O1550  Zn1573  1.945   .     S
O1550  Zn1583  1.945   .     S
O1550  Zn1579  1.945   .     S
O1551  Zn1580  1.936   .     S
O1552  Zn1583  1.932   .     S
O1553  Zn1186  1.932   1_655 S
O1554  Zn1577  1.936   .     S
O1555  Zn777   1.936   1_565 S
O1556  Zn1182  1.936   1_655 S
O1557  Zn1579  1.936   .     S
O1558  Zn1569  1.932   .     S
O1559  Zn785   1.932   1_565 S
O1560  Zn1582  1.936   .     S
O1561  Zn1576  1.942   .     S
O1561  C501    1.286   1_565 S
O1562  Zn1187  1.936   1_655 S
O1563  Zn788   1.932   1_565 S
O1564  Zn1581  1.932   .     S
O1565  Zn1575  1.942   .     S
O1566  Zn1570  1.942   .     S
O1567  Zn1584  1.942   .     S
O1568  Zn1572  1.942   .     S
Zn1571 O736    1.945   1_565 S
Zn1574 O1143   1.945   1_655 S
Zn1576 O725    1.945   1_565 S
Zn1584 O1154   1.944   1_655 S
