data_str_m1_o1_o17_pcu_sym.31
_audit_creation_date              2020-01-03
_audit_creation_method            'Materials Studio'
_symmetry_space_group_name_H-M    'P1'
_symmetry_Int_Tables_number       1
_symmetry_cell_setting            triclinic
loop_
_symmetry_equiv_pos_as_xyz
  x,y,z
_cell_length_a                    36.4912
_cell_length_b                    36.4916
_cell_length_c                    34.4736
_cell_angle_alpha                 89.9998
_cell_angle_beta                  89.9998
_cell_angle_gamma                 90.0153
loop_
_atom_site_label
_atom_site_type_symbol
_atom_site_fract_x
_atom_site_fract_y
_atom_site_fract_z
_atom_site_U_iso_or_equiv
_atom_site_adp_type
_atom_site_occupancy
C1     C     0.01511   0.27989   0.41809   0.00000  Uiso   1.00
C2     C     0.22987   0.47315   0.08162   0.00000  Uiso   1.00
C3     C     0.22168   0.48120   0.54072   0.00000  Uiso   1.00
C4     C     0.01920   0.27772   0.45865   0.00000  Uiso   1.00
C5     C     0.48076   0.22196   0.54072   0.00000  Uiso   1.00
C6     C     0.22194   0.48129   0.45866   0.00000  Uiso   1.00
C7     C     0.27831   0.01881   0.54072   0.00000  Uiso   1.00
C8     C     0.23085   0.47224   0.95865   0.00000  Uiso   1.00
C9     C     0.26919   0.02807   0.04072   0.00000  Uiso   1.00
C10    C     0.02794   0.26889   0.95865   0.00000  Uiso   1.00
C11    C     0.47179   0.23103   0.04072   0.00000  Uiso   1.00
C12    C     0.26914   0.02776   0.95865   0.00000  Uiso   1.00
C13    C     0.46995   0.23521   0.91809   0.00000  Uiso   1.00
C14    C     0.23081   0.47193   0.04072   0.00000  Uiso   1.00
C15    C     0.47206   0.23111   0.95865   0.00000  Uiso   1.00
C16    C     0.02821   0.26896   0.04072   0.00000  Uiso   1.00
C17    C     0.09810   0.34805   0.25002   0.00000  Uiso   1.00
C18    C     0.40195   0.15190   0.75002   0.00000  Uiso   1.00
C19    C     0.15192   0.09808   0.25000   0.00000  Uiso   1.00
C20    C     0.34809   0.40192   0.75000   0.00000  Uiso   1.00
C21    C     0.40190   0.15195   0.25002   0.00000  Uiso   1.00
C22    C     0.09805   0.34810   0.75002   0.00000  Uiso   1.00
C23    C     0.34808   0.40191   0.25000   0.00000  Uiso   1.00
C24    C     0.02696   0.26998   0.08162   0.00000  Uiso   1.00
C25    C     0.15192   0.09808   0.75000   0.00000  Uiso   1.00
C26    C     0.09808   0.15191   0.75000   0.00000  Uiso   1.00
C27    C     0.40192   0.34808   0.25000   0.00000  Uiso   1.00
C28    C     0.15190   0.40195   0.75002   0.00000  Uiso   1.00
C29    C     0.34805   0.09810   0.25002   0.00000  Uiso   1.00
C30    C     0.40192   0.34808   0.75000   0.00000  Uiso   1.00
C31    C     0.09809   0.15192   0.25000   0.00000  Uiso   1.00
C32    C     0.34810   0.09805   0.75002   0.00000  Uiso   1.00
C33    C     0.15195   0.40190   0.25002   0.00000  Uiso   1.00
C34    C    -0.00000   0.25000   0.47925   0.00000  Uiso   1.00
C35    C     0.23494   0.47008   0.91809   0.00000  Uiso   1.00
C36    C    -0.00000   0.25000   0.52027   0.00000  Uiso   1.00
C37    C     0.25000   0.00000   0.47925   0.00000  Uiso   1.00
C38    C     0.25000   0.00000   0.52027   0.00000  Uiso   1.00
C39    C     0.25000   0.00000   0.97925   0.00000  Uiso   1.00
C40    C     0.25000   0.00000   0.02027   0.00000  Uiso   1.00
C41    C     0.00000   0.25000   0.97925   0.00000  Uiso   1.00
C42    C     0.00000   0.25000   0.02027   0.00000  Uiso   1.00
C43    C     0.27013   0.02685   0.08162   0.00000  Uiso   1.00
C44    C     0.03006   0.26479   0.91809   0.00000  Uiso   1.00
C45    C     0.47304   0.23002   0.08162   0.00000  Uiso   1.00
C46    C     0.00000   0.25000   0.39794   0.00000  Uiso   1.00
C47    C     0.00000   0.25000   0.60168   0.00000  Uiso   1.00
C48    C     0.25000  -0.00000   0.39794   0.00000  Uiso   1.00
C49    C     0.47984   0.22317   0.58162   0.00000  Uiso   1.00
C50    C     0.25000   0.00000   0.60169   0.00000  Uiso   1.00
C51    C     0.25000   0.00000   0.89794   0.00000  Uiso   1.00
C52    C     0.25000  -0.00000   0.10168   0.00000  Uiso   1.00
C53    C     0.00000   0.25000   0.89794   0.00000  Uiso   1.00
C54    C     0.00000   0.25000   0.10168   0.00000  Uiso   1.00
C55    C     0.45960   0.19630   0.47913   0.00000  Uiso   1.00
C56    C     0.03748   0.30619   0.51959   0.00000  Uiso   1.00
C57    C     0.30442   0.03944   0.47915   0.00000  Uiso   1.00
C58    C     0.19318   0.46350   0.51962   0.00000  Uiso   1.00
C59    C     0.04040   0.30370   0.47913   0.00000  Uiso   1.00
C60    C     0.21985   0.48540   0.41809   0.00000  Uiso   1.00
C61    C     0.46252   0.19381   0.51959   0.00000  Uiso   1.00
C62    C     0.19557   0.46057   0.47915   0.00000  Uiso   1.00
C63    C     0.30681   0.03651   0.51962   0.00000  Uiso   1.00
C64    C     0.20971   0.44622   0.97913   0.00000  Uiso   1.00
C65    C     0.28736   0.05627   0.01960   0.00000  Uiso   1.00
C66    C     0.05417   0.28978   0.97914   0.00000  Uiso   1.00
C67    C     0.44341   0.21314   0.01961   0.00000  Uiso   1.00
C68    C     0.29029   0.05379   0.97913   0.00000  Uiso   1.00
C69    C     0.21263   0.44374   0.01960   0.00000  Uiso   1.00
C70    C     0.44584   0.21022   0.97914   0.00000  Uiso   1.00
C71    C     0.27704   0.01987   0.58162   0.00000  Uiso   1.00
C72    C     0.05659   0.28685   0.01961   0.00000  Uiso   1.00
C73    C     0.25000   0.00000   0.35574   0.00000  Uiso   1.00
C74    C     0.25000  -0.00000   0.64413   0.00000  Uiso   1.00
C75    C     0.00000   0.25000   0.35574   0.00000  Uiso   1.00
C76    C     0.00000   0.25000   0.64413   0.00000  Uiso   1.00
C77    C     0.00000   0.25000   0.85574   0.00000  Uiso   1.00
C78    C     0.00000   0.25000   0.14413   0.00000  Uiso   1.00
C79    C     0.25000   0.00000   0.85574   0.00000  Uiso   1.00
C80    C     0.25000  -0.00000   0.14413   0.00000  Uiso   1.00
C81    C     0.17998   0.07002   0.25000   0.00000  Uiso   1.00
C82    C     0.48489   0.22011   0.41810   0.00000  Uiso   1.00
C83    C     0.32002   0.42998   0.75000   0.00000  Uiso   1.00
C84    C     0.42998   0.17999   0.25000   0.00000  Uiso   1.00
C85    C     0.07001   0.32002   0.75000   0.00000  Uiso   1.00
C86    C     0.32002   0.42998   0.25000   0.00000  Uiso   1.00
C87    C     0.17998   0.07002   0.75000   0.00000  Uiso   1.00
C88    C     0.07002   0.32001   0.25000   0.00000  Uiso   1.00
C89    C     0.43000   0.17998   0.75000   0.00000  Uiso   1.00
C90    C     0.17998   0.42999   0.75000   0.00000  Uiso   1.00
C91    C     0.32000   0.07002   0.25000   0.00000  Uiso   1.00
C92    C     0.42998   0.32002   0.75000   0.00000  Uiso   1.00
C93    C     0.02016   0.27683   0.58162   0.00000  Uiso   1.00
C94    C     0.07002   0.17998   0.25000   0.00000  Uiso   1.00
C95    C     0.32002   0.07001   0.75000   0.00000  Uiso   1.00
C96    C     0.18000   0.42998   0.25000   0.00000  Uiso   1.00
C97    C     0.07002   0.17998   0.75000   0.00000  Uiso   1.00
C98    C     0.42998   0.32002   0.25000   0.00000  Uiso   1.00
C99    C     0.15304   0.37411   0.22179   0.00000  Uiso   1.00
C100   C     0.34710   0.12575   0.77835   0.00000  Uiso   1.00
C101   C     0.12006   0.14720   0.21683   0.00000  Uiso   1.00
C102   C     0.37995   0.35281   0.78317   0.00000  Uiso   1.00
C103   C     0.34696   0.12589   0.22179   0.00000  Uiso   1.00
C104   C     0.28015   0.01460   0.41809   0.00000  Uiso   1.00
C105   C     0.15290   0.37425   0.77835   0.00000  Uiso   1.00
C106   C     0.37994   0.35280   0.21683   0.00000  Uiso   1.00
C107   C     0.12005   0.14719   0.78317   0.00000  Uiso   1.00
C108   C     0.14719   0.12005   0.78317   0.00000  Uiso   1.00
C109   C     0.35280   0.37994   0.21683   0.00000  Uiso   1.00
C110   C     0.12575   0.34710   0.77835   0.00000  Uiso   1.00
C111   C     0.37411   0.15304   0.22179   0.00000  Uiso   1.00
C112   C     0.35281   0.37995   0.78317   0.00000  Uiso   1.00
C113   C     0.14720   0.12006   0.21683   0.00000  Uiso   1.00
C114   C     0.37425   0.15290   0.77835   0.00000  Uiso   1.00
C115   C     0.22296   0.48013   0.58162   0.00000  Uiso   1.00
C116   C     0.12589   0.34695   0.22179   0.00000  Uiso   1.00
C117   C     0.40305   0.12410   0.72180   0.00000  Uiso   1.00
C118   C     0.09711   0.37574   0.27836   0.00000  Uiso   1.00
C119   C     0.37006   0.39720   0.71682   0.00000  Uiso   1.00
C120   C     0.12994   0.10280   0.28317   0.00000  Uiso   1.00
C121   C     0.09695   0.37590   0.72180   0.00000  Uiso   1.00
C122   C     0.40289   0.12426   0.27836   0.00000  Uiso   1.00
C123   C     0.12994   0.10280   0.71682   0.00000  Uiso   1.00
C124   C     0.37006   0.39720   0.28317   0.00000  Uiso   1.00
C125   C     0.39720   0.37005   0.28317   0.00000  Uiso   1.00
C126   C     0.26506   0.02992   0.91809   0.00000  Uiso   1.00
C127   C     0.10280   0.12994   0.71682   0.00000  Uiso   1.00
C128   C     0.37573   0.09711   0.27837   0.00000  Uiso   1.00
C129   C     0.12410   0.40306   0.72180   0.00000  Uiso   1.00
C130   C     0.10280   0.12994   0.28317   0.00000  Uiso   1.00
C131   C     0.39720   0.37006   0.71682   0.00000  Uiso   1.00
C132   C     0.12427   0.40289   0.27836   0.00000  Uiso   1.00
C133   C     0.37590   0.09695   0.72180   0.00000  Uiso   1.00
C134   C     0.48080   0.22228   0.45865   0.00000  Uiso   1.00
C135   C     0.01924   0.27804   0.54072   0.00000  Uiso   1.00
C136   C     0.27806   0.01872   0.45866   0.00000  Uiso   1.00
H137   H     0.01110   0.31367   0.37394   0.00000  Uiso   1.00
H138   H     0.22083   0.44093   0.12530   0.00000  Uiso   1.00
H139   H     0.43625   0.23948   0.87388   0.00000  Uiso   1.00
H140   H     0.05911   0.27903   0.12537   0.00000  Uiso   1.00
H141   H     0.23900   0.43632   0.87393   0.00000  Uiso   1.00
H142   H     0.27917   0.05907   0.12531   0.00000  Uiso   1.00
H143   H     0.06375   0.26052   0.87388   0.00000  Uiso   1.00
H144   H     0.44089   0.22097   0.12537   0.00000  Uiso   1.00
H145   H     0.47082   0.19094   0.62529   0.00000  Uiso   1.00
H146   H     0.18620   0.48981   0.37384   0.00000  Uiso   1.00
H147   H     0.30915   0.02892   0.62541   0.00000  Uiso   1.00
H148   H     0.48890   0.18633   0.37394   0.00000  Uiso   1.00
H149   H     0.02919   0.30906   0.62529   0.00000  Uiso   1.00
H150   H     0.31380   0.01018   0.37385   0.00000  Uiso   1.00
H151   H     0.19085   0.47108   0.62542   0.00000  Uiso   1.00
H152   H     0.26100   0.06369   0.87392   0.00000  Uiso   1.00
I153   I     0.41643   0.16581   0.45097   0.00000  Uiso   1.00
I154   I     0.30537   0.10727   0.04518   0.00000  Uiso   1.00
I155   I     0.08526   0.33254   0.95101   0.00000  Uiso   1.00
I156   I     0.39224   0.19568   0.04525   0.00000  Uiso   1.00
I157   I     0.33338   0.08440   0.95098   0.00000  Uiso   1.00
I158   I     0.19461   0.39273   0.04518   0.00000  Uiso   1.00
I159   I     0.41475   0.16745   0.95101   0.00000  Uiso   1.00
I160   I     0.10777   0.30431   0.04525   0.00000  Uiso   1.00
I161   I     0.19644   0.37325   0.17998   0.00000  Uiso   1.00
I162   I     0.30398   0.12631   0.82049   0.00000  Uiso   1.00
I163   I     0.11297   0.18248   0.16760   0.00000  Uiso   1.00
I164   I     0.05564   0.35716   0.54517   0.00000  Uiso   1.00
I165   I     0.38705   0.31755   0.83240   0.00000  Uiso   1.00
I166   I     0.30356   0.12675   0.17998   0.00000  Uiso   1.00
I167   I     0.19602   0.37369   0.82049   0.00000  Uiso   1.00
I168   I     0.38703   0.31752   0.16760   0.00000  Uiso   1.00
I169   I     0.11295   0.18245   0.83240   0.00000  Uiso   1.00
I170   I     0.18245   0.11295   0.83240   0.00000  Uiso   1.00
I171   I     0.31752   0.38703   0.16760   0.00000  Uiso   1.00
I172   I     0.12629   0.30399   0.82050   0.00000  Uiso   1.00
I173   I     0.37324   0.19645   0.18000   0.00000  Uiso   1.00
I174   I     0.31755   0.38705   0.83240   0.00000  Uiso   1.00
I175   I     0.33583   0.08197   0.45103   0.00000  Uiso   1.00
I176   I     0.18248   0.11297   0.16760   0.00000  Uiso   1.00
I177   I     0.37371   0.19601   0.82051   0.00000  Uiso   1.00
I178   I     0.12676   0.30355   0.18000   0.00000  Uiso   1.00
I179   I     0.44646   0.12323   0.68000   0.00000  Uiso   1.00
I180   I     0.05400   0.37629   0.32052   0.00000  Uiso   1.00
I181   I     0.36296   0.43247   0.66760   0.00000  Uiso   1.00
I182   I     0.13704   0.06754   0.33240   0.00000  Uiso   1.00
I183   I     0.05354   0.37677   0.68000   0.00000  Uiso   1.00
I184   I     0.44599   0.12371   0.32052   0.00000  Uiso   1.00
I185   I     0.13704   0.06753   0.66760   0.00000  Uiso   1.00
I186   I     0.14189   0.44644   0.54529   0.00000  Uiso   1.00
I187   I     0.36296   0.43246   0.33240   0.00000  Uiso   1.00
I188   I     0.43246   0.36296   0.33240   0.00000  Uiso   1.00
I189   I     0.06754   0.13704   0.66760   0.00000  Uiso   1.00
I190   I     0.37626   0.05402   0.32054   0.00000  Uiso   1.00
I191   I     0.12322   0.44647   0.68002   0.00000  Uiso   1.00
I192   I     0.06754   0.13704   0.33240   0.00000  Uiso   1.00
I193   I     0.43247   0.36296   0.66760   0.00000  Uiso   1.00
I194   I     0.12374   0.44598   0.32054   0.00000  Uiso   1.00
I195   I     0.37678   0.05353   0.68002   0.00000  Uiso   1.00
I196   I     0.08357   0.33419   0.45097   0.00000  Uiso   1.00
I197   I     0.44436   0.14285   0.54517   0.00000  Uiso   1.00
I198   I     0.16415   0.41804   0.45103   0.00000  Uiso   1.00
I199   I     0.35809   0.05360   0.54528   0.00000  Uiso   1.00
I200   I     0.16662   0.41561   0.95098   0.00000  Uiso   1.00
O201   O     0.25000  -0.00000   0.25000   0.00000  Uiso   1.00
O202   O     0.25000   0.46964   0.66245   0.00000  Uiso   1.00
O203   O     0.46964   0.25000   0.33755   0.00000  Uiso   1.00
O204   O     0.03037   0.25000   0.66245   0.00000  Uiso   1.00
O205   O     0.00000   0.21964   0.83755   0.00000  Uiso   1.00
O206   O     0.00000   0.28037   0.16245   0.00000  Uiso   1.00
O207   O     0.28037  -0.00000   0.83755   0.00000  Uiso   1.00
O208   O     0.21964  -0.00000   0.16245   0.00000  Uiso   1.00
O209   O     0.00000   0.28037   0.83755   0.00000  Uiso   1.00
O210   O     0.00000   0.21964   0.16245   0.00000  Uiso   1.00
O211   O     0.21964  -0.00000   0.83755   0.00000  Uiso   1.00
O212   O     0.25000  -0.00000   0.75000   0.00000  Uiso   1.00
O213   O     0.28037  -0.00000   0.16245   0.00000  Uiso   1.00
O214   O     0.20725   0.07307   0.27302   0.00000  Uiso   1.00
O215   O     0.29276   0.42692   0.72698   0.00000  Uiso   1.00
O216   O     0.42693   0.20724   0.27302   0.00000  Uiso   1.00
O217   O     0.07308   0.29276   0.72698   0.00000  Uiso   1.00
O218   O     0.29276   0.42692   0.27302   0.00000  Uiso   1.00
O219   O     0.20725   0.07307   0.72698   0.00000  Uiso   1.00
O220   O     0.07308   0.29276   0.27302   0.00000  Uiso   1.00
O221   O     0.42693   0.20724   0.72698   0.00000  Uiso   1.00
O222   O     0.20725   0.42693   0.72698   0.00000  Uiso   1.00
O223   O     0.00000   0.25000   0.25000   0.00000  Uiso   1.00
O224   O     0.29276   0.07307   0.27302   0.00000  Uiso   1.00
O225   O     0.42693   0.29275   0.72698   0.00000  Uiso   1.00
O226   O     0.07308   0.20725   0.27302   0.00000  Uiso   1.00
O227   O     0.29276   0.07307   0.72698   0.00000  Uiso   1.00
O228   O     0.20725   0.42693   0.27302   0.00000  Uiso   1.00
O229   O     0.07308   0.20725   0.72698   0.00000  Uiso   1.00
O230   O     0.42693   0.29275   0.27302   0.00000  Uiso   1.00
O231   O     0.45725   0.32307   0.77302   0.00000  Uiso   1.00
O232   O     0.04276   0.17693   0.22698   0.00000  Uiso   1.00
O233   O     0.17693   0.45725   0.77302   0.00000  Uiso   1.00
O234   O     0.00000   0.25000   0.75000   0.00000  Uiso   1.00
O235   O     0.32308   0.04275   0.22698   0.00000  Uiso   1.00
O236   O     0.04276   0.17693   0.77302   0.00000  Uiso   1.00
O237   O     0.45725   0.32307   0.22698   0.00000  Uiso   1.00
O238   O     0.32308   0.04275   0.77302   0.00000  Uiso   1.00
O239   O     0.17693   0.45725   0.22698   0.00000  Uiso   1.00
O240   O     0.45725   0.17692   0.22698   0.00000  Uiso   1.00
O241   O     0.04276   0.32308   0.77302   0.00000  Uiso   1.00
O242   O     0.17693   0.04275   0.22698   0.00000  Uiso   1.00
O243   O     0.32308   0.45724   0.77302   0.00000  Uiso   1.00
O244   O     0.04276   0.32308   0.22698   0.00000  Uiso   1.00
O245   O     0.25000   0.46964   0.33755   0.00000  Uiso   1.00
O246   O     0.45725   0.17692   0.77302   0.00000  Uiso   1.00
O247   O     0.32308   0.45724   0.22698   0.00000  Uiso   1.00
O248   O     0.17693   0.04275   0.77302   0.00000  Uiso   1.00
O249   O     0.02377   0.31225   0.39926   0.00000  Uiso   1.00
O250   O     0.45760   0.19936   0.60183   0.00000  Uiso   1.00
O251   O     0.18737   0.47726   0.39924   0.00000  Uiso   1.00
O252   O     0.30100   0.04201   0.60178   0.00000  Uiso   1.00
O253   O     0.47623   0.18776   0.39926   0.00000  Uiso   1.00
O254   O     0.04240   0.30064   0.60183   0.00000  Uiso   1.00
O255   O     0.31263   0.02274   0.39925   0.00000  Uiso   1.00
O256   O     0.25000   0.03036   0.66245   0.00000  Uiso   1.00
O257   O     0.19900   0.45799   0.60178   0.00000  Uiso   1.00
O258   O     0.27366   0.06229   0.89926   0.00000  Uiso   1.00
O259   O     0.20763   0.44933   0.10183   0.00000  Uiso   1.00
O260   O     0.43751   0.22688   0.89925   0.00000  Uiso   1.00
O261   O     0.05086   0.29217   0.10180   0.00000  Uiso   1.00
O262   O     0.22634   0.43771   0.89926   0.00000  Uiso   1.00
O263   O     0.29237   0.05067   0.10182   0.00000  Uiso   1.00
O264   O     0.06249   0.27312   0.89925   0.00000  Uiso   1.00
O265   O     0.44914   0.20784   0.10180   0.00000  Uiso   1.00
O266   O     0.03037   0.25000   0.33755   0.00000  Uiso   1.00
O267   O     0.46964   0.25000   0.66245   0.00000  Uiso   1.00
O268   O     0.25000   0.03036   0.33755   0.00000  Uiso   1.00
Zn269  Zn    0.20660  -0.00000   0.21735   0.00000  Uiso   1.00
Zn270  Zn    0.04341   0.25000   0.28265   0.00000  Uiso   1.00
Zn271  Zn    0.25000   0.45660   0.71735   0.00000  Uiso   1.00
Zn272  Zn    0.25000   0.04340   0.28265   0.00000  Uiso   1.00
Zn273  Zn    0.04341   0.25000   0.71735   0.00000  Uiso   1.00
Zn274  Zn    0.45660   0.25000   0.28265   0.00000  Uiso   1.00
Zn275  Zn    0.25000   0.04340   0.71735   0.00000  Uiso   1.00
Zn276  Zn    0.25000   0.45660   0.28265   0.00000  Uiso   1.00
Zn277  Zn    0.29341  -0.00000   0.78265   0.00000  Uiso   1.00
Zn278  Zn    0.00000   0.20659   0.21735   0.00000  Uiso   1.00
Zn279  Zn    0.00000   0.29341   0.78265   0.00000  Uiso   1.00
Zn280  Zn    0.29341  -0.00000   0.21735   0.00000  Uiso   1.00
Zn281  Zn    0.20660  -0.00000   0.78265   0.00000  Uiso   1.00
Zn282  Zn    0.00000   0.29340   0.21735   0.00000  Uiso   1.00
Zn283  Zn    0.00000   0.20659   0.78265   0.00000  Uiso   1.00
Zn284  Zn    0.45660   0.25000   0.71735   0.00000  Uiso   1.00
C285   C     0.51511   0.27989   0.41809   0.00000  Uiso   1.00
C286   C     0.72987   0.47315   0.08162   0.00000  Uiso   1.00
C287   C     0.72168   0.48120   0.54072   0.00000  Uiso   1.00
C288   C     0.51920   0.27772   0.45865   0.00000  Uiso   1.00
C289   C     0.98076   0.22196   0.54072   0.00000  Uiso   1.00
C290   C     0.72194   0.48129   0.45866   0.00000  Uiso   1.00
C291   C     0.77831   0.01881   0.54072   0.00000  Uiso   1.00
C292   C     0.73085   0.47224   0.95865   0.00000  Uiso   1.00
C293   C     0.76919   0.02807   0.04072   0.00000  Uiso   1.00
C294   C     0.52794   0.26889   0.95865   0.00000  Uiso   1.00
C295   C     0.97179   0.23103   0.04072   0.00000  Uiso   1.00
C296   C     0.76914   0.02776   0.95865   0.00000  Uiso   1.00
C297   C     0.96995   0.23521   0.91809   0.00000  Uiso   1.00
C298   C     0.73081   0.47193   0.04072   0.00000  Uiso   1.00
C299   C     0.97206   0.23111   0.95865   0.00000  Uiso   1.00
C300   C     0.52821   0.26896   0.04072   0.00000  Uiso   1.00
C301   C     0.59810   0.34805   0.25002   0.00000  Uiso   1.00
C302   C     0.90195   0.15190   0.75002   0.00000  Uiso   1.00
C303   C     0.65192   0.09808   0.25000   0.00000  Uiso   1.00
C304   C     0.84809   0.40192   0.75000   0.00000  Uiso   1.00
C305   C     0.90190   0.15195   0.25002   0.00000  Uiso   1.00
C306   C     0.59805   0.34810   0.75002   0.00000  Uiso   1.00
C307   C     0.84808   0.40191   0.25000   0.00000  Uiso   1.00
C308   C     0.52696   0.26998   0.08162   0.00000  Uiso   1.00
C309   C     0.65192   0.09808   0.75000   0.00000  Uiso   1.00
C310   C     0.59808   0.15191   0.75000   0.00000  Uiso   1.00
C311   C     0.90192   0.34808   0.25000   0.00000  Uiso   1.00
C312   C     0.65190   0.40195   0.75002   0.00000  Uiso   1.00
C313   C     0.84805   0.09810   0.25002   0.00000  Uiso   1.00
C314   C     0.90192   0.34808   0.75000   0.00000  Uiso   1.00
C315   C     0.59809   0.15192   0.25000   0.00000  Uiso   1.00
C316   C     0.84810   0.09805   0.75002   0.00000  Uiso   1.00
C317   C     0.65195   0.40190   0.25002   0.00000  Uiso   1.00
C318   C     0.50000   0.25000   0.47925   0.00000  Uiso   1.00
C319   C     0.73494   0.47008   0.91809   0.00000  Uiso   1.00
C320   C     0.50000   0.25000   0.52027   0.00000  Uiso   1.00
C321   C     0.75000   0.00000   0.47925   0.00000  Uiso   1.00
C322   C     0.75000   0.00000   0.52027   0.00000  Uiso   1.00
C323   C     0.75000   0.00000   0.97925   0.00000  Uiso   1.00
C324   C     0.75000   0.00000   0.02027   0.00000  Uiso   1.00
C325   C     0.50000   0.25000   0.97925   0.00000  Uiso   1.00
C326   C     0.50000   0.25000   0.02027   0.00000  Uiso   1.00
C327   C     0.77013   0.02685   0.08162   0.00000  Uiso   1.00
C328   C     0.53006   0.26479   0.91809   0.00000  Uiso   1.00
C329   C     0.97304   0.23002   0.08162   0.00000  Uiso   1.00
C330   C     0.50000   0.25000   0.39794   0.00000  Uiso   1.00
C331   C     0.50000   0.25000   0.60168   0.00000  Uiso   1.00
C332   C     0.75000  -0.00000   0.39794   0.00000  Uiso   1.00
C333   C     0.97984   0.22317   0.58162   0.00000  Uiso   1.00
C334   C     0.75000   0.00000   0.60169   0.00000  Uiso   1.00
C335   C     0.75000   0.00000   0.89794   0.00000  Uiso   1.00
C336   C     0.75000  -0.00000   0.10168   0.00000  Uiso   1.00
C337   C     0.50000   0.25000   0.89794   0.00000  Uiso   1.00
C338   C     0.50000   0.25000   0.10168   0.00000  Uiso   1.00
C339   C     0.95960   0.19630   0.47913   0.00000  Uiso   1.00
C340   C     0.53748   0.30619   0.51959   0.00000  Uiso   1.00
C341   C     0.80442   0.03944   0.47915   0.00000  Uiso   1.00
C342   C     0.69318   0.46350   0.51962   0.00000  Uiso   1.00
C343   C     0.54040   0.30370   0.47913   0.00000  Uiso   1.00
C344   C     0.71985   0.48540   0.41809   0.00000  Uiso   1.00
C345   C     0.96252   0.19381   0.51959   0.00000  Uiso   1.00
C346   C     0.69557   0.46057   0.47915   0.00000  Uiso   1.00
C347   C     0.80681   0.03651   0.51962   0.00000  Uiso   1.00
C348   C     0.70971   0.44622   0.97913   0.00000  Uiso   1.00
C349   C     0.78736   0.05627   0.01960   0.00000  Uiso   1.00
C350   C     0.55417   0.28978   0.97914   0.00000  Uiso   1.00
C351   C     0.94341   0.21314   0.01961   0.00000  Uiso   1.00
C352   C     0.79029   0.05379   0.97913   0.00000  Uiso   1.00
C353   C     0.71263   0.44374   0.01960   0.00000  Uiso   1.00
C354   C     0.94584   0.21022   0.97914   0.00000  Uiso   1.00
C355   C     0.77704   0.01987   0.58162   0.00000  Uiso   1.00
C356   C     0.55659   0.28685   0.01961   0.00000  Uiso   1.00
C357   C     0.75000   0.00000   0.35574   0.00000  Uiso   1.00
C358   C     0.75000  -0.00000   0.64413   0.00000  Uiso   1.00
C359   C     0.50000   0.25000   0.35574   0.00000  Uiso   1.00
C360   C     0.50000   0.25000   0.64413   0.00000  Uiso   1.00
C361   C     0.50000   0.25000   0.85574   0.00000  Uiso   1.00
C362   C     0.50000   0.25000   0.14413   0.00000  Uiso   1.00
C363   C     0.75000   0.00000   0.85574   0.00000  Uiso   1.00
C364   C     0.75000  -0.00000   0.14413   0.00000  Uiso   1.00
C365   C     0.67998   0.07002   0.25000   0.00000  Uiso   1.00
C366   C     0.98489   0.22011   0.41810   0.00000  Uiso   1.00
C367   C     0.82002   0.42998   0.75000   0.00000  Uiso   1.00
C368   C     0.92998   0.17999   0.25000   0.00000  Uiso   1.00
C369   C     0.57001   0.32002   0.75000   0.00000  Uiso   1.00
C370   C     0.82002   0.42998   0.25000   0.00000  Uiso   1.00
C371   C     0.67998   0.07002   0.75000   0.00000  Uiso   1.00
C372   C     0.57002   0.32001   0.25000   0.00000  Uiso   1.00
C373   C     0.93000   0.17998   0.75000   0.00000  Uiso   1.00
C374   C     0.67998   0.42999   0.75000   0.00000  Uiso   1.00
C375   C     0.82000   0.07002   0.25000   0.00000  Uiso   1.00
C376   C     0.92998   0.32002   0.75000   0.00000  Uiso   1.00
C377   C     0.52016   0.27683   0.58162   0.00000  Uiso   1.00
C378   C     0.57002   0.17998   0.25000   0.00000  Uiso   1.00
C379   C     0.82002   0.07001   0.75000   0.00000  Uiso   1.00
C380   C     0.68000   0.42998   0.25000   0.00000  Uiso   1.00
C381   C     0.57002   0.17998   0.75000   0.00000  Uiso   1.00
C382   C     0.92998   0.32002   0.25000   0.00000  Uiso   1.00
C383   C     0.65304   0.37411   0.22179   0.00000  Uiso   1.00
C384   C     0.84710   0.12575   0.77835   0.00000  Uiso   1.00
C385   C     0.62006   0.14720   0.21683   0.00000  Uiso   1.00
C386   C     0.87995   0.35281   0.78317   0.00000  Uiso   1.00
C387   C     0.84696   0.12589   0.22179   0.00000  Uiso   1.00
C388   C     0.78015   0.01460   0.41809   0.00000  Uiso   1.00
C389   C     0.65290   0.37425   0.77835   0.00000  Uiso   1.00
C390   C     0.87994   0.35280   0.21683   0.00000  Uiso   1.00
C391   C     0.62005   0.14719   0.78317   0.00000  Uiso   1.00
C392   C     0.64719   0.12005   0.78317   0.00000  Uiso   1.00
C393   C     0.85280   0.37994   0.21683   0.00000  Uiso   1.00
C394   C     0.62575   0.34710   0.77835   0.00000  Uiso   1.00
C395   C     0.87411   0.15304   0.22179   0.00000  Uiso   1.00
C396   C     0.85281   0.37995   0.78317   0.00000  Uiso   1.00
C397   C     0.64720   0.12006   0.21683   0.00000  Uiso   1.00
C398   C     0.87425   0.15290   0.77835   0.00000  Uiso   1.00
C399   C     0.72296   0.48013   0.58162   0.00000  Uiso   1.00
C400   C     0.62589   0.34695   0.22179   0.00000  Uiso   1.00
C401   C     0.90305   0.12410   0.72180   0.00000  Uiso   1.00
C402   C     0.59711   0.37574   0.27836   0.00000  Uiso   1.00
C403   C     0.87006   0.39720   0.71682   0.00000  Uiso   1.00
C404   C     0.62994   0.10280   0.28317   0.00000  Uiso   1.00
C405   C     0.59695   0.37590   0.72180   0.00000  Uiso   1.00
C406   C     0.90289   0.12426   0.27836   0.00000  Uiso   1.00
C407   C     0.62994   0.10280   0.71682   0.00000  Uiso   1.00
C408   C     0.87006   0.39720   0.28317   0.00000  Uiso   1.00
C409   C     0.89720   0.37005   0.28317   0.00000  Uiso   1.00
C410   C     0.76506   0.02992   0.91809   0.00000  Uiso   1.00
C411   C     0.60280   0.12994   0.71682   0.00000  Uiso   1.00
C412   C     0.87573   0.09711   0.27837   0.00000  Uiso   1.00
C413   C     0.62410   0.40306   0.72180   0.00000  Uiso   1.00
C414   C     0.60280   0.12994   0.28317   0.00000  Uiso   1.00
C415   C     0.89720   0.37006   0.71682   0.00000  Uiso   1.00
C416   C     0.62427   0.40289   0.27836   0.00000  Uiso   1.00
C417   C     0.87590   0.09695   0.72180   0.00000  Uiso   1.00
C418   C     0.98080   0.22228   0.45865   0.00000  Uiso   1.00
C419   C     0.51924   0.27804   0.54072   0.00000  Uiso   1.00
C420   C     0.77806   0.01872   0.45866   0.00000  Uiso   1.00
H421   H     0.51110   0.31367   0.37394   0.00000  Uiso   1.00
H422   H     0.72083   0.44093   0.12530   0.00000  Uiso   1.00
H423   H     0.93625   0.23948   0.87388   0.00000  Uiso   1.00
H424   H     0.55911   0.27903   0.12537   0.00000  Uiso   1.00
H425   H     0.73900   0.43632   0.87393   0.00000  Uiso   1.00
H426   H     0.77917   0.05907   0.12531   0.00000  Uiso   1.00
H427   H     0.56375   0.26052   0.87388   0.00000  Uiso   1.00
H428   H     0.94089   0.22097   0.12537   0.00000  Uiso   1.00
H429   H     0.97082   0.19094   0.62529   0.00000  Uiso   1.00
H430   H     0.68620   0.48981   0.37384   0.00000  Uiso   1.00
H431   H     0.80915   0.02892   0.62541   0.00000  Uiso   1.00
H432   H     0.98890   0.18633   0.37394   0.00000  Uiso   1.00
H433   H     0.52919   0.30906   0.62529   0.00000  Uiso   1.00
H434   H     0.81380   0.01018   0.37385   0.00000  Uiso   1.00
H435   H     0.69085   0.47108   0.62542   0.00000  Uiso   1.00
H436   H     0.76100   0.06369   0.87392   0.00000  Uiso   1.00
I437   I     0.91643   0.16581   0.45097   0.00000  Uiso   1.00
I438   I     0.80537   0.10727   0.04518   0.00000  Uiso   1.00
I439   I     0.58526   0.33254   0.95101   0.00000  Uiso   1.00
I440   I     0.89224   0.19568   0.04525   0.00000  Uiso   1.00
I441   I     0.83338   0.08440   0.95098   0.00000  Uiso   1.00
I442   I     0.69461   0.39273   0.04518   0.00000  Uiso   1.00
I443   I     0.91475   0.16745   0.95101   0.00000  Uiso   1.00
I444   I     0.60777   0.30431   0.04525   0.00000  Uiso   1.00
I445   I     0.69644   0.37325   0.17998   0.00000  Uiso   1.00
I446   I     0.80398   0.12631   0.82049   0.00000  Uiso   1.00
I447   I     0.61297   0.18248   0.16760   0.00000  Uiso   1.00
I448   I     0.55564   0.35716   0.54517   0.00000  Uiso   1.00
I449   I     0.88705   0.31755   0.83240   0.00000  Uiso   1.00
I450   I     0.80356   0.12675   0.17998   0.00000  Uiso   1.00
I451   I     0.69602   0.37369   0.82049   0.00000  Uiso   1.00
I452   I     0.88703   0.31752   0.16760   0.00000  Uiso   1.00
I453   I     0.61295   0.18245   0.83240   0.00000  Uiso   1.00
I454   I     0.68245   0.11295   0.83240   0.00000  Uiso   1.00
I455   I     0.81752   0.38703   0.16760   0.00000  Uiso   1.00
I456   I     0.62629   0.30399   0.82050   0.00000  Uiso   1.00
I457   I     0.87324   0.19645   0.18000   0.00000  Uiso   1.00
I458   I     0.81755   0.38705   0.83240   0.00000  Uiso   1.00
I459   I     0.83583   0.08197   0.45103   0.00000  Uiso   1.00
I460   I     0.68248   0.11297   0.16760   0.00000  Uiso   1.00
I461   I     0.87371   0.19601   0.82051   0.00000  Uiso   1.00
I462   I     0.62676   0.30355   0.18000   0.00000  Uiso   1.00
I463   I     0.94646   0.12323   0.68000   0.00000  Uiso   1.00
I464   I     0.55400   0.37629   0.32052   0.00000  Uiso   1.00
I465   I     0.86296   0.43247   0.66760   0.00000  Uiso   1.00
I466   I     0.63704   0.06754   0.33240   0.00000  Uiso   1.00
I467   I     0.55354   0.37677   0.68000   0.00000  Uiso   1.00
I468   I     0.94599   0.12371   0.32052   0.00000  Uiso   1.00
I469   I     0.63704   0.06753   0.66760   0.00000  Uiso   1.00
I470   I     0.64189   0.44644   0.54529   0.00000  Uiso   1.00
I471   I     0.86296   0.43246   0.33240   0.00000  Uiso   1.00
I472   I     0.93246   0.36296   0.33240   0.00000  Uiso   1.00
I473   I     0.56754   0.13704   0.66760   0.00000  Uiso   1.00
I474   I     0.87626   0.05402   0.32054   0.00000  Uiso   1.00
I475   I     0.62322   0.44647   0.68002   0.00000  Uiso   1.00
I476   I     0.56754   0.13704   0.33240   0.00000  Uiso   1.00
I477   I     0.93247   0.36296   0.66760   0.00000  Uiso   1.00
I478   I     0.62374   0.44598   0.32054   0.00000  Uiso   1.00
I479   I     0.87678   0.05353   0.68002   0.00000  Uiso   1.00
I480   I     0.58357   0.33419   0.45097   0.00000  Uiso   1.00
I481   I     0.94436   0.14285   0.54517   0.00000  Uiso   1.00
I482   I     0.66415   0.41804   0.45103   0.00000  Uiso   1.00
I483   I     0.85809   0.05360   0.54528   0.00000  Uiso   1.00
I484   I     0.66662   0.41561   0.95098   0.00000  Uiso   1.00
O485   O     0.75000  -0.00000   0.25000   0.00000  Uiso   1.00
O486   O     0.75000   0.46964   0.66245   0.00000  Uiso   1.00
O487   O     0.96964   0.25000   0.33755   0.00000  Uiso   1.00
O488   O     0.53037   0.25000   0.66245   0.00000  Uiso   1.00
O489   O     0.50000   0.21964   0.83755   0.00000  Uiso   1.00
O490   O     0.50000   0.28037   0.16245   0.00000  Uiso   1.00
O491   O     0.78037  -0.00000   0.83755   0.00000  Uiso   1.00
O492   O     0.71964  -0.00000   0.16245   0.00000  Uiso   1.00
O493   O     0.50000   0.28037   0.83755   0.00000  Uiso   1.00
O494   O     0.50000   0.21964   0.16245   0.00000  Uiso   1.00
O495   O     0.71964  -0.00000   0.83755   0.00000  Uiso   1.00
O496   O     0.75000  -0.00000   0.75000   0.00000  Uiso   1.00
O497   O     0.78037  -0.00000   0.16245   0.00000  Uiso   1.00
O498   O     0.70725   0.07307   0.27302   0.00000  Uiso   1.00
O499   O     0.79276   0.42692   0.72698   0.00000  Uiso   1.00
O500   O     0.92693   0.20724   0.27302   0.00000  Uiso   1.00
O501   O     0.57308   0.29276   0.72698   0.00000  Uiso   1.00
O502   O     0.79276   0.42692   0.27302   0.00000  Uiso   1.00
O503   O     0.70725   0.07307   0.72698   0.00000  Uiso   1.00
O504   O     0.57308   0.29276   0.27302   0.00000  Uiso   1.00
O505   O     0.92693   0.20724   0.72698   0.00000  Uiso   1.00
O506   O     0.70725   0.42693   0.72698   0.00000  Uiso   1.00
O507   O     0.50000   0.25000   0.25000   0.00000  Uiso   1.00
O508   O     0.79276   0.07307   0.27302   0.00000  Uiso   1.00
O509   O     0.92693   0.29275   0.72698   0.00000  Uiso   1.00
O510   O     0.57308   0.20725   0.27302   0.00000  Uiso   1.00
O511   O     0.79276   0.07307   0.72698   0.00000  Uiso   1.00
O512   O     0.70725   0.42693   0.27302   0.00000  Uiso   1.00
O513   O     0.57308   0.20725   0.72698   0.00000  Uiso   1.00
O514   O     0.92693   0.29275   0.27302   0.00000  Uiso   1.00
O515   O     0.95725   0.32307   0.77302   0.00000  Uiso   1.00
O516   O     0.54276   0.17693   0.22698   0.00000  Uiso   1.00
O517   O     0.67693   0.45725   0.77302   0.00000  Uiso   1.00
O518   O     0.50000   0.25000   0.75000   0.00000  Uiso   1.00
O519   O     0.82308   0.04275   0.22698   0.00000  Uiso   1.00
O520   O     0.54276   0.17693   0.77302   0.00000  Uiso   1.00
O521   O     0.95725   0.32307   0.22698   0.00000  Uiso   1.00
O522   O     0.82308   0.04275   0.77302   0.00000  Uiso   1.00
O523   O     0.67693   0.45725   0.22698   0.00000  Uiso   1.00
O524   O     0.95725   0.17692   0.22698   0.00000  Uiso   1.00
O525   O     0.54276   0.32308   0.77302   0.00000  Uiso   1.00
O526   O     0.67693   0.04275   0.22698   0.00000  Uiso   1.00
O527   O     0.82308   0.45724   0.77302   0.00000  Uiso   1.00
O528   O     0.54276   0.32308   0.22698   0.00000  Uiso   1.00
O529   O     0.75000   0.46964   0.33755   0.00000  Uiso   1.00
O530   O     0.95725   0.17692   0.77302   0.00000  Uiso   1.00
O531   O     0.82308   0.45724   0.22698   0.00000  Uiso   1.00
O532   O     0.67693   0.04275   0.77302   0.00000  Uiso   1.00
O533   O     0.52377   0.31225   0.39926   0.00000  Uiso   1.00
O534   O     0.95760   0.19936   0.60183   0.00000  Uiso   1.00
O535   O     0.68737   0.47726   0.39924   0.00000  Uiso   1.00
O536   O     0.80100   0.04201   0.60178   0.00000  Uiso   1.00
O537   O     0.97623   0.18776   0.39926   0.00000  Uiso   1.00
O538   O     0.54240   0.30064   0.60183   0.00000  Uiso   1.00
O539   O     0.81263   0.02274   0.39925   0.00000  Uiso   1.00
O540   O     0.75000   0.03036   0.66245   0.00000  Uiso   1.00
O541   O     0.69900   0.45799   0.60178   0.00000  Uiso   1.00
O542   O     0.77366   0.06229   0.89926   0.00000  Uiso   1.00
O543   O     0.70763   0.44933   0.10183   0.00000  Uiso   1.00
O544   O     0.93751   0.22688   0.89925   0.00000  Uiso   1.00
O545   O     0.55086   0.29217   0.10180   0.00000  Uiso   1.00
O546   O     0.72634   0.43771   0.89926   0.00000  Uiso   1.00
O547   O     0.79237   0.05067   0.10182   0.00000  Uiso   1.00
O548   O     0.56249   0.27312   0.89925   0.00000  Uiso   1.00
O549   O     0.94914   0.20784   0.10180   0.00000  Uiso   1.00
O550   O     0.53037   0.25000   0.33755   0.00000  Uiso   1.00
O551   O     0.96964   0.25000   0.66245   0.00000  Uiso   1.00
O552   O     0.75000   0.03036   0.33755   0.00000  Uiso   1.00
Zn553  Zn    0.70660  -0.00000   0.21735   0.00000  Uiso   1.00
Zn554  Zn    0.54341   0.25000   0.28265   0.00000  Uiso   1.00
Zn555  Zn    0.75000   0.45660   0.71735   0.00000  Uiso   1.00
Zn556  Zn    0.75000   0.04340   0.28265   0.00000  Uiso   1.00
Zn557  Zn    0.54341   0.25000   0.71735   0.00000  Uiso   1.00
Zn558  Zn    0.95660   0.25000   0.28265   0.00000  Uiso   1.00
Zn559  Zn    0.75000   0.04340   0.71735   0.00000  Uiso   1.00
Zn560  Zn    0.75000   0.45660   0.28265   0.00000  Uiso   1.00
Zn561  Zn    0.79341  -0.00000   0.78265   0.00000  Uiso   1.00
Zn562  Zn    0.50000   0.20659   0.21735   0.00000  Uiso   1.00
Zn563  Zn    0.50000   0.29341   0.78265   0.00000  Uiso   1.00
Zn564  Zn    0.79341  -0.00000   0.21735   0.00000  Uiso   1.00
Zn565  Zn    0.70660  -0.00000   0.78265   0.00000  Uiso   1.00
Zn566  Zn    0.50000   0.29340   0.21735   0.00000  Uiso   1.00
Zn567  Zn    0.50000   0.20659   0.78265   0.00000  Uiso   1.00
Zn568  Zn    0.95660   0.25000   0.71735   0.00000  Uiso   1.00
C569   C     0.01511   0.77989   0.41809   0.00000  Uiso   1.00
C570   C     0.22987   0.97315   0.08162   0.00000  Uiso   1.00
C571   C     0.22168   0.98120   0.54072   0.00000  Uiso   1.00
C572   C     0.01920   0.77772   0.45865   0.00000  Uiso   1.00
C573   C     0.48076   0.72196   0.54072   0.00000  Uiso   1.00
C574   C     0.22194   0.98129   0.45866   0.00000  Uiso   1.00
C575   C     0.27831   0.51881   0.54072   0.00000  Uiso   1.00
C576   C     0.23085   0.97224   0.95865   0.00000  Uiso   1.00
C577   C     0.26919   0.52807   0.04072   0.00000  Uiso   1.00
C578   C     0.02794   0.76889   0.95865   0.00000  Uiso   1.00
C579   C     0.47179   0.73103   0.04072   0.00000  Uiso   1.00
C580   C     0.26914   0.52776   0.95865   0.00000  Uiso   1.00
C581   C     0.46995   0.73521   0.91809   0.00000  Uiso   1.00
C582   C     0.23081   0.97193   0.04072   0.00000  Uiso   1.00
C583   C     0.47206   0.73111   0.95865   0.00000  Uiso   1.00
C584   C     0.02821   0.76896   0.04072   0.00000  Uiso   1.00
C585   C     0.09810   0.84805   0.25002   0.00000  Uiso   1.00
C586   C     0.40195   0.65190   0.75002   0.00000  Uiso   1.00
C587   C     0.15192   0.59808   0.25000   0.00000  Uiso   1.00
C588   C     0.34809   0.90192   0.75000   0.00000  Uiso   1.00
C589   C     0.40190   0.65195   0.25002   0.00000  Uiso   1.00
C590   C     0.09805   0.84810   0.75002   0.00000  Uiso   1.00
C591   C     0.34808   0.90191   0.25000   0.00000  Uiso   1.00
C592   C     0.02696   0.76998   0.08162   0.00000  Uiso   1.00
C593   C     0.15192   0.59808   0.75000   0.00000  Uiso   1.00
C594   C     0.09808   0.65191   0.75000   0.00000  Uiso   1.00
C595   C     0.40192   0.84808   0.25000   0.00000  Uiso   1.00
C596   C     0.15190   0.90195   0.75002   0.00000  Uiso   1.00
C597   C     0.34805   0.59810   0.25002   0.00000  Uiso   1.00
C598   C     0.40192   0.84808   0.75000   0.00000  Uiso   1.00
C599   C     0.09809   0.65192   0.25000   0.00000  Uiso   1.00
C600   C     0.34810   0.59805   0.75002   0.00000  Uiso   1.00
C601   C     0.15195   0.90190   0.25002   0.00000  Uiso   1.00
C602   C    -0.00000   0.75000   0.47925   0.00000  Uiso   1.00
C603   C     0.23494   0.97008   0.91809   0.00000  Uiso   1.00
C604   C    -0.00000   0.75000   0.52027   0.00000  Uiso   1.00
C605   C     0.25000   0.50000   0.47925   0.00000  Uiso   1.00
C606   C     0.25000   0.50000   0.52027   0.00000  Uiso   1.00
C607   C     0.25000   0.50000   0.97925   0.00000  Uiso   1.00
C608   C     0.25000   0.50000   0.02027   0.00000  Uiso   1.00
C609   C     0.00000   0.75000   0.97925   0.00000  Uiso   1.00
C610   C     0.00000   0.75000   0.02027   0.00000  Uiso   1.00
C611   C     0.27013   0.52685   0.08162   0.00000  Uiso   1.00
C612   C     0.03006   0.76479   0.91809   0.00000  Uiso   1.00
C613   C     0.47304   0.73002   0.08162   0.00000  Uiso   1.00
C614   C     0.00000   0.75000   0.39794   0.00000  Uiso   1.00
C615   C     0.00000   0.75000   0.60168   0.00000  Uiso   1.00
C616   C     0.25000   0.50000   0.39794   0.00000  Uiso   1.00
C617   C     0.47984   0.72317   0.58162   0.00000  Uiso   1.00
C618   C     0.25000   0.50000   0.60169   0.00000  Uiso   1.00
C619   C     0.25000   0.50000   0.89794   0.00000  Uiso   1.00
C620   C     0.25000   0.50000   0.10168   0.00000  Uiso   1.00
C621   C     0.00000   0.75000   0.89794   0.00000  Uiso   1.00
C622   C     0.00000   0.75000   0.10168   0.00000  Uiso   1.00
C623   C     0.45960   0.69630   0.47913   0.00000  Uiso   1.00
C624   C     0.03748   0.80619   0.51959   0.00000  Uiso   1.00
C625   C     0.30442   0.53944   0.47915   0.00000  Uiso   1.00
C626   C     0.19318   0.96350   0.51962   0.00000  Uiso   1.00
C627   C     0.04040   0.80370   0.47913   0.00000  Uiso   1.00
C628   C     0.21985   0.98540   0.41809   0.00000  Uiso   1.00
C629   C     0.46252   0.69381   0.51959   0.00000  Uiso   1.00
C630   C     0.19557   0.96057   0.47915   0.00000  Uiso   1.00
C631   C     0.30681   0.53651   0.51962   0.00000  Uiso   1.00
C632   C     0.20971   0.94622   0.97913   0.00000  Uiso   1.00
C633   C     0.28736   0.55627   0.01960   0.00000  Uiso   1.00
C634   C     0.05417   0.78978   0.97914   0.00000  Uiso   1.00
C635   C     0.44341   0.71314   0.01961   0.00000  Uiso   1.00
C636   C     0.29029   0.55379   0.97913   0.00000  Uiso   1.00
C637   C     0.21263   0.94374   0.01960   0.00000  Uiso   1.00
C638   C     0.44584   0.71022   0.97914   0.00000  Uiso   1.00
C639   C     0.27704   0.51987   0.58162   0.00000  Uiso   1.00
C640   C     0.05659   0.78685   0.01961   0.00000  Uiso   1.00
C641   C     0.25000   0.50000   0.35574   0.00000  Uiso   1.00
C642   C     0.25000   0.50000   0.64413   0.00000  Uiso   1.00
C643   C     0.00000   0.75000   0.35574   0.00000  Uiso   1.00
C644   C     0.00000   0.75000   0.64413   0.00000  Uiso   1.00
C645   C     0.00000   0.75000   0.85574   0.00000  Uiso   1.00
C646   C     0.00000   0.75000   0.14413   0.00000  Uiso   1.00
C647   C     0.25000   0.50000   0.85574   0.00000  Uiso   1.00
C648   C     0.25000   0.50000   0.14413   0.00000  Uiso   1.00
C649   C     0.17998   0.57002   0.25000   0.00000  Uiso   1.00
C650   C     0.48489   0.72011   0.41810   0.00000  Uiso   1.00
C651   C     0.32002   0.92998   0.75000   0.00000  Uiso   1.00
C652   C     0.42998   0.67999   0.25000   0.00000  Uiso   1.00
C653   C     0.07001   0.82002   0.75000   0.00000  Uiso   1.00
C654   C     0.32002   0.92998   0.25000   0.00000  Uiso   1.00
C655   C     0.17998   0.57002   0.75000   0.00000  Uiso   1.00
C656   C     0.07002   0.82001   0.25000   0.00000  Uiso   1.00
C657   C     0.43000   0.67998   0.75000   0.00000  Uiso   1.00
C658   C     0.17998   0.92999   0.75000   0.00000  Uiso   1.00
C659   C     0.32000   0.57002   0.25000   0.00000  Uiso   1.00
C660   C     0.42998   0.82002   0.75000   0.00000  Uiso   1.00
C661   C     0.02016   0.77683   0.58162   0.00000  Uiso   1.00
C662   C     0.07002   0.67998   0.25000   0.00000  Uiso   1.00
C663   C     0.32002   0.57001   0.75000   0.00000  Uiso   1.00
C664   C     0.18000   0.92998   0.25000   0.00000  Uiso   1.00
C665   C     0.07002   0.67998   0.75000   0.00000  Uiso   1.00
C666   C     0.42998   0.82002   0.25000   0.00000  Uiso   1.00
C667   C     0.15304   0.87411   0.22179   0.00000  Uiso   1.00
C668   C     0.34710   0.62575   0.77835   0.00000  Uiso   1.00
C669   C     0.12006   0.64720   0.21683   0.00000  Uiso   1.00
C670   C     0.37995   0.85281   0.78317   0.00000  Uiso   1.00
C671   C     0.34696   0.62589   0.22179   0.00000  Uiso   1.00
C672   C     0.28015   0.51460   0.41809   0.00000  Uiso   1.00
C673   C     0.15290   0.87425   0.77835   0.00000  Uiso   1.00
C674   C     0.37994   0.85280   0.21683   0.00000  Uiso   1.00
C675   C     0.12005   0.64719   0.78317   0.00000  Uiso   1.00
C676   C     0.14719   0.62005   0.78317   0.00000  Uiso   1.00
C677   C     0.35280   0.87994   0.21683   0.00000  Uiso   1.00
C678   C     0.12575   0.84710   0.77835   0.00000  Uiso   1.00
C679   C     0.37411   0.65304   0.22179   0.00000  Uiso   1.00
C680   C     0.35281   0.87995   0.78317   0.00000  Uiso   1.00
C681   C     0.14720   0.62006   0.21683   0.00000  Uiso   1.00
C682   C     0.37425   0.65290   0.77835   0.00000  Uiso   1.00
C683   C     0.22296   0.98013   0.58162   0.00000  Uiso   1.00
C684   C     0.12589   0.84695   0.22179   0.00000  Uiso   1.00
C685   C     0.40305   0.62410   0.72180   0.00000  Uiso   1.00
C686   C     0.09711   0.87574   0.27836   0.00000  Uiso   1.00
C687   C     0.37006   0.89720   0.71682   0.00000  Uiso   1.00
C688   C     0.12994   0.60280   0.28317   0.00000  Uiso   1.00
C689   C     0.09695   0.87590   0.72180   0.00000  Uiso   1.00
C690   C     0.40289   0.62426   0.27836   0.00000  Uiso   1.00
C691   C     0.12994   0.60280   0.71682   0.00000  Uiso   1.00
C692   C     0.37006   0.89720   0.28317   0.00000  Uiso   1.00
C693   C     0.39720   0.87005   0.28317   0.00000  Uiso   1.00
C694   C     0.26506   0.52992   0.91809   0.00000  Uiso   1.00
C695   C     0.10280   0.62994   0.71682   0.00000  Uiso   1.00
C696   C     0.37573   0.59711   0.27837   0.00000  Uiso   1.00
C697   C     0.12410   0.90306   0.72180   0.00000  Uiso   1.00
C698   C     0.10280   0.62994   0.28317   0.00000  Uiso   1.00
C699   C     0.39720   0.87006   0.71682   0.00000  Uiso   1.00
C700   C     0.12427   0.90289   0.27836   0.00000  Uiso   1.00
C701   C     0.37590   0.59695   0.72180   0.00000  Uiso   1.00
C702   C     0.48080   0.72228   0.45865   0.00000  Uiso   1.00
C703   C     0.01924   0.77804   0.54072   0.00000  Uiso   1.00
C704   C     0.27806   0.51872   0.45866   0.00000  Uiso   1.00
H705   H     0.01110   0.81367   0.37394   0.00000  Uiso   1.00
H706   H     0.22083   0.94093   0.12530   0.00000  Uiso   1.00
H707   H     0.43625   0.73948   0.87388   0.00000  Uiso   1.00
H708   H     0.05911   0.77903   0.12537   0.00000  Uiso   1.00
H709   H     0.23900   0.93632   0.87393   0.00000  Uiso   1.00
H710   H     0.27917   0.55907   0.12531   0.00000  Uiso   1.00
H711   H     0.06375   0.76052   0.87388   0.00000  Uiso   1.00
H712   H     0.44089   0.72097   0.12537   0.00000  Uiso   1.00
H713   H     0.47082   0.69094   0.62529   0.00000  Uiso   1.00
H714   H     0.18620   0.98981   0.37384   0.00000  Uiso   1.00
H715   H     0.30915   0.52892   0.62541   0.00000  Uiso   1.00
H716   H     0.48890   0.68633   0.37394   0.00000  Uiso   1.00
H717   H     0.02919   0.80906   0.62529   0.00000  Uiso   1.00
H718   H     0.31380   0.51018   0.37385   0.00000  Uiso   1.00
H719   H     0.19085   0.97108   0.62542   0.00000  Uiso   1.00
H720   H     0.26100   0.56369   0.87392   0.00000  Uiso   1.00
I721   I     0.41643   0.66581   0.45097   0.00000  Uiso   1.00
I722   I     0.30537   0.60727   0.04518   0.00000  Uiso   1.00
I723   I     0.08526   0.83254   0.95101   0.00000  Uiso   1.00
I724   I     0.39224   0.69568   0.04525   0.00000  Uiso   1.00
I725   I     0.33338   0.58440   0.95098   0.00000  Uiso   1.00
I726   I     0.19461   0.89273   0.04518   0.00000  Uiso   1.00
I727   I     0.41475   0.66745   0.95101   0.00000  Uiso   1.00
I728   I     0.10777   0.80431   0.04525   0.00000  Uiso   1.00
I729   I     0.19644   0.87325   0.17998   0.00000  Uiso   1.00
I730   I     0.30398   0.62631   0.82049   0.00000  Uiso   1.00
I731   I     0.11297   0.68248   0.16760   0.00000  Uiso   1.00
I732   I     0.05564   0.85716   0.54517   0.00000  Uiso   1.00
I733   I     0.38705   0.81755   0.83240   0.00000  Uiso   1.00
I734   I     0.30356   0.62675   0.17998   0.00000  Uiso   1.00
I735   I     0.19602   0.87369   0.82049   0.00000  Uiso   1.00
I736   I     0.38703   0.81752   0.16760   0.00000  Uiso   1.00
I737   I     0.11295   0.68245   0.83240   0.00000  Uiso   1.00
I738   I     0.18245   0.61295   0.83240   0.00000  Uiso   1.00
I739   I     0.31752   0.88703   0.16760   0.00000  Uiso   1.00
I740   I     0.12629   0.80399   0.82050   0.00000  Uiso   1.00
I741   I     0.37324   0.69645   0.18000   0.00000  Uiso   1.00
I742   I     0.31755   0.88705   0.83240   0.00000  Uiso   1.00
I743   I     0.33583   0.58197   0.45103   0.00000  Uiso   1.00
I744   I     0.18248   0.61297   0.16760   0.00000  Uiso   1.00
I745   I     0.37371   0.69601   0.82051   0.00000  Uiso   1.00
I746   I     0.12676   0.80355   0.18000   0.00000  Uiso   1.00
I747   I     0.44646   0.62323   0.68000   0.00000  Uiso   1.00
I748   I     0.05400   0.87629   0.32052   0.00000  Uiso   1.00
I749   I     0.36296   0.93247   0.66760   0.00000  Uiso   1.00
I750   I     0.13704   0.56754   0.33240   0.00000  Uiso   1.00
I751   I     0.05354   0.87677   0.68000   0.00000  Uiso   1.00
I752   I     0.44599   0.62371   0.32052   0.00000  Uiso   1.00
I753   I     0.13704   0.56753   0.66760   0.00000  Uiso   1.00
I754   I     0.14189   0.94644   0.54529   0.00000  Uiso   1.00
I755   I     0.36296   0.93246   0.33240   0.00000  Uiso   1.00
I756   I     0.43246   0.86296   0.33240   0.00000  Uiso   1.00
I757   I     0.06754   0.63704   0.66760   0.00000  Uiso   1.00
I758   I     0.37626   0.55402   0.32054   0.00000  Uiso   1.00
I759   I     0.12322   0.94647   0.68002   0.00000  Uiso   1.00
I760   I     0.06754   0.63704   0.33240   0.00000  Uiso   1.00
I761   I     0.43247   0.86296   0.66760   0.00000  Uiso   1.00
I762   I     0.12374   0.94598   0.32054   0.00000  Uiso   1.00
I763   I     0.37678   0.55353   0.68002   0.00000  Uiso   1.00
I764   I     0.08357   0.83419   0.45097   0.00000  Uiso   1.00
I765   I     0.44436   0.64285   0.54517   0.00000  Uiso   1.00
I766   I     0.16415   0.91804   0.45103   0.00000  Uiso   1.00
I767   I     0.35809   0.55360   0.54528   0.00000  Uiso   1.00
I768   I     0.16662   0.91561   0.95098   0.00000  Uiso   1.00
O769   O     0.25000   0.50000   0.25000   0.00000  Uiso   1.00
O770   O     0.25000   0.96964   0.66245   0.00000  Uiso   1.00
O771   O     0.46964   0.75000   0.33755   0.00000  Uiso   1.00
O772   O     0.03037   0.75000   0.66245   0.00000  Uiso   1.00
O773   O     0.00000   0.71964   0.83755   0.00000  Uiso   1.00
O774   O     0.00000   0.78037   0.16245   0.00000  Uiso   1.00
O775   O     0.28037   0.50000   0.83755   0.00000  Uiso   1.00
O776   O     0.21964   0.50000   0.16245   0.00000  Uiso   1.00
O777   O     0.00000   0.78037   0.83755   0.00000  Uiso   1.00
O778   O     0.00000   0.71964   0.16245   0.00000  Uiso   1.00
O779   O     0.21964   0.50000   0.83755   0.00000  Uiso   1.00
O780   O     0.25000   0.50000   0.75000   0.00000  Uiso   1.00
O781   O     0.28037   0.50000   0.16245   0.00000  Uiso   1.00
O782   O     0.20725   0.57307   0.27302   0.00000  Uiso   1.00
O783   O     0.29276   0.92692   0.72698   0.00000  Uiso   1.00
O784   O     0.42693   0.70724   0.27302   0.00000  Uiso   1.00
O785   O     0.07308   0.79276   0.72698   0.00000  Uiso   1.00
O786   O     0.29276   0.92692   0.27302   0.00000  Uiso   1.00
O787   O     0.20725   0.57307   0.72698   0.00000  Uiso   1.00
O788   O     0.07308   0.79276   0.27302   0.00000  Uiso   1.00
O789   O     0.42693   0.70724   0.72698   0.00000  Uiso   1.00
O790   O     0.20725   0.92693   0.72698   0.00000  Uiso   1.00
O791   O     0.00000   0.75000   0.25000   0.00000  Uiso   1.00
O792   O     0.29276   0.57307   0.27302   0.00000  Uiso   1.00
O793   O     0.42693   0.79275   0.72698   0.00000  Uiso   1.00
O794   O     0.07308   0.70725   0.27302   0.00000  Uiso   1.00
O795   O     0.29276   0.57307   0.72698   0.00000  Uiso   1.00
O796   O     0.20725   0.92693   0.27302   0.00000  Uiso   1.00
O797   O     0.07308   0.70725   0.72698   0.00000  Uiso   1.00
O798   O     0.42693   0.79275   0.27302   0.00000  Uiso   1.00
O799   O     0.45725   0.82307   0.77302   0.00000  Uiso   1.00
O800   O     0.04276   0.67693   0.22698   0.00000  Uiso   1.00
O801   O     0.17693   0.95725   0.77302   0.00000  Uiso   1.00
O802   O     0.00000   0.75000   0.75000   0.00000  Uiso   1.00
O803   O     0.32308   0.54275   0.22698   0.00000  Uiso   1.00
O804   O     0.04276   0.67693   0.77302   0.00000  Uiso   1.00
O805   O     0.45725   0.82307   0.22698   0.00000  Uiso   1.00
O806   O     0.32308   0.54275   0.77302   0.00000  Uiso   1.00
O807   O     0.17693   0.95725   0.22698   0.00000  Uiso   1.00
O808   O     0.45725   0.67692   0.22698   0.00000  Uiso   1.00
O809   O     0.04276   0.82308   0.77302   0.00000  Uiso   1.00
O810   O     0.17693   0.54275   0.22698   0.00000  Uiso   1.00
O811   O     0.32308   0.95724   0.77302   0.00000  Uiso   1.00
O812   O     0.04276   0.82308   0.22698   0.00000  Uiso   1.00
O813   O     0.25000   0.96964   0.33755   0.00000  Uiso   1.00
O814   O     0.45725   0.67692   0.77302   0.00000  Uiso   1.00
O815   O     0.32308   0.95724   0.22698   0.00000  Uiso   1.00
O816   O     0.17693   0.54275   0.77302   0.00000  Uiso   1.00
O817   O     0.02377   0.81225   0.39926   0.00000  Uiso   1.00
O818   O     0.45760   0.69936   0.60183   0.00000  Uiso   1.00
O819   O     0.18737   0.97726   0.39924   0.00000  Uiso   1.00
O820   O     0.30100   0.54201   0.60178   0.00000  Uiso   1.00
O821   O     0.47623   0.68776   0.39926   0.00000  Uiso   1.00
O822   O     0.04240   0.80064   0.60183   0.00000  Uiso   1.00
O823   O     0.31263   0.52274   0.39925   0.00000  Uiso   1.00
O824   O     0.25000   0.53036   0.66245   0.00000  Uiso   1.00
O825   O     0.19900   0.95799   0.60178   0.00000  Uiso   1.00
O826   O     0.27366   0.56229   0.89926   0.00000  Uiso   1.00
O827   O     0.20763   0.94933   0.10183   0.00000  Uiso   1.00
O828   O     0.43751   0.72688   0.89925   0.00000  Uiso   1.00
O829   O     0.05086   0.79217   0.10180   0.00000  Uiso   1.00
O830   O     0.22634   0.93771   0.89926   0.00000  Uiso   1.00
O831   O     0.29237   0.55067   0.10182   0.00000  Uiso   1.00
O832   O     0.06249   0.77312   0.89925   0.00000  Uiso   1.00
O833   O     0.44914   0.70784   0.10180   0.00000  Uiso   1.00
O834   O     0.03037   0.75000   0.33755   0.00000  Uiso   1.00
O835   O     0.46964   0.75000   0.66245   0.00000  Uiso   1.00
O836   O     0.25000   0.53036   0.33755   0.00000  Uiso   1.00
Zn837  Zn    0.20660   0.50000   0.21735   0.00000  Uiso   1.00
Zn838  Zn    0.04341   0.75000   0.28265   0.00000  Uiso   1.00
Zn839  Zn    0.25000   0.95660   0.71735   0.00000  Uiso   1.00
Zn840  Zn    0.25000   0.54340   0.28265   0.00000  Uiso   1.00
Zn841  Zn    0.04341   0.75000   0.71735   0.00000  Uiso   1.00
Zn842  Zn    0.45660   0.75000   0.28265   0.00000  Uiso   1.00
Zn843  Zn    0.25000   0.54340   0.71735   0.00000  Uiso   1.00
Zn844  Zn    0.25000   0.95660   0.28265   0.00000  Uiso   1.00
Zn845  Zn    0.29341   0.50000   0.78265   0.00000  Uiso   1.00
Zn846  Zn    0.00000   0.70659   0.21735   0.00000  Uiso   1.00
Zn847  Zn    0.00000   0.79341   0.78265   0.00000  Uiso   1.00
Zn848  Zn    0.29341   0.50000   0.21735   0.00000  Uiso   1.00
Zn849  Zn    0.20660   0.50000   0.78265   0.00000  Uiso   1.00
Zn850  Zn    0.00000   0.79340   0.21735   0.00000  Uiso   1.00
Zn851  Zn    0.00000   0.70659   0.78265   0.00000  Uiso   1.00
Zn852  Zn    0.45660   0.75000   0.71735   0.00000  Uiso   1.00
C853   C     0.51511   0.77989   0.41809   0.00000  Uiso   1.00
C854   C     0.72987   0.97315   0.08162   0.00000  Uiso   1.00
C855   C     0.72168   0.98120   0.54072   0.00000  Uiso   1.00
C856   C     0.51920   0.77772   0.45865   0.00000  Uiso   1.00
C857   C     0.98076   0.72196   0.54072   0.00000  Uiso   1.00
C858   C     0.72194   0.98129   0.45866   0.00000  Uiso   1.00
C859   C     0.77831   0.51881   0.54072   0.00000  Uiso   1.00
C860   C     0.73085   0.97224   0.95865   0.00000  Uiso   1.00
C861   C     0.76919   0.52807   0.04072   0.00000  Uiso   1.00
C862   C     0.52794   0.76889   0.95865   0.00000  Uiso   1.00
C863   C     0.97179   0.73103   0.04072   0.00000  Uiso   1.00
C864   C     0.76914   0.52776   0.95865   0.00000  Uiso   1.00
C865   C     0.96995   0.73521   0.91809   0.00000  Uiso   1.00
C866   C     0.73081   0.97193   0.04072   0.00000  Uiso   1.00
C867   C     0.97206   0.73111   0.95865   0.00000  Uiso   1.00
C868   C     0.52821   0.76896   0.04072   0.00000  Uiso   1.00
C869   C     0.59810   0.84805   0.25002   0.00000  Uiso   1.00
C870   C     0.90195   0.65190   0.75002   0.00000  Uiso   1.00
C871   C     0.65192   0.59808   0.25000   0.00000  Uiso   1.00
C872   C     0.84809   0.90192   0.75000   0.00000  Uiso   1.00
C873   C     0.90190   0.65195   0.25002   0.00000  Uiso   1.00
C874   C     0.59805   0.84810   0.75002   0.00000  Uiso   1.00
C875   C     0.84808   0.90191   0.25000   0.00000  Uiso   1.00
C876   C     0.52696   0.76998   0.08162   0.00000  Uiso   1.00
C877   C     0.65192   0.59808   0.75000   0.00000  Uiso   1.00
C878   C     0.59808   0.65191   0.75000   0.00000  Uiso   1.00
C879   C     0.90192   0.84808   0.25000   0.00000  Uiso   1.00
C880   C     0.65190   0.90195   0.75002   0.00000  Uiso   1.00
C881   C     0.84805   0.59810   0.25002   0.00000  Uiso   1.00
C882   C     0.90192   0.84808   0.75000   0.00000  Uiso   1.00
C883   C     0.59809   0.65192   0.25000   0.00000  Uiso   1.00
C884   C     0.84810   0.59805   0.75002   0.00000  Uiso   1.00
C885   C     0.65195   0.90190   0.25002   0.00000  Uiso   1.00
C886   C     0.50000   0.75000   0.47925   0.00000  Uiso   1.00
C887   C     0.73494   0.97008   0.91809   0.00000  Uiso   1.00
C888   C     0.50000   0.75000   0.52027   0.00000  Uiso   1.00
C889   C     0.75000   0.50000   0.47925   0.00000  Uiso   1.00
C890   C     0.75000   0.50000   0.52027   0.00000  Uiso   1.00
C891   C     0.75000   0.50000   0.97925   0.00000  Uiso   1.00
C892   C     0.75000   0.50000   0.02027   0.00000  Uiso   1.00
C893   C     0.50000   0.75000   0.97925   0.00000  Uiso   1.00
C894   C     0.50000   0.75000   0.02027   0.00000  Uiso   1.00
C895   C     0.77013   0.52685   0.08162   0.00000  Uiso   1.00
C896   C     0.53006   0.76479   0.91809   0.00000  Uiso   1.00
C897   C     0.97304   0.73002   0.08162   0.00000  Uiso   1.00
C898   C     0.50000   0.75000   0.39794   0.00000  Uiso   1.00
C899   C     0.50000   0.75000   0.60168   0.00000  Uiso   1.00
C900   C     0.75000   0.50000   0.39794   0.00000  Uiso   1.00
C901   C     0.97984   0.72317   0.58162   0.00000  Uiso   1.00
C902   C     0.75000   0.50000   0.60169   0.00000  Uiso   1.00
C903   C     0.75000   0.50000   0.89794   0.00000  Uiso   1.00
C904   C     0.75000   0.50000   0.10168   0.00000  Uiso   1.00
C905   C     0.50000   0.75000   0.89794   0.00000  Uiso   1.00
C906   C     0.50000   0.75000   0.10168   0.00000  Uiso   1.00
C907   C     0.95960   0.69630   0.47913   0.00000  Uiso   1.00
C908   C     0.53748   0.80619   0.51959   0.00000  Uiso   1.00
C909   C     0.80442   0.53944   0.47915   0.00000  Uiso   1.00
C910   C     0.69318   0.96350   0.51962   0.00000  Uiso   1.00
C911   C     0.54040   0.80370   0.47913   0.00000  Uiso   1.00
C912   C     0.71985   0.98540   0.41809   0.00000  Uiso   1.00
C913   C     0.96252   0.69381   0.51959   0.00000  Uiso   1.00
C914   C     0.69557   0.96057   0.47915   0.00000  Uiso   1.00
C915   C     0.80681   0.53651   0.51962   0.00000  Uiso   1.00
C916   C     0.70971   0.94622   0.97913   0.00000  Uiso   1.00
C917   C     0.78736   0.55627   0.01960   0.00000  Uiso   1.00
C918   C     0.55417   0.78978   0.97914   0.00000  Uiso   1.00
C919   C     0.94341   0.71314   0.01961   0.00000  Uiso   1.00
C920   C     0.79029   0.55379   0.97913   0.00000  Uiso   1.00
C921   C     0.71263   0.94374   0.01960   0.00000  Uiso   1.00
C922   C     0.94584   0.71022   0.97914   0.00000  Uiso   1.00
C923   C     0.77704   0.51987   0.58162   0.00000  Uiso   1.00
C924   C     0.55659   0.78685   0.01961   0.00000  Uiso   1.00
C925   C     0.75000   0.50000   0.35574   0.00000  Uiso   1.00
C926   C     0.75000   0.50000   0.64413   0.00000  Uiso   1.00
C927   C     0.50000   0.75000   0.35574   0.00000  Uiso   1.00
C928   C     0.50000   0.75000   0.64413   0.00000  Uiso   1.00
C929   C     0.50000   0.75000   0.85574   0.00000  Uiso   1.00
C930   C     0.50000   0.75000   0.14413   0.00000  Uiso   1.00
C931   C     0.75000   0.50000   0.85574   0.00000  Uiso   1.00
C932   C     0.75000   0.50000   0.14413   0.00000  Uiso   1.00
C933   C     0.67998   0.57002   0.25000   0.00000  Uiso   1.00
C934   C     0.98489   0.72011   0.41810   0.00000  Uiso   1.00
C935   C     0.82002   0.92998   0.75000   0.00000  Uiso   1.00
C936   C     0.92998   0.67999   0.25000   0.00000  Uiso   1.00
C937   C     0.57001   0.82002   0.75000   0.00000  Uiso   1.00
C938   C     0.82002   0.92998   0.25000   0.00000  Uiso   1.00
C939   C     0.67998   0.57002   0.75000   0.00000  Uiso   1.00
C940   C     0.57002   0.82001   0.25000   0.00000  Uiso   1.00
C941   C     0.93000   0.67998   0.75000   0.00000  Uiso   1.00
C942   C     0.67998   0.92999   0.75000   0.00000  Uiso   1.00
C943   C     0.82000   0.57002   0.25000   0.00000  Uiso   1.00
C944   C     0.92998   0.82002   0.75000   0.00000  Uiso   1.00
C945   C     0.52016   0.77683   0.58162   0.00000  Uiso   1.00
C946   C     0.57002   0.67998   0.25000   0.00000  Uiso   1.00
C947   C     0.82002   0.57001   0.75000   0.00000  Uiso   1.00
C948   C     0.68000   0.92998   0.25000   0.00000  Uiso   1.00
C949   C     0.57002   0.67998   0.75000   0.00000  Uiso   1.00
C950   C     0.92998   0.82002   0.25000   0.00000  Uiso   1.00
C951   C     0.65304   0.87411   0.22179   0.00000  Uiso   1.00
C952   C     0.84710   0.62575   0.77835   0.00000  Uiso   1.00
C953   C     0.62006   0.64720   0.21683   0.00000  Uiso   1.00
C954   C     0.87995   0.85281   0.78317   0.00000  Uiso   1.00
C955   C     0.84696   0.62589   0.22179   0.00000  Uiso   1.00
C956   C     0.78015   0.51460   0.41809   0.00000  Uiso   1.00
C957   C     0.65290   0.87425   0.77835   0.00000  Uiso   1.00
C958   C     0.87994   0.85280   0.21683   0.00000  Uiso   1.00
C959   C     0.62005   0.64719   0.78317   0.00000  Uiso   1.00
C960   C     0.64719   0.62005   0.78317   0.00000  Uiso   1.00
C961   C     0.85280   0.87994   0.21683   0.00000  Uiso   1.00
C962   C     0.62575   0.84710   0.77835   0.00000  Uiso   1.00
C963   C     0.87411   0.65304   0.22179   0.00000  Uiso   1.00
C964   C     0.85281   0.87995   0.78317   0.00000  Uiso   1.00
C965   C     0.64720   0.62006   0.21683   0.00000  Uiso   1.00
C966   C     0.87425   0.65290   0.77835   0.00000  Uiso   1.00
C967   C     0.72296   0.98013   0.58162   0.00000  Uiso   1.00
C968   C     0.62589   0.84695   0.22179   0.00000  Uiso   1.00
C969   C     0.90305   0.62410   0.72180   0.00000  Uiso   1.00
C970   C     0.59711   0.87574   0.27836   0.00000  Uiso   1.00
C971   C     0.87006   0.89720   0.71682   0.00000  Uiso   1.00
C972   C     0.62994   0.60280   0.28317   0.00000  Uiso   1.00
C973   C     0.59695   0.87590   0.72180   0.00000  Uiso   1.00
C974   C     0.90289   0.62426   0.27836   0.00000  Uiso   1.00
C975   C     0.62994   0.60280   0.71682   0.00000  Uiso   1.00
C976   C     0.87006   0.89720   0.28317   0.00000  Uiso   1.00
C977   C     0.89720   0.87005   0.28317   0.00000  Uiso   1.00
C978   C     0.76506   0.52992   0.91809   0.00000  Uiso   1.00
C979   C     0.60280   0.62994   0.71682   0.00000  Uiso   1.00
C980   C     0.87573   0.59711   0.27837   0.00000  Uiso   1.00
C981   C     0.62410   0.90306   0.72180   0.00000  Uiso   1.00
C982   C     0.60280   0.62994   0.28317   0.00000  Uiso   1.00
C983   C     0.89720   0.87006   0.71682   0.00000  Uiso   1.00
C984   C     0.62427   0.90289   0.27836   0.00000  Uiso   1.00
C985   C     0.87590   0.59695   0.72180   0.00000  Uiso   1.00
C986   C     0.98080   0.72228   0.45865   0.00000  Uiso   1.00
C987   C     0.51924   0.77804   0.54072   0.00000  Uiso   1.00
C988   C     0.77806   0.51872   0.45866   0.00000  Uiso   1.00
H989   H     0.51110   0.81367   0.37394   0.00000  Uiso   1.00
H990   H     0.72083   0.94093   0.12530   0.00000  Uiso   1.00
H991   H     0.93625   0.73948   0.87388   0.00000  Uiso   1.00
H992   H     0.55911   0.77903   0.12537   0.00000  Uiso   1.00
H993   H     0.73900   0.93632   0.87393   0.00000  Uiso   1.00
H994   H     0.77917   0.55907   0.12531   0.00000  Uiso   1.00
H995   H     0.56375   0.76052   0.87388   0.00000  Uiso   1.00
H996   H     0.94089   0.72097   0.12537   0.00000  Uiso   1.00
H997   H     0.97082   0.69094   0.62529   0.00000  Uiso   1.00
H998   H     0.68620   0.98981   0.37384   0.00000  Uiso   1.00
H999   H     0.80915   0.52892   0.62541   0.00000  Uiso   1.00
H1000  H     0.98890   0.68633   0.37394   0.00000  Uiso   1.00
H1001  H     0.52919   0.80906   0.62529   0.00000  Uiso   1.00
H1002  H     0.81380   0.51018   0.37385   0.00000  Uiso   1.00
H1003  H     0.69085   0.97108   0.62542   0.00000  Uiso   1.00
H1004  H     0.76100   0.56369   0.87392   0.00000  Uiso   1.00
I1005  I     0.91643   0.66581   0.45097   0.00000  Uiso   1.00
I1006  I     0.80537   0.60727   0.04518   0.00000  Uiso   1.00
I1007  I     0.58526   0.83254   0.95101   0.00000  Uiso   1.00
I1008  I     0.89224   0.69568   0.04525   0.00000  Uiso   1.00
I1009  I     0.83338   0.58440   0.95098   0.00000  Uiso   1.00
I1010  I     0.69461   0.89273   0.04518   0.00000  Uiso   1.00
I1011  I     0.91475   0.66745   0.95101   0.00000  Uiso   1.00
I1012  I     0.60777   0.80431   0.04525   0.00000  Uiso   1.00
I1013  I     0.69644   0.87325   0.17998   0.00000  Uiso   1.00
I1014  I     0.80398   0.62631   0.82049   0.00000  Uiso   1.00
I1015  I     0.61297   0.68248   0.16760   0.00000  Uiso   1.00
I1016  I     0.55564   0.85716   0.54517   0.00000  Uiso   1.00
I1017  I     0.88705   0.81755   0.83240   0.00000  Uiso   1.00
I1018  I     0.80356   0.62675   0.17998   0.00000  Uiso   1.00
I1019  I     0.69602   0.87369   0.82049   0.00000  Uiso   1.00
I1020  I     0.88703   0.81752   0.16760   0.00000  Uiso   1.00
I1021  I     0.61295   0.68245   0.83240   0.00000  Uiso   1.00
I1022  I     0.68245   0.61295   0.83240   0.00000  Uiso   1.00
I1023  I     0.81752   0.88703   0.16760   0.00000  Uiso   1.00
I1024  I     0.62629   0.80399   0.82050   0.00000  Uiso   1.00
I1025  I     0.87324   0.69645   0.18000   0.00000  Uiso   1.00
I1026  I     0.81755   0.88705   0.83240   0.00000  Uiso   1.00
I1027  I     0.83583   0.58197   0.45103   0.00000  Uiso   1.00
I1028  I     0.68248   0.61297   0.16760   0.00000  Uiso   1.00
I1029  I     0.87371   0.69601   0.82051   0.00000  Uiso   1.00
I1030  I     0.62676   0.80355   0.18000   0.00000  Uiso   1.00
I1031  I     0.94646   0.62323   0.68000   0.00000  Uiso   1.00
I1032  I     0.55400   0.87629   0.32052   0.00000  Uiso   1.00
I1033  I     0.86296   0.93247   0.66760   0.00000  Uiso   1.00
I1034  I     0.63704   0.56754   0.33240   0.00000  Uiso   1.00
I1035  I     0.55354   0.87677   0.68000   0.00000  Uiso   1.00
I1036  I     0.94599   0.62371   0.32052   0.00000  Uiso   1.00
I1037  I     0.63704   0.56753   0.66760   0.00000  Uiso   1.00
I1038  I     0.64189   0.94644   0.54529   0.00000  Uiso   1.00
I1039  I     0.86296   0.93246   0.33240   0.00000  Uiso   1.00
I1040  I     0.93246   0.86296   0.33240   0.00000  Uiso   1.00
I1041  I     0.56754   0.63704   0.66760   0.00000  Uiso   1.00
I1042  I     0.87626   0.55402   0.32054   0.00000  Uiso   1.00
I1043  I     0.62322   0.94647   0.68002   0.00000  Uiso   1.00
I1044  I     0.56754   0.63704   0.33240   0.00000  Uiso   1.00
I1045  I     0.93247   0.86296   0.66760   0.00000  Uiso   1.00
I1046  I     0.62374   0.94598   0.32054   0.00000  Uiso   1.00
I1047  I     0.87678   0.55353   0.68002   0.00000  Uiso   1.00
I1048  I     0.58357   0.83419   0.45097   0.00000  Uiso   1.00
I1049  I     0.94436   0.64285   0.54517   0.00000  Uiso   1.00
I1050  I     0.66415   0.91804   0.45103   0.00000  Uiso   1.00
I1051  I     0.85809   0.55360   0.54528   0.00000  Uiso   1.00
I1052  I     0.66662   0.91561   0.95098   0.00000  Uiso   1.00
O1053  O     0.75000   0.50000   0.25000   0.00000  Uiso   1.00
O1054  O     0.75000   0.96964   0.66245   0.00000  Uiso   1.00
O1055  O     0.96964   0.75000   0.33755   0.00000  Uiso   1.00
O1056  O     0.53037   0.75000   0.66245   0.00000  Uiso   1.00
O1057  O     0.50000   0.71964   0.83755   0.00000  Uiso   1.00
O1058  O     0.50000   0.78037   0.16245   0.00000  Uiso   1.00
O1059  O     0.78037   0.50000   0.83755   0.00000  Uiso   1.00
O1060  O     0.71964   0.50000   0.16245   0.00000  Uiso   1.00
O1061  O     0.50000   0.78037   0.83755   0.00000  Uiso   1.00
O1062  O     0.50000   0.71964   0.16245   0.00000  Uiso   1.00
O1063  O     0.71964   0.50000   0.83755   0.00000  Uiso   1.00
O1064  O     0.75000   0.50000   0.75000   0.00000  Uiso   1.00
O1065  O     0.78037   0.50000   0.16245   0.00000  Uiso   1.00
O1066  O     0.70725   0.57307   0.27302   0.00000  Uiso   1.00
O1067  O     0.79276   0.92692   0.72698   0.00000  Uiso   1.00
O1068  O     0.92693   0.70724   0.27302   0.00000  Uiso   1.00
O1069  O     0.57308   0.79276   0.72698   0.00000  Uiso   1.00
O1070  O     0.79276   0.92692   0.27302   0.00000  Uiso   1.00
O1071  O     0.70725   0.57307   0.72698   0.00000  Uiso   1.00
O1072  O     0.57308   0.79276   0.27302   0.00000  Uiso   1.00
O1073  O     0.92693   0.70724   0.72698   0.00000  Uiso   1.00
O1074  O     0.70725   0.92693   0.72698   0.00000  Uiso   1.00
O1075  O     0.50000   0.75000   0.25000   0.00000  Uiso   1.00
O1076  O     0.79276   0.57307   0.27302   0.00000  Uiso   1.00
O1077  O     0.92693   0.79275   0.72698   0.00000  Uiso   1.00
O1078  O     0.57308   0.70725   0.27302   0.00000  Uiso   1.00
O1079  O     0.79276   0.57307   0.72698   0.00000  Uiso   1.00
O1080  O     0.70725   0.92693   0.27302   0.00000  Uiso   1.00
O1081  O     0.57308   0.70725   0.72698   0.00000  Uiso   1.00
O1082  O     0.92693   0.79275   0.27302   0.00000  Uiso   1.00
O1083  O     0.95725   0.82307   0.77302   0.00000  Uiso   1.00
O1084  O     0.54276   0.67693   0.22698   0.00000  Uiso   1.00
O1085  O     0.67693   0.95725   0.77302   0.00000  Uiso   1.00
O1086  O     0.50000   0.75000   0.75000   0.00000  Uiso   1.00
O1087  O     0.82308   0.54275   0.22698   0.00000  Uiso   1.00
O1088  O     0.54276   0.67693   0.77302   0.00000  Uiso   1.00
O1089  O     0.95725   0.82307   0.22698   0.00000  Uiso   1.00
O1090  O     0.82308   0.54275   0.77302   0.00000  Uiso   1.00
O1091  O     0.67693   0.95725   0.22698   0.00000  Uiso   1.00
O1092  O     0.95725   0.67692   0.22698   0.00000  Uiso   1.00
O1093  O     0.54276   0.82308   0.77302   0.00000  Uiso   1.00
O1094  O     0.67693   0.54275   0.22698   0.00000  Uiso   1.00
O1095  O     0.82308   0.95724   0.77302   0.00000  Uiso   1.00
O1096  O     0.54276   0.82308   0.22698   0.00000  Uiso   1.00
O1097  O     0.75000   0.96964   0.33755   0.00000  Uiso   1.00
O1098  O     0.95725   0.67692   0.77302   0.00000  Uiso   1.00
O1099  O     0.82308   0.95724   0.22698   0.00000  Uiso   1.00
O1100  O     0.67693   0.54275   0.77302   0.00000  Uiso   1.00
O1101  O     0.52377   0.81225   0.39926   0.00000  Uiso   1.00
O1102  O     0.95760   0.69936   0.60183   0.00000  Uiso   1.00
O1103  O     0.68737   0.97726   0.39924   0.00000  Uiso   1.00
O1104  O     0.80100   0.54201   0.60178   0.00000  Uiso   1.00
O1105  O     0.97623   0.68776   0.39926   0.00000  Uiso   1.00
O1106  O     0.54240   0.80064   0.60183   0.00000  Uiso   1.00
O1107  O     0.81263   0.52274   0.39925   0.00000  Uiso   1.00
O1108  O     0.75000   0.53036   0.66245   0.00000  Uiso   1.00
O1109  O     0.69900   0.95799   0.60178   0.00000  Uiso   1.00
O1110  O     0.77366   0.56229   0.89926   0.00000  Uiso   1.00
O1111  O     0.70763   0.94933   0.10183   0.00000  Uiso   1.00
O1112  O     0.93751   0.72688   0.89925   0.00000  Uiso   1.00
O1113  O     0.55086   0.79217   0.10180   0.00000  Uiso   1.00
O1114  O     0.72634   0.93771   0.89926   0.00000  Uiso   1.00
O1115  O     0.79237   0.55067   0.10182   0.00000  Uiso   1.00
O1116  O     0.56249   0.77312   0.89925   0.00000  Uiso   1.00
O1117  O     0.94914   0.70784   0.10180   0.00000  Uiso   1.00
O1118  O     0.53037   0.75000   0.33755   0.00000  Uiso   1.00
O1119  O     0.96964   0.75000   0.66245   0.00000  Uiso   1.00
O1120  O     0.75000   0.53036   0.33755   0.00000  Uiso   1.00
Zn1121 Zn    0.70660   0.50000   0.21735   0.00000  Uiso   1.00
Zn1122 Zn    0.54341   0.75000   0.28265   0.00000  Uiso   1.00
Zn1123 Zn    0.75000   0.95660   0.71735   0.00000  Uiso   1.00
Zn1124 Zn    0.75000   0.54340   0.28265   0.00000  Uiso   1.00
Zn1125 Zn    0.54341   0.75000   0.71735   0.00000  Uiso   1.00
Zn1126 Zn    0.95660   0.75000   0.28265   0.00000  Uiso   1.00
Zn1127 Zn    0.75000   0.54340   0.71735   0.00000  Uiso   1.00
Zn1128 Zn    0.75000   0.95660   0.28265   0.00000  Uiso   1.00
Zn1129 Zn    0.79341   0.50000   0.78265   0.00000  Uiso   1.00
Zn1130 Zn    0.50000   0.70659   0.21735   0.00000  Uiso   1.00
Zn1131 Zn    0.50000   0.79341   0.78265   0.00000  Uiso   1.00
Zn1132 Zn    0.79341   0.50000   0.21735   0.00000  Uiso   1.00
Zn1133 Zn    0.70660   0.50000   0.78265   0.00000  Uiso   1.00
Zn1134 Zn    0.50000   0.79340   0.21735   0.00000  Uiso   1.00
Zn1135 Zn    0.50000   0.70659   0.78265   0.00000  Uiso   1.00
Zn1136 Zn    0.95660   0.75000   0.71735   0.00000  Uiso   1.00
loop_
_geom_bond_atom_site_label_1
_geom_bond_atom_site_label_2
_geom_bond_distance
_geom_bond_site_symmetry_2
_ccdc_geom_bond_type
C1     O249    1.384   .     S
C1     C4      1.408   .     A
C1     C46     1.406   .     S
C2     O259    1.378   .     S
C2     C14     1.411   .     A
C2     C620    1.406   .     S
C3     C115    1.411   .     A
C3     C58     1.424   .     A
C3     C606    1.427   .     S
C4     C59     1.412   .     A
C4     C34     1.421   .     S
C5     C320    1.427   .     A
C5     C49     1.411   .     A
C5     C61     1.424   .     A
C6     C60     1.409   .     A
C6     C62     1.413   .     A
C6     C605    1.421   .     S
C7     C71     1.411   .     A
C7     C63     1.424   .     A
C7     C38     1.427   .     A
C8     C35     1.408   .     A
C8     C64     1.412   .     A
C8     C607    1.421   .     S
C9     C43     1.411   .     A
C9     C40     1.427   .     A
C9     C65     1.424   .     A
C10    C41     1.421   .     A
C10    C66     1.413   .     A
C10    C44     1.408   .     A
C11    C67     1.424   .     A
C11    C45     1.411   .     A
C11    C326    1.427   .     S
C12    C68     1.412   .     A
C12    C39     1.421   .     A
C12    C126    1.408   .     A
C13    O260    1.384   .     S
C13    C15     1.408   .     A
C13    C337    1.406   .     S
C14    C69     1.424   .     A
C14    C608    1.427   .     S
C15    C70     1.413   .     A
C15    C325    1.421   .     S
C16    C72     1.424   .     A
C16    C24     1.411   .     A
C16    C42     1.427   .     A
C17    C88     1.448   .     S
C17    C118    1.406   .     A
C17    C116    1.406   .     A
C18    C114    1.406   .     A
C18    C89     1.448   .     S
C18    C117    1.406   .     A
C19    C81     1.449   .     S
C19    C120    1.407   .     A
C19    C113    1.407   .     A
C20    C112    1.407   .     A
C20    C83     1.449   .     S
C20    C119    1.407   .     A
C21    C111    1.406   .     A
C21    C84     1.448   .     S
C21    C122    1.406   .     A
C22    C85     1.448   .     S
C22    C110    1.406   .     A
C22    C121    1.406   .     A
C23    C86     1.449   .     S
C23    C109    1.407   .     A
C23    C124    1.407   .     A
C24    C54     1.406   .     A
C24    O261    1.378   .     S
C25    C87     1.449   .     S
C25    C108    1.407   .     A
C25    C123    1.407   .     A
C26    C107    1.407   .     A
C26    C127    1.407   .     A
C26    C97     1.449   .     S
C27    C98     1.449   .     S
C27    C125    1.407   .     A
C27    C106    1.407   .     A
C28    C105    1.406   .     A
C28    C129    1.406   .     A
C28    C90     1.448   .     S
C29    C103    1.406   .     A
C29    C128    1.406   .     A
C29    C91     1.448   .     S
C30    C131    1.407   .     A
C30    C92     1.449   .     S
C30    C102    1.407   .     A
C31    C101    1.407   .     A
C31    C130    1.407   .     A
C31    C94     1.449   .     S
C32    C133    1.406   .     A
C32    C100    1.406   .     A
C32    C95     1.448   .     S
C33    C99     1.406   .     A
C33    C132    1.406   .     A
C33    C96     1.448   .     S
C34    C418    1.421   1_455 A
C34    C36     1.414   .     A
C35    O262    1.384   .     S
C35    C619    1.406   .     S
C36    C289    1.427   1_455 A
C36    C135    1.427   .     S
C37    C38     1.414   .     A
C37    C136    1.421   .     A
C37    C574    1.421   1_545 S
C38    C571    1.427   1_545 S
C39    C576    1.421   1_545 S
C39    C40     1.414   1_556 S
C40    C582    1.427   1_545 S
C40    C39     1.414   1_554 S
C41    C299    1.421   1_455 S
C41    C42     1.414   1_556 S
C42    C295    1.427   1_455 S
C42    C41     1.414   1_554 S
C43    C52     1.406   .     A
C43    O263    1.378   .     S
C44    C53     1.406   .     A
C44    O264    1.384   .     S
C45    O265    1.378   .     S
C45    C338    1.406   .     S
C46    C75     1.455   .     S
C46    C366    1.406   1_455 A
C47    C76     1.463   .     S
C47    C93     1.406   .     A
C47    C333    1.406   1_455 S
C48    C104    1.406   .     A
C48    C628    1.406   1_545 S
C48    C73     1.455   .     S
C49    O250    1.378   .     S
C49    C331    1.406   .     S
C50    C71     1.406   .     A
C50    C74     1.463   .     S
C50    C683    1.406   1_545 S
C51    C126    1.406   .     A
C51    C603    1.406   1_545 S
C51    C79     1.455   .     S
C52    C80     1.463   .     S
C52    C570    1.406   1_545 S
C53    C77     1.455   .     S
C53    C297    1.406   1_455 S
C54    C78     1.463   .     S
C54    C329    1.406   1_455 S
C55    C134    1.412   .     A
C55    C61     1.402   .     A
C55    I153    2.159   .     S
C56    C135    1.424   .     A
C56    I164    2.162   .     S
C56    C59     1.402   .     A
C57    C136    1.413   .     A
C57    C63     1.402   .     A
C57    I175    2.159   .     S
C58    C62     1.402   .     A
C58    I186    2.162   .     S
C59    I196    2.159   .     S
C60    O251    1.384   .     S
C60    C616    1.406   .     S
C61    I197    2.162   .     S
C62    I198    2.159   .     S
C63    I199    2.162   .     S
C64    I200    2.159   .     S
C64    C69     1.402   1_556 S
C65    I154    2.162   .     S
C65    C68     1.402   1_554 S
C66    I155    2.159   .     S
C66    C72     1.402   1_556 S
C67    I156    2.162   .     S
C67    C70     1.402   1_554 S
C68    I157    2.159   .     S
C68    C65     1.402   1_556 S
C69    I158    2.162   .     S
C69    C64     1.402   1_554 S
C70    I159    2.159   .     S
C70    C67     1.402   1_556 S
C71    O252    1.378   .     S
C72    I160    2.162   .     S
C72    C66     1.402   1_554 S
C73    O813    1.273   1_545 A
C73    O268    1.273   .     S
C74    O256    1.275   .     A
C74    O770    1.275   1_545 S
C75    O487    1.273   1_455 A
C75    O266    1.273   .     S
C76    O204    1.275   .     A
C76    O551    1.275   1_455 S
C77    O209    1.273   .     A
C77    O205    1.273   .     A
C78    O210    1.275   .     A
C78    O206    1.275   .     A
C79    O207    1.273   .     S
C79    O211    1.273   .     S
C80    O213    1.275   .     A
C80    O208    1.275   .     A
C81    O242    1.277   .     A
C81    O214    1.277   .     A
C82    C134    1.408   .     A
C82    O253    1.384   .     S
C82    C330    1.406   .     A
C83    O243    1.277   .     A
C83    O215    1.277   .     A
C84    O240    1.278   .     A
C84    O216    1.277   .     A
C85    O217    1.278   .     A
C85    O241    1.277   .     A
C86    O247    1.277   .     A
C86    O218    1.277   .     A
C87    O248    1.277   .     A
C87    O219    1.277   .     A
C88    O220    1.277   .     A
C88    O244    1.278   .     A
C89    O246    1.277   .     A
C89    O221    1.278   .     A
C90    O222    1.278   .     A
C90    O233    1.277   .     A
C91    O235    1.278   .     A
C91    O224    1.277   .     A
C92    O231    1.277   .     A
C92    O225    1.277   .     A
C93    O254    1.378   .     S
C93    C135    1.411   .     A
C94    O232    1.277   .     A
C94    O226    1.277   .     A
C95    O238    1.277   .     A
C95    O227    1.278   .     A
C96    O228    1.277   .     A
C96    O239    1.278   .     A
C97    O229    1.277   .     A
C97    O236    1.277   .     A
C98    O230    1.277   .     A
C98    O237    1.277   .     A
C99    C116    1.401   .     A
C99    I161    2.141   .     S
C100   C114    1.401   .     A
C100   I162    2.142   .     S
C101   C113    1.401   .     A
C101   I163    2.146   .     S
C102   C112    1.401   .     A
C102   I165    2.146   .     S
C103   C111    1.401   .     A
C103   I166    2.141   .     S
C104   O255    1.384   .     S
C104   C136    1.408   .     A
C105   C110    1.401   .     A
C105   I167    2.142   .     S
C106   I168    2.146   .     S
C106   C109    1.401   .     A
C107   C108    1.401   .     A
C107   I169    2.146   .     S
C108   I170    2.146   .     S
C109   I171    2.146   .     S
C110   I172    2.142   .     S
C111   I173    2.141   .     S
C112   I174    2.146   .     S
C113   I176    2.146   .     S
C114   I177    2.142   .     S
C115   O257    1.378   .     S
C115   C618    1.406   .     S
C116   I178    2.141   .     S
C117   C133    1.401   .     A
C117   I179    2.141   .     S
C118   I180    2.142   .     S
C118   C132    1.401   .     A
C119   C131    1.401   .     A
C119   I181    2.146   .     S
C120   C130    1.401   .     A
C120   I182    2.145   .     S
C121   C129    1.401   .     A
C121   I183    2.141   .     S
C122   I184    2.142   .     S
C122   C128    1.401   .     A
C123   I185    2.146   .     S
C123   C127    1.401   .     A
C124   I187    2.145   .     S
C124   C125    1.401   .     A
C125   I188    2.146   .     S
C126   O258    1.384   .     S
C127   I189    2.146   .     S
C128   I190    2.142   .     S
C129   I191    2.141   .     S
C130   I192    2.146   .     S
C131   I193    2.146   .     S
C132   I194    2.142   .     S
C133   I195    2.141   .     S
C134   C318    1.421   .     A
H137   O249    0.989   .     S
H138   O259    0.990   .     S
H139   O260    0.989   .     S
H140   O261    0.990   .     S
H141   O262    0.989   .     S
H142   O263    0.990   .     S
H143   O264    0.989   .     S
H144   O265    0.990   .     S
H145   O250    0.990   .     S
H146   O251    0.989   .     S
H147   O252    0.990   .     S
H148   O253    0.989   .     S
H149   O254    0.990   .     S
H150   O255    0.989   .     S
H151   O257    0.990   .     S
H152   O258    0.989   .     S
O201   Zn280   1.943   .     S
O201   Zn269   1.943   .     S
O201   Zn272   1.943   .     S
O201   Zn844   1.943   1_545 S
O202   Zn271   1.952   .     S
O202   C642    1.275   .     S
O203   Zn274   1.952   .     S
O203   C359    1.273   .     A
O204   Zn273   1.952   .     S
O205   Zn283   1.952   .     S
O206   Zn282   1.952   .     S
O207   Zn277   1.952   .     S
O208   Zn269   1.952   .     S
O209   Zn279   1.952   .     S
O210   Zn278   1.952   .     S
O211   Zn281   1.952   .     S
O212   Zn277   1.943   .     S
O212   Zn281   1.943   .     S
O212   Zn275   1.943   .     S
O212   Zn839   1.943   1_545 S
O213   Zn280   1.952   .     S
O214   Zn272   1.928   .     S
O215   Zn271   1.928   .     S
O216   Zn274   1.928   .     S
O217   Zn273   1.928   .     S
O218   Zn276   1.928   .     S
O219   Zn275   1.928   .     S
O220   Zn270   1.928   .     S
O221   Zn284   1.928   .     S
O222   Zn271   1.928   .     S
O223   Zn270   1.943   .     S
O223   Zn558   1.943   1_455 S
O223   Zn278   1.943   .     S
O223   Zn282   1.943   .     S
O224   Zn272   1.928   .     S
O225   Zn284   1.928   .     S
O226   Zn270   1.928   .     S
O227   Zn275   1.928   .     S
O228   Zn276   1.928   .     S
O229   Zn273   1.928   .     S
O230   Zn274   1.928   .     S
O231   Zn563   1.928   .     S
O232   Zn278   1.928   .     S
O233   Zn849   1.928   .     S
O234   Zn279   1.943   .     S
O234   Zn273   1.943   .     S
O234   Zn283   1.943   .     S
O234   Zn568   1.943   1_455 S
O235   Zn280   1.928   .     S
O236   Zn283   1.928   .     S
O237   Zn566   1.928   .     S
O238   Zn277   1.928   .     S
O239   Zn837   1.928   .     S
O240   Zn562   1.928   .     S
O241   Zn279   1.928   .     S
O242   Zn269   1.928   .     S
O243   Zn845   1.928   .     S
O244   Zn282   1.928   .     S
O245   C641    1.273   .     A
O245   Zn276   1.952   .     S
O246   Zn567   1.928   .     S
O247   Zn848   1.928   .     S
O248   Zn281   1.928   .     S
O256   Zn275   1.952   .     S
O266   Zn270   1.952   .     S
O267   Zn284   1.952   .     S
O267   C360    1.275   .     S
O268   Zn272   1.952   .     S
Zn269  O807    1.928   1_545 S
Zn271  O780    1.943   .     S
Zn274  O507    1.943   .     S
Zn276  O769    1.943   .     S
Zn277  O811    1.928   1_545 S
Zn278  O524    1.928   1_455 S
Zn279  O515    1.928   1_455 S
Zn280  O815    1.928   1_545 S
Zn281  O801    1.928   1_545 S
Zn282  O521    1.928   1_455 S
Zn283  O530    1.928   1_455 S
Zn284  O518    1.943   .     S
C285   O533    1.384   .     S
C285   C288    1.408   .     A
C285   C330    1.406   .     S
C286   O543    1.378   .     S
C286   C298    1.411   .     A
C286   C904    1.406   .     S
C287   C399    1.411   .     A
C287   C342    1.424   .     A
C287   C890    1.427   .     S
C288   C343    1.412   .     A
C288   C318    1.421   .     S
C289   C36     1.427   1_655 A
C289   C333    1.411   .     A
C289   C345    1.424   .     A
C290   C344    1.409   .     A
C290   C346    1.413   .     A
C290   C889    1.421   .     S
C291   C355    1.411   .     A
C291   C347    1.424   .     A
C291   C322    1.427   .     A
C292   C319    1.408   .     A
C292   C348    1.412   .     A
C292   C891    1.421   .     S
C293   C327    1.411   .     A
C293   C324    1.427   .     A
C293   C349    1.424   .     A
C294   C325    1.421   .     A
C294   C350    1.413   .     A
C294   C328    1.408   .     A
C295   C351    1.424   .     A
C295   C329    1.411   .     A
C295   C42     1.427   1_655 S
C296   C352    1.412   .     A
C296   C323    1.421   .     A
C296   C410    1.408   .     A
C297   O544    1.384   .     S
C297   C299    1.408   .     A
C297   C53     1.406   1_655 S
C298   C353    1.424   .     A
C298   C892    1.427   .     S
C299   C354    1.413   .     A
C299   C41     1.421   1_655 S
C300   C356    1.424   .     A
C300   C308    1.411   .     A
C300   C326    1.427   .     A
C301   C372    1.448   .     S
C301   C402    1.406   .     A
C301   C400    1.406   .     A
C302   C398    1.406   .     A
C302   C373    1.448   .     S
C302   C401    1.406   .     A
C303   C365    1.449   .     S
C303   C404    1.407   .     A
C303   C397    1.407   .     A
C304   C396    1.407   .     A
C304   C367    1.449   .     S
C304   C403    1.407   .     A
C305   C395    1.406   .     A
C305   C368    1.448   .     S
C305   C406    1.406   .     A
C306   C369    1.448   .     S
C306   C394    1.406   .     A
C306   C405    1.406   .     A
C307   C370    1.449   .     S
C307   C393    1.407   .     A
C307   C408    1.407   .     A
C308   C338    1.406   .     A
C308   O545    1.378   .     S
C309   C371    1.449   .     S
C309   C392    1.407   .     A
C309   C407    1.407   .     A
C310   C391    1.407   .     A
C310   C411    1.407   .     A
C310   C381    1.449   .     S
C311   C382    1.449   .     S
C311   C409    1.407   .     A
C311   C390    1.407   .     A
C312   C389    1.406   .     A
C312   C413    1.406   .     A
C312   C374    1.448   .     S
C313   C387    1.406   .     A
C313   C412    1.406   .     A
C313   C375    1.448   .     S
C314   C415    1.407   .     A
C314   C376    1.449   .     S
C314   C386    1.407   .     A
C315   C385    1.407   .     A
C315   C414    1.407   .     A
C315   C378    1.449   .     S
C316   C417    1.406   .     A
C316   C384    1.406   .     A
C316   C379    1.448   .     S
C317   C383    1.406   .     A
C317   C416    1.406   .     A
C317   C380    1.448   .     S
C318   C320    1.414   .     A
C319   O546    1.384   .     S
C319   C903    1.406   .     S
C320   C419    1.427   .     S
C321   C322    1.414   .     A
C321   C420    1.421   .     A
C321   C858    1.421   1_545 S
C322   C855    1.427   1_545 S
C323   C860    1.421   1_545 S
C323   C324    1.414   1_556 S
C324   C866    1.427   1_545 S
C324   C323    1.414   1_554 S
C325   C326    1.414   1_556 S
C326   C325    1.414   1_554 S
C327   C336    1.406   .     A
C327   O547    1.378   .     S
C328   C337    1.406   .     A
C328   O548    1.384   .     S
C329   O549    1.378   .     S
C329   C54     1.406   1_655 S
C330   C359    1.455   .     S
C331   C360    1.463   .     S
C331   C377    1.406   .     A
C332   C388    1.406   .     A
C332   C912    1.406   1_545 S
C332   C357    1.455   .     S
C333   O534    1.378   .     S
C333   C47     1.406   1_655 S
C334   C355    1.406   .     A
C334   C358    1.463   .     S
C334   C967    1.406   1_545 S
C335   C410    1.406   .     A
C335   C887    1.406   1_545 S
C335   C363    1.455   .     S
C336   C364    1.463   .     S
C336   C854    1.406   1_545 S
C337   C361    1.455   .     S
C338   C362    1.463   .     S
C339   C418    1.412   .     A
C339   C345    1.402   .     A
C339   I437    2.159   .     S
C340   C419    1.424   .     A
C340   I448    2.162   .     S
C340   C343    1.402   .     A
C341   C420    1.413   .     A
C341   C347    1.402   .     A
C341   I459    2.159   .     S
C342   C346    1.402   .     A
C342   I470    2.162   .     S
C343   I480    2.159   .     S
C344   O535    1.384   .     S
C344   C900    1.406   .     S
C345   I481    2.162   .     S
C346   I482    2.159   .     S
C347   I483    2.162   .     S
C348   I484    2.159   .     S
C348   C353    1.402   1_556 S
C349   I438    2.162   .     S
C349   C352    1.402   1_554 S
C350   I439    2.159   .     S
C350   C356    1.402   1_556 S
C351   I440    2.162   .     S
C351   C354    1.402   1_554 S
C352   I441    2.159   .     S
C352   C349    1.402   1_556 S
C353   I442    2.162   .     S
C353   C348    1.402   1_554 S
C354   I443    2.159   .     S
C354   C351    1.402   1_556 S
C355   O536    1.378   .     S
C356   I444    2.162   .     S
C356   C350    1.402   1_554 S
C357   O1097   1.273   1_545 A
C357   O552    1.273   .     S
C358   O540    1.275   .     A
C358   O1054   1.275   1_545 S
C359   O550    1.273   .     S
C360   O488    1.275   .     A
C361   O493    1.273   .     A
C361   O489    1.273   .     A
C362   O494    1.275   .     A
C362   O490    1.275   .     A
C363   O491    1.273   .     S
C363   O495    1.273   .     S
C364   O497    1.275   .     A
C364   O492    1.275   .     A
C365   O526    1.277   .     A
C365   O498    1.277   .     A
C366   C418    1.408   .     A
C366   O537    1.384   .     S
C366   C46     1.406   1_655 A
C367   O527    1.277   .     A
C367   O499    1.277   .     A
C368   O524    1.278   .     A
C368   O500    1.277   .     A
C369   O501    1.278   .     A
C369   O525    1.277   .     A
C370   O531    1.277   .     A
C370   O502    1.277   .     A
C371   O532    1.277   .     A
C371   O503    1.277   .     A
C372   O504    1.277   .     A
C372   O528    1.278   .     A
C373   O530    1.277   .     A
C373   O505    1.278   .     A
C374   O506    1.278   .     A
C374   O517    1.277   .     A
C375   O519    1.278   .     A
C375   O508    1.277   .     A
C376   O515    1.277   .     A
C376   O509    1.277   .     A
C377   O538    1.378   .     S
C377   C419    1.411   .     A
C378   O516    1.277   .     A
C378   O510    1.277   .     A
C379   O522    1.277   .     A
C379   O511    1.278   .     A
C380   O512    1.277   .     A
C380   O523    1.278   .     A
C381   O513    1.277   .     A
C381   O520    1.277   .     A
C382   O514    1.277   .     A
C382   O521    1.277   .     A
C383   C400    1.401   .     A
C383   I445    2.141   .     S
C384   C398    1.401   .     A
C384   I446    2.142   .     S
C385   C397    1.401   .     A
C385   I447    2.146   .     S
C386   C396    1.401   .     A
C386   I449    2.146   .     S
C387   C395    1.401   .     A
C387   I450    2.141   .     S
C388   O539    1.384   .     S
C388   C420    1.408   .     A
C389   C394    1.401   .     A
C389   I451    2.142   .     S
C390   I452    2.146   .     S
C390   C393    1.401   .     A
C391   C392    1.401   .     A
C391   I453    2.146   .     S
C392   I454    2.146   .     S
C393   I455    2.146   .     S
C394   I456    2.142   .     S
C395   I457    2.141   .     S
C396   I458    2.146   .     S
C397   I460    2.146   .     S
C398   I461    2.142   .     S
C399   O541    1.378   .     S
C399   C902    1.406   .     S
C400   I462    2.141   .     S
C401   C417    1.401   .     A
C401   I463    2.141   .     S
C402   I464    2.142   .     S
C402   C416    1.401   .     A
C403   C415    1.401   .     A
C403   I465    2.146   .     S
C404   C414    1.401   .     A
C404   I466    2.145   .     S
C405   C413    1.401   .     A
C405   I467    2.141   .     S
C406   I468    2.142   .     S
C406   C412    1.401   .     A
C407   I469    2.146   .     S
C407   C411    1.401   .     A
C408   I471    2.145   .     S
C408   C409    1.401   .     A
C409   I472    2.146   .     S
C410   O542    1.384   .     S
C411   I473    2.146   .     S
C412   I474    2.142   .     S
C413   I475    2.141   .     S
C414   I476    2.146   .     S
C415   I477    2.146   .     S
C416   I478    2.142   .     S
C417   I479    2.141   .     S
C418   C34     1.421   1_655 A
H421   O533    0.989   .     S
H422   O543    0.990   .     S
H423   O544    0.989   .     S
H424   O545    0.990   .     S
H425   O546    0.989   .     S
H426   O547    0.990   .     S
H427   O548    0.989   .     S
H428   O549    0.990   .     S
H429   O534    0.990   .     S
H430   O535    0.989   .     S
H431   O536    0.990   .     S
H432   O537    0.989   .     S
H433   O538    0.990   .     S
H434   O539    0.989   .     S
H435   O541    0.990   .     S
H436   O542    0.989   .     S
O485   Zn564   1.943   .     S
O485   Zn553   1.943   .     S
O485   Zn556   1.943   .     S
O485   Zn1128  1.943   1_545 S
O486   Zn555   1.952   .     S
O486   C926    1.275   .     S
O487   Zn558   1.952   .     S
O487   C75     1.273   1_655 A
O488   Zn557   1.952   .     S
O489   Zn567   1.952   .     S
O490   Zn566   1.952   .     S
O491   Zn561   1.952   .     S
O492   Zn553   1.952   .     S
O493   Zn563   1.952   .     S
O494   Zn562   1.952   .     S
O495   Zn565   1.952   .     S
O496   Zn561   1.943   .     S
O496   Zn565   1.943   .     S
O496   Zn559   1.943   .     S
O496   Zn1123  1.943   1_545 S
O497   Zn564   1.952   .     S
O498   Zn556   1.928   .     S
O499   Zn555   1.928   .     S
O500   Zn558   1.928   .     S
O501   Zn557   1.928   .     S
O502   Zn560   1.928   .     S
O503   Zn559   1.928   .     S
O504   Zn554   1.928   .     S
O505   Zn568   1.928   .     S
O506   Zn555   1.928   .     S
O507   Zn554   1.943   .     S
O507   Zn562   1.943   .     S
O507   Zn566   1.943   .     S
O508   Zn556   1.928   .     S
O509   Zn568   1.928   .     S
O510   Zn554   1.928   .     S
O511   Zn559   1.928   .     S
O512   Zn560   1.928   .     S
O513   Zn557   1.928   .     S
O514   Zn558   1.928   .     S
O515   Zn279   1.928   1_655 S
O516   Zn562   1.928   .     S
O517   Zn1133  1.928   .     S
O518   Zn563   1.943   .     S
O518   Zn557   1.943   .     S
O518   Zn567   1.943   .     S
O519   Zn564   1.928   .     S
O520   Zn567   1.928   .     S
O521   Zn282   1.928   1_655 S
O522   Zn561   1.928   .     S
O523   Zn1121  1.928   .     S
O524   Zn278   1.928   1_655 S
O525   Zn563   1.928   .     S
O526   Zn553   1.928   .     S
O527   Zn1129  1.928   .     S
O528   Zn566   1.928   .     S
O529   C925    1.273   .     A
O529   Zn560   1.952   .     S
O530   Zn283   1.928   1_655 S
O531   Zn1132  1.928   .     S
O532   Zn565   1.928   .     S
O540   Zn559   1.952   .     S
O550   Zn554   1.952   .     S
O551   Zn568   1.952   .     S
O551   C76     1.275   1_655 S
O552   Zn556   1.952   .     S
Zn553  O1091   1.928   1_545 S
Zn555  O1064   1.943   .     S
Zn558  O223    1.943   1_655 S
Zn560  O1053   1.943   .     S
Zn561  O1095   1.928   1_545 S
Zn564  O1099   1.928   1_545 S
Zn565  O1085   1.928   1_545 S
Zn568  O234    1.943   1_655 S
C569   O817    1.384   .     S
C569   C572    1.408   .     A
C569   C614    1.406   .     S
C570   O827    1.378   .     S
C570   C582    1.411   .     A
C570   C52     1.406   1_565 S
C571   C683    1.411   .     A
C571   C626    1.424   .     A
C571   C38     1.427   1_565 S
C572   C627    1.412   .     A
C572   C602    1.421   .     S
C573   C888    1.427   .     A
C573   C617    1.411   .     A
C573   C629    1.424   .     A
C574   C628    1.409   .     A
C574   C630    1.413   .     A
C574   C37     1.421   1_565 S
C575   C639    1.411   .     A
C575   C631    1.424   .     A
C575   C606    1.427   .     A
C576   C603    1.408   .     A
C576   C632    1.412   .     A
C576   C39     1.421   1_565 S
C577   C611    1.411   .     A
C577   C608    1.427   .     A
C577   C633    1.424   .     A
C578   C609    1.421   .     A
C578   C634    1.413   .     A
C578   C612    1.408   .     A
C579   C635    1.424   .     A
C579   C613    1.411   .     A
C579   C894    1.427   .     S
C580   C636    1.412   .     A
C580   C607    1.421   .     A
C580   C694    1.408   .     A
C581   O828    1.384   .     S
C581   C583    1.408   .     A
C581   C905    1.406   .     S
C582   C637    1.424   .     A
C582   C40     1.427   1_565 S
C583   C638    1.413   .     A
C583   C893    1.421   .     S
C584   C640    1.424   .     A
C584   C592    1.411   .     A
C584   C610    1.427   .     A
C585   C656    1.448   .     S
C585   C686    1.406   .     A
C585   C684    1.406   .     A
C586   C682    1.406   .     A
C586   C657    1.448   .     S
C586   C685    1.406   .     A
C587   C649    1.449   .     S
C587   C688    1.407   .     A
C587   C681    1.407   .     A
C588   C680    1.407   .     A
C588   C651    1.449   .     S
C588   C687    1.407   .     A
C589   C679    1.406   .     A
C589   C652    1.448   .     S
C589   C690    1.406   .     A
C590   C653    1.448   .     S
C590   C678    1.406   .     A
C590   C689    1.406   .     A
C591   C654    1.449   .     S
C591   C677    1.407   .     A
C591   C692    1.407   .     A
C592   C622    1.406   .     A
C592   O829    1.378   .     S
C593   C655    1.449   .     S
C593   C676    1.407   .     A
C593   C691    1.407   .     A
C594   C675    1.407   .     A
C594   C695    1.407   .     A
C594   C665    1.449   .     S
C595   C666    1.449   .     S
C595   C693    1.407   .     A
C595   C674    1.407   .     A
C596   C673    1.406   .     A
C596   C697    1.406   .     A
C596   C658    1.448   .     S
C597   C671    1.406   .     A
C597   C696    1.406   .     A
C597   C659    1.448   .     S
C598   C699    1.407   .     A
C598   C660    1.449   .     S
C598   C670    1.407   .     A
C599   C669    1.407   .     A
C599   C698    1.407   .     A
C599   C662    1.449   .     S
C600   C701    1.406   .     A
C600   C668    1.406   .     A
C600   C663    1.448   .     S
C601   C667    1.406   .     A
C601   C700    1.406   .     A
C601   C664    1.448   .     S
C602   C986    1.421   1_455 A
C602   C604    1.414   .     A
C603   O830    1.384   .     S
C603   C51     1.406   1_565 S
C604   C857    1.427   1_455 A
C604   C703    1.427   .     S
C605   C606    1.414   .     A
C605   C704    1.421   .     A
C607   C608    1.414   1_556 S
C608   C607    1.414   1_554 S
C609   C867    1.421   1_455 S
C609   C610    1.414   1_556 S
C610   C863    1.427   1_455 S
C610   C609    1.414   1_554 S
C611   C620    1.406   .     A
C611   O831    1.378   .     S
C612   C621    1.406   .     A
C612   O832    1.384   .     S
C613   O833    1.378   .     S
C613   C906    1.406   .     S
C614   C643    1.455   .     S
C614   C934    1.406   1_455 A
C615   C644    1.463   .     S
C615   C661    1.406   .     A
C615   C901    1.406   1_455 S
C616   C672    1.406   .     A
C616   C641    1.455   .     S
C617   O818    1.378   .     S
C617   C899    1.406   .     S
C618   C639    1.406   .     A
C618   C642    1.463   .     S
C619   C694    1.406   .     A
C619   C647    1.455   .     S
C620   C648    1.463   .     S
C621   C645    1.455   .     S
C621   C865    1.406   1_455 S
C622   C646    1.463   .     S
C622   C897    1.406   1_455 S
C623   C702    1.412   .     A
C623   C629    1.402   .     A
C623   I721    2.159   .     S
C624   C703    1.424   .     A
C624   I732    2.162   .     S
C624   C627    1.402   .     A
C625   C704    1.413   .     A
C625   C631    1.402   .     A
C625   I743    2.159   .     S
C626   C630    1.402   .     A
C626   I754    2.162   .     S
C627   I764    2.159   .     S
C628   O819    1.384   .     S
C628   C48     1.406   1_565 S
C629   I765    2.162   .     S
C630   I766    2.159   .     S
C631   I767    2.162   .     S
C632   I768    2.159   .     S
C632   C637    1.402   1_556 S
C633   I722    2.162   .     S
C633   C636    1.402   1_554 S
C634   I723    2.159   .     S
C634   C640    1.402   1_556 S
C635   I724    2.162   .     S
C635   C638    1.402   1_554 S
C636   I725    2.159   .     S
C636   C633    1.402   1_556 S
C637   I726    2.162   .     S
C637   C632    1.402   1_554 S
C638   I727    2.159   .     S
C638   C635    1.402   1_556 S
C639   O820    1.378   .     S
C640   I728    2.162   .     S
C640   C634    1.402   1_554 S
C641   O836    1.273   .     S
C642   O824    1.275   .     A
C643   O1055   1.273   1_455 A
C643   O834    1.273   .     S
C644   O772    1.275   .     A
C644   O1119   1.275   1_455 S
C645   O777    1.273   .     A
C645   O773    1.273   .     A
C646   O778    1.275   .     A
C646   O774    1.275   .     A
C647   O775    1.273   .     S
C647   O779    1.273   .     S
C648   O781    1.275   .     A
C648   O776    1.275   .     A
C649   O810    1.277   .     A
C649   O782    1.277   .     A
C650   C702    1.408   .     A
C650   O821    1.384   .     S
C650   C898    1.406   .     A
C651   O811    1.277   .     A
C651   O783    1.277   .     A
C652   O808    1.278   .     A
C652   O784    1.277   .     A
C653   O785    1.278   .     A
C653   O809    1.277   .     A
C654   O815    1.277   .     A
C654   O786    1.277   .     A
C655   O816    1.277   .     A
C655   O787    1.277   .     A
C656   O788    1.277   .     A
C656   O812    1.278   .     A
C657   O814    1.277   .     A
C657   O789    1.278   .     A
C658   O790    1.278   .     A
C658   O801    1.277   .     A
C659   O803    1.278   .     A
C659   O792    1.277   .     A
C660   O799    1.277   .     A
C660   O793    1.277   .     A
C661   O822    1.378   .     S
C661   C703    1.411   .     A
C662   O800    1.277   .     A
C662   O794    1.277   .     A
C663   O806    1.277   .     A
C663   O795    1.278   .     A
C664   O796    1.277   .     A
C664   O807    1.278   .     A
C665   O797    1.277   .     A
C665   O804    1.277   .     A
C666   O798    1.277   .     A
C666   O805    1.277   .     A
C667   C684    1.401   .     A
C667   I729    2.141   .     S
C668   C682    1.401   .     A
C668   I730    2.142   .     S
C669   C681    1.401   .     A
C669   I731    2.146   .     S
C670   C680    1.401   .     A
C670   I733    2.146   .     S
C671   C679    1.401   .     A
C671   I734    2.141   .     S
C672   O823    1.384   .     S
C672   C704    1.408   .     A
C673   C678    1.401   .     A
C673   I735    2.142   .     S
C674   I736    2.146   .     S
C674   C677    1.401   .     A
C675   C676    1.401   .     A
C675   I737    2.146   .     S
C676   I738    2.146   .     S
C677   I739    2.146   .     S
C678   I740    2.142   .     S
C679   I741    2.141   .     S
C680   I742    2.146   .     S
C681   I744    2.146   .     S
C682   I745    2.142   .     S
C683   O825    1.378   .     S
C683   C50     1.406   1_565 S
C684   I746    2.141   .     S
C685   C701    1.401   .     A
C685   I747    2.141   .     S
C686   I748    2.142   .     S
C686   C700    1.401   .     A
C687   C699    1.401   .     A
C687   I749    2.146   .     S
C688   C698    1.401   .     A
C688   I750    2.145   .     S
C689   C697    1.401   .     A
C689   I751    2.141   .     S
C690   I752    2.142   .     S
C690   C696    1.401   .     A
C691   I753    2.146   .     S
C691   C695    1.401   .     A
C692   I755    2.145   .     S
C692   C693    1.401   .     A
C693   I756    2.146   .     S
C694   O826    1.384   .     S
C695   I757    2.146   .     S
C696   I758    2.142   .     S
C697   I759    2.141   .     S
C698   I760    2.146   .     S
C699   I761    2.146   .     S
C700   I762    2.142   .     S
C701   I763    2.141   .     S
C702   C886    1.421   .     A
H705   O817    0.989   .     S
H706   O827    0.990   .     S
H707   O828    0.989   .     S
H708   O829    0.990   .     S
H709   O830    0.989   .     S
H710   O831    0.990   .     S
H711   O832    0.989   .     S
H712   O833    0.990   .     S
H713   O818    0.990   .     S
H714   O819    0.989   .     S
H715   O820    0.990   .     S
H716   O821    0.989   .     S
H717   O822    0.990   .     S
H718   O823    0.989   .     S
H719   O825    0.990   .     S
H720   O826    0.989   .     S
O769   Zn848   1.943   .     S
O769   Zn837   1.943   .     S
O769   Zn840   1.943   .     S
O770   Zn839   1.952   .     S
O770   C74     1.275   1_565 S
O771   Zn842   1.952   .     S
O771   C927    1.273   .     A
O772   Zn841   1.952   .     S
O773   Zn851   1.952   .     S
O774   Zn850   1.952   .     S
O775   Zn845   1.952   .     S
O776   Zn837   1.952   .     S
O777   Zn847   1.952   .     S
O778   Zn846   1.952   .     S
O779   Zn849   1.952   .     S
O780   Zn845   1.943   .     S
O780   Zn849   1.943   .     S
O780   Zn843   1.943   .     S
O781   Zn848   1.952   .     S
O782   Zn840   1.928   .     S
O783   Zn839   1.928   .     S
O784   Zn842   1.928   .     S
O785   Zn841   1.928   .     S
O786   Zn844   1.928   .     S
O787   Zn843   1.928   .     S
O788   Zn838   1.928   .     S
O789   Zn852   1.928   .     S
O790   Zn839   1.928   .     S
O791   Zn838   1.943   .     S
O791   Zn1126  1.943   1_455 S
O791   Zn846   1.943   .     S
O791   Zn850   1.943   .     S
O792   Zn840   1.928   .     S
O793   Zn852   1.928   .     S
O794   Zn838   1.928   .     S
O795   Zn843   1.928   .     S
O796   Zn844   1.928   .     S
O797   Zn841   1.928   .     S
O798   Zn842   1.928   .     S
O799   Zn1131  1.928   .     S
O800   Zn846   1.928   .     S
O801   Zn281   1.928   1_565 S
O802   Zn847   1.943   .     S
O802   Zn841   1.943   .     S
O802   Zn851   1.943   .     S
O802   Zn1136  1.943   1_455 S
O803   Zn848   1.928   .     S
O804   Zn851   1.928   .     S
O805   Zn1134  1.928   .     S
O806   Zn845   1.928   .     S
O807   Zn269   1.928   1_565 S
O808   Zn1130  1.928   .     S
O809   Zn847   1.928   .     S
O810   Zn837   1.928   .     S
O811   Zn277   1.928   1_565 S
O812   Zn850   1.928   .     S
O813   C73     1.273   1_565 A
O813   Zn844   1.952   .     S
O814   Zn1135  1.928   .     S
O815   Zn280   1.928   1_565 S
O816   Zn849   1.928   .     S
O824   Zn843   1.952   .     S
O834   Zn838   1.952   .     S
O835   Zn852   1.952   .     S
O835   C928    1.275   .     S
O836   Zn840   1.952   .     S
Zn839  O212    1.943   1_565 S
Zn842  O1075   1.943   .     S
Zn844  O201    1.943   1_565 S
Zn846  O1092   1.928   1_455 S
Zn847  O1083   1.928   1_455 S
Zn850  O1089   1.928   1_455 S
Zn851  O1098   1.928   1_455 S
Zn852  O1086   1.943   .     S
C853   O1101   1.384   .     S
C853   C856    1.408   .     A
C853   C898    1.406   .     S
C854   O1111   1.378   .     S
C854   C866    1.411   .     A
C854   C336    1.406   1_565 S
C855   C967    1.411   .     A
C855   C910    1.424   .     A
C855   C322    1.427   1_565 S
C856   C911    1.412   .     A
C856   C886    1.421   .     S
C857   C604    1.427   1_655 A
C857   C901    1.411   .     A
C857   C913    1.424   .     A
C858   C912    1.409   .     A
C858   C914    1.413   .     A
C858   C321    1.421   1_565 S
C859   C923    1.411   .     A
C859   C915    1.424   .     A
C859   C890    1.427   .     A
C860   C887    1.408   .     A
C860   C916    1.412   .     A
C860   C323    1.421   1_565 S
C861   C895    1.411   .     A
C861   C892    1.427   .     A
C861   C917    1.424   .     A
C862   C893    1.421   .     A
C862   C918    1.413   .     A
C862   C896    1.408   .     A
C863   C919    1.424   .     A
C863   C897    1.411   .     A
C863   C610    1.427   1_655 S
C864   C920    1.412   .     A
C864   C891    1.421   .     A
C864   C978    1.408   .     A
C865   O1112   1.384   .     S
C865   C867    1.408   .     A
C865   C621    1.406   1_655 S
C866   C921    1.424   .     A
C866   C324    1.427   1_565 S
C867   C922    1.413   .     A
C867   C609    1.421   1_655 S
C868   C924    1.424   .     A
C868   C876    1.411   .     A
C868   C894    1.427   .     A
C869   C940    1.448   .     S
C869   C970    1.406   .     A
C869   C968    1.406   .     A
C870   C966    1.406   .     A
C870   C941    1.448   .     S
C870   C969    1.406   .     A
C871   C933    1.449   .     S
C871   C972    1.407   .     A
C871   C965    1.407   .     A
C872   C964    1.407   .     A
C872   C935    1.449   .     S
C872   C971    1.407   .     A
C873   C963    1.406   .     A
C873   C936    1.448   .     S
C873   C974    1.406   .     A
C874   C937    1.448   .     S
C874   C962    1.406   .     A
C874   C973    1.406   .     A
C875   C938    1.449   .     S
C875   C961    1.407   .     A
C875   C976    1.407   .     A
C876   C906    1.406   .     A
C876   O1113   1.378   .     S
C877   C939    1.449   .     S
C877   C960    1.407   .     A
C877   C975    1.407   .     A
C878   C959    1.407   .     A
C878   C979    1.407   .     A
C878   C949    1.449   .     S
C879   C950    1.449   .     S
C879   C977    1.407   .     A
C879   C958    1.407   .     A
C880   C957    1.406   .     A
C880   C981    1.406   .     A
C880   C942    1.448   .     S
C881   C955    1.406   .     A
C881   C980    1.406   .     A
C881   C943    1.448   .     S
C882   C983    1.407   .     A
C882   C944    1.449   .     S
C882   C954    1.407   .     A
C883   C953    1.407   .     A
C883   C982    1.407   .     A
C883   C946    1.449   .     S
C884   C985    1.406   .     A
C884   C952    1.406   .     A
C884   C947    1.448   .     S
C885   C951    1.406   .     A
C885   C984    1.406   .     A
C885   C948    1.448   .     S
C886   C888    1.414   .     A
C887   O1114   1.384   .     S
C887   C335    1.406   1_565 S
C888   C987    1.427   .     S
C889   C890    1.414   .     A
C889   C988    1.421   .     A
C891   C892    1.414   1_556 S
C892   C891    1.414   1_554 S
C893   C894    1.414   1_556 S
C894   C893    1.414   1_554 S
C895   C904    1.406   .     A
C895   O1115   1.378   .     S
C896   C905    1.406   .     A
C896   O1116   1.384   .     S
C897   O1117   1.378   .     S
C897   C622    1.406   1_655 S
C898   C927    1.455   .     S
C899   C928    1.463   .     S
C899   C945    1.406   .     A
C900   C956    1.406   .     A
C900   C925    1.455   .     S
C901   O1102   1.378   .     S
C901   C615    1.406   1_655 S
C902   C923    1.406   .     A
C902   C926    1.463   .     S
C903   C978    1.406   .     A
C903   C931    1.455   .     S
C904   C932    1.463   .     S
C905   C929    1.455   .     S
C906   C930    1.463   .     S
C907   C986    1.412   .     A
C907   C913    1.402   .     A
C907   I1005   2.159   .     S
C908   C987    1.424   .     A
C908   I1016   2.162   .     S
C908   C911    1.402   .     A
C909   C988    1.413   .     A
C909   C915    1.402   .     A
C909   I1027   2.159   .     S
C910   C914    1.402   .     A
C910   I1038   2.162   .     S
C911   I1048   2.159   .     S
C912   O1103   1.384   .     S
C912   C332    1.406   1_565 S
C913   I1049   2.162   .     S
C914   I1050   2.159   .     S
C915   I1051   2.162   .     S
C916   I1052   2.159   .     S
C916   C921    1.402   1_556 S
C917   I1006   2.162   .     S
C917   C920    1.402   1_554 S
C918   I1007   2.159   .     S
C918   C924    1.402   1_556 S
C919   I1008   2.162   .     S
C919   C922    1.402   1_554 S
C920   I1009   2.159   .     S
C920   C917    1.402   1_556 S
C921   I1010   2.162   .     S
C921   C916    1.402   1_554 S
C922   I1011   2.159   .     S
C922   C919    1.402   1_556 S
C923   O1104   1.378   .     S
C924   I1012   2.162   .     S
C924   C918    1.402   1_554 S
C925   O1120   1.273   .     S
C926   O1108   1.275   .     A
C927   O1118   1.273   .     S
C928   O1056   1.275   .     A
C929   O1061   1.273   .     A
C929   O1057   1.273   .     A
C930   O1062   1.275   .     A
C930   O1058   1.275   .     A
C931   O1059   1.273   .     S
C931   O1063   1.273   .     S
C932   O1065   1.275   .     A
C932   O1060   1.275   .     A
C933   O1094   1.277   .     A
C933   O1066   1.277   .     A
C934   C986    1.408   .     A
C934   O1105   1.384   .     S
C934   C614    1.406   1_655 A
C935   O1095   1.277   .     A
C935   O1067   1.277   .     A
C936   O1092   1.278   .     A
C936   O1068   1.277   .     A
C937   O1069   1.278   .     A
C937   O1093   1.277   .     A
C938   O1099   1.277   .     A
C938   O1070   1.277   .     A
C939   O1100   1.277   .     A
C939   O1071   1.277   .     A
C940   O1072   1.277   .     A
C940   O1096   1.278   .     A
C941   O1098   1.277   .     A
C941   O1073   1.278   .     A
C942   O1074   1.278   .     A
C942   O1085   1.277   .     A
C943   O1087   1.278   .     A
C943   O1076   1.277   .     A
C944   O1083   1.277   .     A
C944   O1077   1.277   .     A
C945   O1106   1.378   .     S
C945   C987    1.411   .     A
C946   O1084   1.277   .     A
C946   O1078   1.277   .     A
C947   O1090   1.277   .     A
C947   O1079   1.278   .     A
C948   O1080   1.277   .     A
C948   O1091   1.278   .     A
C949   O1081   1.277   .     A
C949   O1088   1.277   .     A
C950   O1082   1.277   .     A
C950   O1089   1.277   .     A
C951   C968    1.401   .     A
C951   I1013   2.141   .     S
C952   C966    1.401   .     A
C952   I1014   2.142   .     S
C953   C965    1.401   .     A
C953   I1015   2.146   .     S
C954   C964    1.401   .     A
C954   I1017   2.146   .     S
C955   C963    1.401   .     A
C955   I1018   2.141   .     S
C956   O1107   1.384   .     S
C956   C988    1.408   .     A
C957   C962    1.401   .     A
C957   I1019   2.142   .     S
C958   I1020   2.146   .     S
C958   C961    1.401   .     A
C959   C960    1.401   .     A
C959   I1021   2.146   .     S
C960   I1022   2.146   .     S
C961   I1023   2.146   .     S
C962   I1024   2.142   .     S
C963   I1025   2.141   .     S
C964   I1026   2.146   .     S
C965   I1028   2.146   .     S
C966   I1029   2.142   .     S
C967   O1109   1.378   .     S
C967   C334    1.406   1_565 S
C968   I1030   2.141   .     S
C969   C985    1.401   .     A
C969   I1031   2.141   .     S
C970   I1032   2.142   .     S
C970   C984    1.401   .     A
C971   C983    1.401   .     A
C971   I1033   2.146   .     S
C972   C982    1.401   .     A
C972   I1034   2.145   .     S
C973   C981    1.401   .     A
C973   I1035   2.141   .     S
C974   I1036   2.142   .     S
C974   C980    1.401   .     A
C975   I1037   2.146   .     S
C975   C979    1.401   .     A
C976   I1039   2.145   .     S
C976   C977    1.401   .     A
C977   I1040   2.146   .     S
C978   O1110   1.384   .     S
C979   I1041   2.146   .     S
C980   I1042   2.142   .     S
C981   I1043   2.141   .     S
C982   I1044   2.146   .     S
C983   I1045   2.146   .     S
C984   I1046   2.142   .     S
C985   I1047   2.141   .     S
C986   C602    1.421   1_655 A
H989   O1101   0.989   .     S
H990   O1111   0.990   .     S
H991   O1112   0.989   .     S
H992   O1113   0.990   .     S
H993   O1114   0.989   .     S
H994   O1115   0.990   .     S
H995   O1116   0.989   .     S
H996   O1117   0.990   .     S
H997   O1102   0.990   .     S
H998   O1103   0.989   .     S
H999   O1104   0.990   .     S
H1000  O1105   0.989   .     S
H1001  O1106   0.990   .     S
H1002  O1107   0.989   .     S
H1003  O1109   0.990   .     S
H1004  O1110   0.989   .     S
O1053  Zn1132  1.943   .     S
O1053  Zn1121  1.943   .     S
O1053  Zn1124  1.943   .     S
O1054  Zn1123  1.952   .     S
O1054  C358    1.275   1_565 S
O1055  Zn1126  1.952   .     S
O1055  C643    1.273   1_655 A
O1056  Zn1125  1.952   .     S
O1057  Zn1135  1.952   .     S
O1058  Zn1134  1.952   .     S
O1059  Zn1129  1.952   .     S
O1060  Zn1121  1.952   .     S
O1061  Zn1131  1.952   .     S
O1062  Zn1130  1.952   .     S
O1063  Zn1133  1.952   .     S
O1064  Zn1129  1.943   .     S
O1064  Zn1133  1.943   .     S
O1064  Zn1127  1.943   .     S
O1065  Zn1132  1.952   .     S
O1066  Zn1124  1.928   .     S
O1067  Zn1123  1.928   .     S
O1068  Zn1126  1.928   .     S
O1069  Zn1125  1.928   .     S
O1070  Zn1128  1.928   .     S
O1071  Zn1127  1.928   .     S
O1072  Zn1122  1.928   .     S
O1073  Zn1136  1.928   .     S
O1074  Zn1123  1.928   .     S
O1075  Zn1122  1.943   .     S
O1075  Zn1130  1.943   .     S
O1075  Zn1134  1.943   .     S
O1076  Zn1124  1.928   .     S
O1077  Zn1136  1.928   .     S
O1078  Zn1122  1.928   .     S
O1079  Zn1127  1.928   .     S
O1080  Zn1128  1.928   .     S
O1081  Zn1125  1.928   .     S
O1082  Zn1126  1.928   .     S
O1083  Zn847   1.928   1_655 S
O1084  Zn1130  1.928   .     S
O1085  Zn565   1.928   1_565 S
O1086  Zn1131  1.943   .     S
O1086  Zn1125  1.943   .     S
O1086  Zn1135  1.943   .     S
O1087  Zn1132  1.928   .     S
O1088  Zn1135  1.928   .     S
O1089  Zn850   1.928   1_655 S
O1090  Zn1129  1.928   .     S
O1091  Zn553   1.928   1_565 S
O1092  Zn846   1.928   1_655 S
O1093  Zn1131  1.928   .     S
O1094  Zn1121  1.928   .     S
O1095  Zn561   1.928   1_565 S
O1096  Zn1134  1.928   .     S
O1097  C357    1.273   1_565 A
O1097  Zn1128  1.952   .     S
O1098  Zn851   1.928   1_655 S
O1099  Zn564   1.928   1_565 S
O1100  Zn1133  1.928   .     S
O1108  Zn1127  1.952   .     S
O1118  Zn1122  1.952   .     S
O1119  Zn1136  1.952   .     S
O1119  C644    1.275   1_655 S
O1120  Zn1124  1.952   .     S
Zn1123 O496    1.943   1_565 S
Zn1126 O791    1.943   1_655 S
Zn1128 O485    1.943   1_565 S
Zn1136 O802    1.943   1_655 S
