data_str_m1_o1_o17_pcu_sym.24
_audit_creation_date              2020-01-03
_audit_creation_method            'Materials Studio'
_symmetry_space_group_name_H-M    'P1'
_symmetry_Int_Tables_number       1
_symmetry_cell_setting            triclinic
loop_
_symmetry_equiv_pos_as_xyz
  x,y,z
_cell_length_a                    36.6699
_cell_length_b                    36.6698
_cell_length_c                    34.4514
_cell_angle_alpha                 89.9997
_cell_angle_beta                  90.0885
_cell_angle_gamma                 89.9999
loop_
_atom_site_label
_atom_site_type_symbol
_atom_site_fract_x
_atom_site_fract_y
_atom_site_fract_z
_atom_site_U_iso_or_equiv
_atom_site_adp_type
_atom_site_occupancy
C1     C     0.01194   0.28115   0.41798   0.00000  Uiso   1.00
C2     C     0.26192   0.46865   0.08208   0.00000  Uiso   1.00
C3     C     0.21787   0.48939   0.54099   0.00000  Uiso   1.00
C4     C     0.01385   0.28063   0.45892   0.00000  Uiso   1.00
C5     C     0.48615   0.21937   0.54108   0.00000  Uiso   1.00
C6     C     0.21933   0.48625   0.45884   0.00000  Uiso   1.00
C7     C     0.28067   0.01376   0.54116   0.00000  Uiso   1.00
C8     C     0.26378   0.46933   0.95892   0.00000  Uiso   1.00
C9     C     0.23622   0.03067   0.04108   0.00000  Uiso   1.00
C10    C     0.03213   0.23939   0.95901   0.00000  Uiso   1.00
C11    C     0.46787   0.26061   0.04099   0.00000  Uiso   1.00
C12    C     0.23945   0.03214   0.95894   0.00000  Uiso   1.00
C13    C     0.46881   0.26181   0.91791   0.00000  Uiso   1.00
C14    C     0.26055   0.46786   0.04106   0.00000  Uiso   1.00
C15    C     0.46933   0.26376   0.95884   0.00000  Uiso   1.00
C16    C     0.03067   0.23625   0.04116   0.00000  Uiso   1.00
C17    C     0.09808   0.34818   0.25010   0.00000  Uiso   1.00
C18    C     0.40192   0.15182   0.74990   0.00000  Uiso   1.00
C19    C     0.15192   0.09818   0.24990   0.00000  Uiso   1.00
C20    C     0.34808   0.40182   0.75010   0.00000  Uiso   1.00
C21    C     0.40196   0.15178   0.25014   0.00000  Uiso   1.00
C22    C     0.09804   0.34822   0.74986   0.00000  Uiso   1.00
C23    C     0.34804   0.40178   0.24986   0.00000  Uiso   1.00
C24    C     0.03119   0.23819   0.08209   0.00000  Uiso   1.00
C25    C     0.15196   0.09822   0.75014   0.00000  Uiso   1.00
C26    C     0.09821   0.15195   0.75015   0.00000  Uiso   1.00
C27    C     0.40179   0.34805   0.24985   0.00000  Uiso   1.00
C28    C     0.15179   0.40195   0.74985   0.00000  Uiso   1.00
C29    C     0.34821   0.09805   0.25015   0.00000  Uiso   1.00
C30    C     0.40181   0.34807   0.75009   0.00000  Uiso   1.00
C31    C     0.09819   0.15193   0.24991   0.00000  Uiso   1.00
C32    C     0.34819   0.09807   0.74991   0.00000  Uiso   1.00
C33    C     0.15181   0.40193   0.25009   0.00000  Uiso   1.00
C34    C     0.00050   0.24974   0.47941   0.00000  Uiso   1.00
C35    C     0.26187   0.46882   0.91798   0.00000  Uiso   1.00
C36    C     0.49950   0.25026   0.52059   0.00000  Uiso   1.00
C37    C     0.25025   0.49952   0.47941   0.00000  Uiso   1.00
C38    C     0.24975   0.00048   0.52059   0.00000  Uiso   1.00
C39    C     0.25050   0.00026   0.97941   0.00000  Uiso   1.00
C40    C     0.24950   0.49974   0.02059   0.00000  Uiso   1.00
C41    C     0.00025   0.25048   0.97941   0.00000  Uiso   1.00
C42    C     0.49975   0.24952   0.02059   0.00000  Uiso   1.00
C43    C     0.01345   0.31626   0.39631   0.00000  Uiso   1.00
C44    C     0.48655   0.18374   0.60369   0.00000  Uiso   1.00
C45    C     0.18369   0.48677   0.39618   0.00000  Uiso   1.00
C46    C     0.23813   0.03118   0.08202   0.00000  Uiso   1.00
C47    C     0.31631   0.01324   0.60382   0.00000  Uiso   1.00
C48    C     0.46784   0.19043   0.39555   0.00000  Uiso   1.00
C49    C     0.03216   0.30957   0.60444   0.00000  Uiso   1.00
C50    C     0.30959   0.03216   0.39572   0.00000  Uiso   1.00
C51    C     0.19041   0.46784   0.60428   0.00000  Uiso   1.00
C52    C     0.21796   0.05964   0.89556   0.00000  Uiso   1.00
C53    C     0.28204   0.44036   0.10444   0.00000  Uiso   1.00
C54    C     0.43369   0.26324   0.89618   0.00000  Uiso   1.00
C55    C     0.06631   0.23677   0.10382   0.00000  Uiso   1.00
C56    C     0.26332   0.43371   0.89630   0.00000  Uiso   1.00
C57    C     0.03132   0.23799   0.91799   0.00000  Uiso   1.00
C58    C     0.23668   0.06629   0.10370   0.00000  Uiso   1.00
C59    C     0.05959   0.21784   0.89572   0.00000  Uiso   1.00
C60    C     0.44041   0.28216   0.10428   0.00000  Uiso   1.00
C61    C     0.46868   0.26201   0.08201   0.00000  Uiso   1.00
C62    C     0.00062   0.24969   0.39800   0.00000  Uiso   1.00
C63    C     0.49938   0.25031   0.60200   0.00000  Uiso   1.00
C64    C     0.25029   0.49946   0.39800   0.00000  Uiso   1.00
C65    C     0.48806   0.21885   0.58202   0.00000  Uiso   1.00
C66    C     0.24971   0.00054   0.60200   0.00000  Uiso   1.00
C67    C     0.25062   0.00031   0.89800   0.00000  Uiso   1.00
C68    C     0.24938   0.49969   0.10200   0.00000  Uiso   1.00
C69    C     0.00029   0.25054   0.89800   0.00000  Uiso   1.00
C70    C     0.49971   0.24946   0.10200   0.00000  Uiso   1.00
C71    C     0.47924   0.18650   0.48032   0.00000  Uiso   1.00
C72    C     0.02076   0.31350   0.51968   0.00000  Uiso   1.00
C73    C     0.31354   0.02067   0.48046   0.00000  Uiso   1.00
C74    C     0.18647   0.47933   0.51954   0.00000  Uiso   1.00
C75    C     0.02784   0.31057   0.48012   0.00000  Uiso   1.00
C76    C     0.21881   0.48819   0.41791   0.00000  Uiso   1.00
C77    C     0.47216   0.18943   0.51988   0.00000  Uiso   1.00
C78    C     0.18937   0.47229   0.47997   0.00000  Uiso   1.00
C79    C     0.31063   0.02771   0.52003   0.00000  Uiso   1.00
C80    C     0.27769   0.43936   0.98013   0.00000  Uiso   1.00
C81    C     0.22231   0.06064   0.01987   0.00000  Uiso   1.00
C82    C     0.06353   0.22933   0.98046   0.00000  Uiso   1.00
C83    C     0.43647   0.27067   0.01954   0.00000  Uiso   1.00
C84    C     0.22939   0.06355   0.98032   0.00000  Uiso   1.00
C85    C     0.27061   0.43645   0.01968   0.00000  Uiso   1.00
C86    C     0.43937   0.27771   0.97997   0.00000  Uiso   1.00
C87    C     0.28119   0.01181   0.58209   0.00000  Uiso   1.00
C88    C     0.06063   0.22229   0.02003   0.00000  Uiso   1.00
C89    C     0.24994   0.49995   0.35568   0.00000  Uiso   1.00
C90    C     0.25006   0.00005   0.64432   0.00000  Uiso   1.00
C91    C     0.00007   0.25006   0.35568   0.00000  Uiso   1.00
C92    C     0.49993   0.24994   0.64432   0.00000  Uiso   1.00
C93    C     0.49994   0.25005   0.85568   0.00000  Uiso   1.00
C94    C     0.00006   0.24995   0.14432   0.00000  Uiso   1.00
C95    C     0.25007   0.49994   0.85568   0.00000  Uiso   1.00
C96    C     0.24993   0.00006   0.14432   0.00000  Uiso   1.00
C97    C     0.17995   0.07008   0.24997   0.00000  Uiso   1.00
C98    C     0.48801   0.21868   0.41792   0.00000  Uiso   1.00
C99    C     0.32005   0.42992   0.75003   0.00000  Uiso   1.00
C100   C     0.42997   0.17991   0.25003   0.00000  Uiso   1.00
C101   C     0.07003   0.32009   0.74996   0.00000  Uiso   1.00
C102   C     0.32003   0.42991   0.24996   0.00000  Uiso   1.00
C103   C     0.17997   0.07009   0.75003   0.00000  Uiso   1.00
C104   C     0.07005   0.32008   0.25003   0.00000  Uiso   1.00
C105   C     0.42995   0.17992   0.74997   0.00000  Uiso   1.00
C106   C     0.17992   0.42996   0.74995   0.00000  Uiso   1.00
C107   C     0.32008   0.07004   0.25004   0.00000  Uiso   1.00
C108   C     0.42991   0.32004   0.75002   0.00000  Uiso   1.00
C109   C     0.01199   0.28133   0.58208   0.00000  Uiso   1.00
C110   C     0.07009   0.17996   0.24998   0.00000  Uiso   1.00
C111   C     0.32009   0.07004   0.74998   0.00000  Uiso   1.00
C112   C     0.17991   0.42996   0.25002   0.00000  Uiso   1.00
C113   C     0.07008   0.17996   0.75004   0.00000  Uiso   1.00
C114   C     0.42992   0.32004   0.24995   0.00000  Uiso   1.00
C115   C     0.12224   0.40445   0.22440   0.00000  Uiso   1.00
C116   C     0.37776   0.09555   0.77560   0.00000  Uiso   1.00
C117   C     0.09566   0.12243   0.22416   0.00000  Uiso   1.00
C118   C     0.40434   0.37757   0.77584   0.00000  Uiso   1.00
C119   C     0.37741   0.09582   0.22404   0.00000  Uiso   1.00
C120   C     0.28132   0.01201   0.41799   0.00000  Uiso   1.00
C121   C     0.12259   0.40418   0.77596   0.00000  Uiso   1.00
C122   C     0.40392   0.37723   0.22366   0.00000  Uiso   1.00
C123   C     0.09608   0.12277   0.77634   0.00000  Uiso   1.00
C124   C     0.12282   0.09605   0.77633   0.00000  Uiso   1.00
C125   C     0.37718   0.40395   0.22367   0.00000  Uiso   1.00
C126   C     0.09586   0.37745   0.77596   0.00000  Uiso   1.00
C127   C     0.40414   0.12254   0.22403   0.00000  Uiso   1.00
C128   C     0.37761   0.40430   0.77584   0.00000  Uiso   1.00
C129   C     0.12239   0.09570   0.22416   0.00000  Uiso   1.00
C130   C     0.40448   0.12229   0.77560   0.00000  Uiso   1.00
C131   C     0.21868   0.48799   0.58201   0.00000  Uiso   1.00
C132   C     0.09552   0.37771   0.22440   0.00000  Uiso   1.00
C133   C     0.37239   0.15430   0.72415   0.00000  Uiso   1.00
C134   C     0.12761   0.34570   0.27585   0.00000  Uiso   1.00
C135   C     0.34552   0.37229   0.72440   0.00000  Uiso   1.00
C136   C     0.15448   0.12771   0.27560   0.00000  Uiso   1.00
C137   C     0.12717   0.34605   0.72366   0.00000  Uiso   1.00
C138   C     0.37283   0.15395   0.27634   0.00000  Uiso   1.00
C139   C     0.15414   0.12746   0.72404   0.00000  Uiso   1.00
C140   C     0.34586   0.37254   0.27596   0.00000  Uiso   1.00
C141   C     0.37259   0.34582   0.27596   0.00000  Uiso   1.00
C142   C     0.23808   0.03135   0.91792   0.00000  Uiso   1.00
C143   C     0.12741   0.15418   0.72404   0.00000  Uiso   1.00
C144   C     0.34608   0.12722   0.27634   0.00000  Uiso   1.00
C145   C     0.15392   0.37278   0.72366   0.00000  Uiso   1.00
C146   C     0.12776   0.15445   0.27560   0.00000  Uiso   1.00
C147   C     0.37224   0.34555   0.72440   0.00000  Uiso   1.00
C148   C     0.15434   0.37243   0.27584   0.00000  Uiso   1.00
C149   C     0.34566   0.12756   0.72416   0.00000  Uiso   1.00
C150   C     0.48938   0.21788   0.45894   0.00000  Uiso   1.00
C151   C     0.01062   0.28212   0.54106   0.00000  Uiso   1.00
C152   C     0.28213   0.01061   0.45901   0.00000  Uiso   1.00
H153   H     0.11974   0.42700   0.20426   0.00000  Uiso   1.00
H154   H     0.37934   0.42624   0.20316   0.00000  Uiso   1.00
H155   H     0.07359   0.37967   0.79645   0.00000  Uiso   1.00
H156   H     0.42641   0.12033   0.20355   0.00000  Uiso   1.00
H157   H     0.38010   0.42685   0.79599   0.00000  Uiso   1.00
H158   H     0.11990   0.07315   0.20401   0.00000  Uiso   1.00
H159   H     0.42706   0.11983   0.79574   0.00000  Uiso   1.00
H160   H     0.07294   0.38017   0.20426   0.00000  Uiso   1.00
H161   H     0.36990   0.17685   0.70401   0.00000  Uiso   1.00
H162   H     0.13010   0.32315   0.29599   0.00000  Uiso   1.00
H163   H     0.32294   0.36983   0.70427   0.00000  Uiso   1.00
H164   H     0.38026   0.07300   0.79574   0.00000  Uiso   1.00
H165   H     0.17706   0.13017   0.29573   0.00000  Uiso   1.00
H166   H     0.12933   0.32376   0.70316   0.00000  Uiso   1.00
H167   H     0.37067   0.17624   0.29684   0.00000  Uiso   1.00
H168   H     0.17642   0.12968   0.70356   0.00000  Uiso   1.00
H169   H     0.32359   0.37032   0.29644   0.00000  Uiso   1.00
H170   H     0.37041   0.32352   0.29644   0.00000  Uiso   1.00
H171   H     0.12959   0.17648   0.70356   0.00000  Uiso   1.00
H172   H     0.32383   0.12942   0.29684   0.00000  Uiso   1.00
H173   H     0.17617   0.37058   0.70316   0.00000  Uiso   1.00
H174   H     0.13026   0.17700   0.29574   0.00000  Uiso   1.00
H175   H     0.07309   0.11998   0.20402   0.00000  Uiso   1.00
H176   H     0.36974   0.32300   0.70426   0.00000  Uiso   1.00
H177   H     0.17691   0.36998   0.29599   0.00000  Uiso   1.00
H178   H     0.32309   0.13002   0.70401   0.00000  Uiso   1.00
H179   H     0.49435   0.36761   0.39101   0.00000  Uiso   1.00
H180   H     0.00565   0.13239   0.60899   0.00000  Uiso   1.00
H181   H     0.13238   0.00597   0.39086   0.00000  Uiso   1.00
H182   H     0.36762   0.49404   0.60914   0.00000  Uiso   1.00
H183   H     0.42057   0.16332   0.38756   0.00000  Uiso   1.00
H184   H     0.07943   0.33668   0.61244   0.00000  Uiso   1.00
H185   H     0.33677   0.07940   0.38789   0.00000  Uiso   1.00
H186   H     0.42691   0.38002   0.79598   0.00000  Uiso   1.00
H187   H     0.16323   0.42060   0.61210   0.00000  Uiso   1.00
H188   H     0.17074   0.08685   0.88759   0.00000  Uiso   1.00
H189   H     0.32926   0.41315   0.11241   0.00000  Uiso   1.00
H190   H     0.38238   0.24404   0.89086   0.00000  Uiso   1.00
H191   H     0.11763   0.25596   0.10914   0.00000  Uiso   1.00
H192   H     0.24412   0.38240   0.89098   0.00000  Uiso   1.00
H193   H     0.25588   0.11760   0.10902   0.00000  Uiso   1.00
H194   H     0.08677   0.17060   0.88789   0.00000  Uiso   1.00
H195   H     0.41323   0.32940   0.11211   0.00000  Uiso   1.00
H196   H     0.37959   0.07352   0.20356   0.00000  Uiso   1.00
H197   H     0.12041   0.42648   0.79644   0.00000  Uiso   1.00
H198   H     0.42617   0.37942   0.20316   0.00000  Uiso   1.00
H199   H     0.07383   0.12058   0.79684   0.00000  Uiso   1.00
H200   H     0.12066   0.07376   0.79683   0.00000  Uiso   1.00
I201   I     0.48554   0.13166   0.45906   0.00000  Uiso   1.00
I202   I     0.18082   0.09649   0.04206   0.00000  Uiso   1.00
I203   I     0.11835   0.23570   0.95925   0.00000  Uiso   1.00
I204   I     0.38165   0.26430   0.04075   0.00000  Uiso   1.00
I205   I     0.23583   0.11836   0.95905   0.00000  Uiso   1.00
I206   I     0.26417   0.38164   0.04095   0.00000  Uiso   1.00
I207   I     0.40355   0.31919   0.95761   0.00000  Uiso   1.00
I208   I     0.09646   0.18081   0.04239   0.00000  Uiso   1.00
I209   I     0.01446   0.36834   0.54094   0.00000  Uiso   1.00
I210   I     0.36835   0.01429   0.45925   0.00000  Uiso   1.00
I211   I     0.13165   0.48571   0.54075   0.00000  Uiso   1.00
I212   I     0.06941   0.34631   0.45793   0.00000  Uiso   1.00
I213   I     0.43059   0.15369   0.54207   0.00000  Uiso   1.00
I214   I     0.15354   0.43081   0.45761   0.00000  Uiso   1.00
I215   I     0.34646   0.06919   0.54239   0.00000  Uiso   1.00
I216   I     0.31918   0.40351   0.95794   0.00000  Uiso   1.00
O217   O     0.25000  -0.00000   0.25000   0.00000  Uiso   1.00
O218   O     0.25000   0.46963   0.66245   0.00000  Uiso   1.00
O219   O     0.46964   0.25000   0.33755   0.00000  Uiso   1.00
O220   O     0.03037   0.25000   0.66245   0.00000  Uiso   1.00
O221   O     0.00000   0.21963   0.83755   0.00000  Uiso   1.00
O222   O     0.00000   0.28037   0.16245   0.00000  Uiso   1.00
O223   O     0.28037  -0.00000   0.83755   0.00000  Uiso   1.00
O224   O     0.21964  -0.00000   0.16245   0.00000  Uiso   1.00
O225   O     0.00000   0.28036   0.83755   0.00000  Uiso   1.00
O226   O     0.00000   0.21963   0.16245   0.00000  Uiso   1.00
O227   O     0.21964  -0.00000   0.83755   0.00000  Uiso   1.00
O228   O     0.25000  -0.00000   0.75000   0.00000  Uiso   1.00
O229   O     0.28037  -0.00000   0.16245   0.00000  Uiso   1.00
O230   O     0.20725   0.07307   0.27302   0.00000  Uiso   1.00
O231   O     0.29276   0.42692   0.72698   0.00000  Uiso   1.00
O232   O     0.42693   0.20724   0.27302   0.00000  Uiso   1.00
O233   O     0.07308   0.29275   0.72698   0.00000  Uiso   1.00
O234   O     0.29276   0.42692   0.27302   0.00000  Uiso   1.00
O235   O     0.20725   0.07307   0.72698   0.00000  Uiso   1.00
O236   O     0.07308   0.29275   0.27302   0.00000  Uiso   1.00
O237   O     0.42693   0.20724   0.72698   0.00000  Uiso   1.00
O238   O     0.20725   0.42692   0.72698   0.00000  Uiso   1.00
O239   O     0.00000   0.25000   0.25000   0.00000  Uiso   1.00
O240   O     0.29276   0.07307   0.27302   0.00000  Uiso   1.00
O241   O     0.42693   0.29275   0.72698   0.00000  Uiso   1.00
O242   O     0.07308   0.20724   0.27302   0.00000  Uiso   1.00
O243   O     0.29276   0.07307   0.72698   0.00000  Uiso   1.00
O244   O     0.20725   0.42692   0.27302   0.00000  Uiso   1.00
O245   O     0.07308   0.20724   0.72698   0.00000  Uiso   1.00
O246   O     0.42693   0.29275   0.27302   0.00000  Uiso   1.00
O247   O     0.45725   0.32307   0.77302   0.00000  Uiso   1.00
O248   O     0.04276   0.17692   0.22698   0.00000  Uiso   1.00
O249   O     0.17693   0.45724   0.77302   0.00000  Uiso   1.00
O250   O     0.00000   0.25000   0.75000   0.00000  Uiso   1.00
O251   O     0.32308   0.04275   0.22698   0.00000  Uiso   1.00
O252   O     0.04276   0.17692   0.77302   0.00000  Uiso   1.00
O253   O     0.45725   0.32307   0.22698   0.00000  Uiso   1.00
O254   O     0.32308   0.04275   0.77302   0.00000  Uiso   1.00
O255   O     0.17693   0.45724   0.22698   0.00000  Uiso   1.00
O256   O     0.45725   0.17692   0.22698   0.00000  Uiso   1.00
O257   O     0.04276   0.32307   0.77302   0.00000  Uiso   1.00
O258   O     0.17693   0.04275   0.22698   0.00000  Uiso   1.00
O259   O     0.32308   0.45724   0.77302   0.00000  Uiso   1.00
O260   O     0.04276   0.32307   0.22698   0.00000  Uiso   1.00
O261   O     0.25000   0.46963   0.33755   0.00000  Uiso   1.00
O262   O     0.45725   0.17692   0.77302   0.00000  Uiso   1.00
O263   O     0.32308   0.45724   0.22698   0.00000  Uiso   1.00
O264   O     0.17693   0.04275   0.77302   0.00000  Uiso   1.00
O265   O     0.03411   0.31994   0.36874   0.00000  Uiso   1.00
O266   O     0.49098   0.34513   0.40775   0.00000  Uiso   1.00
O267   O     0.46589   0.18005   0.63125   0.00000  Uiso   1.00
O268   O     0.00902   0.15487   0.59225   0.00000  Uiso   1.00
O269   O     0.17997   0.46615   0.36855   0.00000  Uiso   1.00
O270   O     0.15487   0.00928   0.40764   0.00000  Uiso   1.00
O271   O     0.32003   0.03386   0.63145   0.00000  Uiso   1.00
O272   O     0.25000   0.03036   0.66245   0.00000  Uiso   1.00
O273   O     0.34513   0.49073   0.59236   0.00000  Uiso   1.00
O274   O     0.48273   0.17436   0.36878   0.00000  Uiso   1.00
O275   O     0.43155   0.18278   0.40491   0.00000  Uiso   1.00
O276   O     0.01727   0.32564   0.63122   0.00000  Uiso   1.00
O277   O     0.06845   0.31722   0.59508   0.00000  Uiso   1.00
O278   O     0.32563   0.01728   0.36892   0.00000  Uiso   1.00
O279   O     0.31730   0.06843   0.40519   0.00000  Uiso   1.00
O280   O     0.17438   0.48272   0.63108   0.00000  Uiso   1.00
O281   O     0.18270   0.43157   0.59481   0.00000  Uiso   1.00
O282   O     0.23286   0.07566   0.86877   0.00000  Uiso   1.00
O283   O     0.03037   0.25000   0.33755   0.00000  Uiso   1.00
O284   O     0.18169   0.06737   0.90494   0.00000  Uiso   1.00
O285   O     0.26714   0.42434   0.13123   0.00000  Uiso   1.00
O286   O     0.31831   0.43263   0.09506   0.00000  Uiso   1.00
O287   O     0.42997   0.28385   0.86854   0.00000  Uiso   1.00
O288   O     0.40487   0.24073   0.90764   0.00000  Uiso   1.00
O289   O     0.07003   0.21615   0.13146   0.00000  Uiso   1.00
O290   O     0.09513   0.25927   0.09236   0.00000  Uiso   1.00
O291   O     0.28398   0.43000   0.86874   0.00000  Uiso   1.00
O292   O     0.24079   0.40489   0.90773   0.00000  Uiso   1.00
O293   O     0.21602   0.07000   0.13126   0.00000  Uiso   1.00
O294   O     0.46964   0.25000   0.66245   0.00000  Uiso   1.00
O295   O     0.25921   0.09511   0.09227   0.00000  Uiso   1.00
O296   O     0.07562   0.23272   0.86892   0.00000  Uiso   1.00
O297   O     0.06730   0.18157   0.90519   0.00000  Uiso   1.00
O298   O     0.42437   0.26728   0.13108   0.00000  Uiso   1.00
O299   O     0.43270   0.31843   0.09481   0.00000  Uiso   1.00
O300   O     0.25000   0.03036   0.33755   0.00000  Uiso   1.00
Zn301  Zn    0.20660  -0.00000   0.21735   0.00000  Uiso   1.00
Zn302  Zn    0.04341   0.25000   0.28265   0.00000  Uiso   1.00
Zn303  Zn    0.25000   0.45659   0.71735   0.00000  Uiso   1.00
Zn304  Zn    0.25000   0.04340   0.28265   0.00000  Uiso   1.00
Zn305  Zn    0.04341   0.25000   0.71735   0.00000  Uiso   1.00
Zn306  Zn    0.45660   0.25000   0.28265   0.00000  Uiso   1.00
Zn307  Zn    0.25000   0.04340   0.71735   0.00000  Uiso   1.00
Zn308  Zn    0.25000   0.45659   0.28265   0.00000  Uiso   1.00
Zn309  Zn    0.29341  -0.00000   0.78265   0.00000  Uiso   1.00
Zn310  Zn    0.00000   0.20659   0.21735   0.00000  Uiso   1.00
Zn311  Zn    0.00000   0.29341   0.78265   0.00000  Uiso   1.00
Zn312  Zn    0.29341  -0.00000   0.21735   0.00000  Uiso   1.00
Zn313  Zn    0.20660  -0.00000   0.78265   0.00000  Uiso   1.00
Zn314  Zn    0.00000   0.29341   0.21735   0.00000  Uiso   1.00
Zn315  Zn    0.00000   0.20659   0.78265   0.00000  Uiso   1.00
Zn316  Zn    0.45660   0.25000   0.71735   0.00000  Uiso   1.00
C317   C     0.51194   0.28115   0.41798   0.00000  Uiso   1.00
C318   C     0.76192   0.46865   0.08208   0.00000  Uiso   1.00
C319   C     0.71787   0.48939   0.54099   0.00000  Uiso   1.00
C320   C     0.51385   0.28063   0.45892   0.00000  Uiso   1.00
C321   C     0.98615   0.21937   0.54108   0.00000  Uiso   1.00
C322   C     0.71933   0.48625   0.45884   0.00000  Uiso   1.00
C323   C     0.78067   0.01376   0.54116   0.00000  Uiso   1.00
C324   C     0.76378   0.46933   0.95892   0.00000  Uiso   1.00
C325   C     0.73622   0.03067   0.04108   0.00000  Uiso   1.00
C326   C     0.53213   0.23939   0.95901   0.00000  Uiso   1.00
C327   C     0.96787   0.26061   0.04099   0.00000  Uiso   1.00
C328   C     0.73945   0.03214   0.95894   0.00000  Uiso   1.00
C329   C     0.96881   0.26181   0.91791   0.00000  Uiso   1.00
C330   C     0.76055   0.46786   0.04106   0.00000  Uiso   1.00
C331   C     0.96933   0.26376   0.95884   0.00000  Uiso   1.00
C332   C     0.53067   0.23625   0.04116   0.00000  Uiso   1.00
C333   C     0.59808   0.34818   0.25010   0.00000  Uiso   1.00
C334   C     0.90192   0.15182   0.74990   0.00000  Uiso   1.00
C335   C     0.65192   0.09818   0.24990   0.00000  Uiso   1.00
C336   C     0.84808   0.40182   0.75010   0.00000  Uiso   1.00
C337   C     0.90196   0.15178   0.25014   0.00000  Uiso   1.00
C338   C     0.59804   0.34822   0.74986   0.00000  Uiso   1.00
C339   C     0.84804   0.40178   0.24986   0.00000  Uiso   1.00
C340   C     0.53119   0.23819   0.08209   0.00000  Uiso   1.00
C341   C     0.65196   0.09822   0.75014   0.00000  Uiso   1.00
C342   C     0.59821   0.15195   0.75015   0.00000  Uiso   1.00
C343   C     0.90179   0.34805   0.24985   0.00000  Uiso   1.00
C344   C     0.65179   0.40195   0.74985   0.00000  Uiso   1.00
C345   C     0.84821   0.09805   0.25015   0.00000  Uiso   1.00
C346   C     0.90181   0.34807   0.75009   0.00000  Uiso   1.00
C347   C     0.59819   0.15193   0.24991   0.00000  Uiso   1.00
C348   C     0.84819   0.09807   0.74991   0.00000  Uiso   1.00
C349   C     0.65181   0.40193   0.25009   0.00000  Uiso   1.00
C350   C     0.50050   0.24974   0.47941   0.00000  Uiso   1.00
C351   C     0.76187   0.46882   0.91798   0.00000  Uiso   1.00
C352   C     0.99950   0.25026   0.52059   0.00000  Uiso   1.00
C353   C     0.75025   0.49952   0.47941   0.00000  Uiso   1.00
C354   C     0.74975   0.00048   0.52059   0.00000  Uiso   1.00
C355   C     0.75050   0.00026   0.97941   0.00000  Uiso   1.00
C356   C     0.74950   0.49974   0.02059   0.00000  Uiso   1.00
C357   C     0.50025   0.25048   0.97941   0.00000  Uiso   1.00
C358   C     0.99975   0.24952   0.02059   0.00000  Uiso   1.00
C359   C     0.51345   0.31626   0.39631   0.00000  Uiso   1.00
C360   C     0.98655   0.18374   0.60369   0.00000  Uiso   1.00
C361   C     0.68369   0.48677   0.39618   0.00000  Uiso   1.00
C362   C     0.73813   0.03118   0.08202   0.00000  Uiso   1.00
C363   C     0.81631   0.01324   0.60382   0.00000  Uiso   1.00
C364   C     0.96784   0.19043   0.39555   0.00000  Uiso   1.00
C365   C     0.53216   0.30957   0.60444   0.00000  Uiso   1.00
C366   C     0.80959   0.03216   0.39572   0.00000  Uiso   1.00
C367   C     0.69041   0.46784   0.60428   0.00000  Uiso   1.00
C368   C     0.71796   0.05964   0.89556   0.00000  Uiso   1.00
C369   C     0.78204   0.44036   0.10444   0.00000  Uiso   1.00
C370   C     0.93369   0.26324   0.89618   0.00000  Uiso   1.00
C371   C     0.56631   0.23677   0.10382   0.00000  Uiso   1.00
C372   C     0.76332   0.43371   0.89630   0.00000  Uiso   1.00
C373   C     0.53132   0.23799   0.91799   0.00000  Uiso   1.00
C374   C     0.73668   0.06629   0.10370   0.00000  Uiso   1.00
C375   C     0.55959   0.21784   0.89572   0.00000  Uiso   1.00
C376   C     0.94041   0.28216   0.10428   0.00000  Uiso   1.00
C377   C     0.96868   0.26201   0.08201   0.00000  Uiso   1.00
C378   C     0.50062   0.24969   0.39800   0.00000  Uiso   1.00
C379   C     0.99938   0.25031   0.60200   0.00000  Uiso   1.00
C380   C     0.75029   0.49946   0.39800   0.00000  Uiso   1.00
C381   C     0.98806   0.21885   0.58202   0.00000  Uiso   1.00
C382   C     0.74971   0.00054   0.60200   0.00000  Uiso   1.00
C383   C     0.75062   0.00031   0.89800   0.00000  Uiso   1.00
C384   C     0.74938   0.49969   0.10200   0.00000  Uiso   1.00
C385   C     0.50029   0.25054   0.89800   0.00000  Uiso   1.00
C386   C     0.99971   0.24946   0.10200   0.00000  Uiso   1.00
C387   C     0.97924   0.18650   0.48032   0.00000  Uiso   1.00
C388   C     0.52076   0.31350   0.51968   0.00000  Uiso   1.00
C389   C     0.81354   0.02067   0.48046   0.00000  Uiso   1.00
C390   C     0.68647   0.47933   0.51954   0.00000  Uiso   1.00
C391   C     0.52784   0.31057   0.48012   0.00000  Uiso   1.00
C392   C     0.71881   0.48819   0.41791   0.00000  Uiso   1.00
C393   C     0.97216   0.18943   0.51988   0.00000  Uiso   1.00
C394   C     0.68937   0.47229   0.47997   0.00000  Uiso   1.00
C395   C     0.81063   0.02771   0.52003   0.00000  Uiso   1.00
C396   C     0.77769   0.43936   0.98013   0.00000  Uiso   1.00
C397   C     0.72231   0.06064   0.01987   0.00000  Uiso   1.00
C398   C     0.56353   0.22933   0.98046   0.00000  Uiso   1.00
C399   C     0.93647   0.27067   0.01954   0.00000  Uiso   1.00
C400   C     0.72939   0.06355   0.98032   0.00000  Uiso   1.00
C401   C     0.77061   0.43645   0.01968   0.00000  Uiso   1.00
C402   C     0.93937   0.27771   0.97997   0.00000  Uiso   1.00
C403   C     0.78119   0.01181   0.58209   0.00000  Uiso   1.00
C404   C     0.56063   0.22229   0.02003   0.00000  Uiso   1.00
C405   C     0.74994   0.49995   0.35568   0.00000  Uiso   1.00
C406   C     0.75006   0.00005   0.64432   0.00000  Uiso   1.00
C407   C     0.50007   0.25006   0.35568   0.00000  Uiso   1.00
C408   C     0.99993   0.24994   0.64432   0.00000  Uiso   1.00
C409   C     0.99994   0.25005   0.85568   0.00000  Uiso   1.00
C410   C     0.50006   0.24995   0.14432   0.00000  Uiso   1.00
C411   C     0.75007   0.49994   0.85568   0.00000  Uiso   1.00
C412   C     0.74993   0.00006   0.14432   0.00000  Uiso   1.00
C413   C     0.67995   0.07008   0.24997   0.00000  Uiso   1.00
C414   C     0.98801   0.21868   0.41792   0.00000  Uiso   1.00
C415   C     0.82005   0.42992   0.75003   0.00000  Uiso   1.00
C416   C     0.92997   0.17991   0.25003   0.00000  Uiso   1.00
C417   C     0.57003   0.32009   0.74996   0.00000  Uiso   1.00
C418   C     0.82003   0.42991   0.24996   0.00000  Uiso   1.00
C419   C     0.67997   0.07009   0.75003   0.00000  Uiso   1.00
C420   C     0.57005   0.32008   0.25003   0.00000  Uiso   1.00
C421   C     0.92995   0.17992   0.74997   0.00000  Uiso   1.00
C422   C     0.67992   0.42996   0.74995   0.00000  Uiso   1.00
C423   C     0.82008   0.07004   0.25004   0.00000  Uiso   1.00
C424   C     0.92991   0.32004   0.75002   0.00000  Uiso   1.00
C425   C     0.51199   0.28133   0.58208   0.00000  Uiso   1.00
C426   C     0.57009   0.17996   0.24998   0.00000  Uiso   1.00
C427   C     0.82009   0.07004   0.74998   0.00000  Uiso   1.00
C428   C     0.67991   0.42996   0.25002   0.00000  Uiso   1.00
C429   C     0.57008   0.17996   0.75004   0.00000  Uiso   1.00
C430   C     0.92992   0.32004   0.24995   0.00000  Uiso   1.00
C431   C     0.62224   0.40445   0.22440   0.00000  Uiso   1.00
C432   C     0.87776   0.09555   0.77560   0.00000  Uiso   1.00
C433   C     0.59566   0.12243   0.22416   0.00000  Uiso   1.00
C434   C     0.90434   0.37757   0.77584   0.00000  Uiso   1.00
C435   C     0.87741   0.09582   0.22404   0.00000  Uiso   1.00
C436   C     0.78132   0.01201   0.41799   0.00000  Uiso   1.00
C437   C     0.62259   0.40418   0.77596   0.00000  Uiso   1.00
C438   C     0.90392   0.37723   0.22366   0.00000  Uiso   1.00
C439   C     0.59608   0.12277   0.77634   0.00000  Uiso   1.00
C440   C     0.62282   0.09605   0.77633   0.00000  Uiso   1.00
C441   C     0.87718   0.40395   0.22367   0.00000  Uiso   1.00
C442   C     0.59586   0.37745   0.77596   0.00000  Uiso   1.00
C443   C     0.90414   0.12254   0.22403   0.00000  Uiso   1.00
C444   C     0.87761   0.40430   0.77584   0.00000  Uiso   1.00
C445   C     0.62239   0.09570   0.22416   0.00000  Uiso   1.00
C446   C     0.90448   0.12229   0.77560   0.00000  Uiso   1.00
C447   C     0.71868   0.48799   0.58201   0.00000  Uiso   1.00
C448   C     0.59552   0.37771   0.22440   0.00000  Uiso   1.00
C449   C     0.87239   0.15430   0.72415   0.00000  Uiso   1.00
C450   C     0.62761   0.34570   0.27585   0.00000  Uiso   1.00
C451   C     0.84552   0.37229   0.72440   0.00000  Uiso   1.00
C452   C     0.65448   0.12771   0.27560   0.00000  Uiso   1.00
C453   C     0.62717   0.34605   0.72366   0.00000  Uiso   1.00
C454   C     0.87283   0.15395   0.27634   0.00000  Uiso   1.00
C455   C     0.65414   0.12746   0.72404   0.00000  Uiso   1.00
C456   C     0.84586   0.37254   0.27596   0.00000  Uiso   1.00
C457   C     0.87259   0.34582   0.27596   0.00000  Uiso   1.00
C458   C     0.73808   0.03135   0.91792   0.00000  Uiso   1.00
C459   C     0.62741   0.15418   0.72404   0.00000  Uiso   1.00
C460   C     0.84608   0.12722   0.27634   0.00000  Uiso   1.00
C461   C     0.65392   0.37278   0.72366   0.00000  Uiso   1.00
C462   C     0.62776   0.15445   0.27560   0.00000  Uiso   1.00
C463   C     0.87224   0.34555   0.72440   0.00000  Uiso   1.00
C464   C     0.65434   0.37243   0.27584   0.00000  Uiso   1.00
C465   C     0.84566   0.12756   0.72416   0.00000  Uiso   1.00
C466   C     0.98938   0.21788   0.45894   0.00000  Uiso   1.00
C467   C     0.51062   0.28212   0.54106   0.00000  Uiso   1.00
C468   C     0.78213   0.01061   0.45901   0.00000  Uiso   1.00
H469   H     0.61974   0.42700   0.20426   0.00000  Uiso   1.00
H470   H     0.87934   0.42624   0.20316   0.00000  Uiso   1.00
H471   H     0.57359   0.37967   0.79645   0.00000  Uiso   1.00
H472   H     0.92641   0.12033   0.20355   0.00000  Uiso   1.00
H473   H     0.88010   0.42685   0.79599   0.00000  Uiso   1.00
H474   H     0.61990   0.07315   0.20401   0.00000  Uiso   1.00
H475   H     0.92706   0.11983   0.79574   0.00000  Uiso   1.00
H476   H     0.57294   0.38017   0.20426   0.00000  Uiso   1.00
H477   H     0.86990   0.17685   0.70401   0.00000  Uiso   1.00
H478   H     0.63010   0.32315   0.29599   0.00000  Uiso   1.00
H479   H     0.82294   0.36983   0.70427   0.00000  Uiso   1.00
H480   H     0.88026   0.07300   0.79574   0.00000  Uiso   1.00
H481   H     0.67706   0.13017   0.29573   0.00000  Uiso   1.00
H482   H     0.62933   0.32376   0.70316   0.00000  Uiso   1.00
H483   H     0.87067   0.17624   0.29684   0.00000  Uiso   1.00
H484   H     0.67642   0.12968   0.70356   0.00000  Uiso   1.00
H485   H     0.82359   0.37032   0.29644   0.00000  Uiso   1.00
H486   H     0.87041   0.32352   0.29644   0.00000  Uiso   1.00
H487   H     0.62959   0.17648   0.70356   0.00000  Uiso   1.00
H488   H     0.82383   0.12942   0.29684   0.00000  Uiso   1.00
H489   H     0.67617   0.37058   0.70316   0.00000  Uiso   1.00
H490   H     0.63026   0.17700   0.29574   0.00000  Uiso   1.00
H491   H     0.57309   0.11998   0.20402   0.00000  Uiso   1.00
H492   H     0.86974   0.32300   0.70426   0.00000  Uiso   1.00
H493   H     0.67691   0.36998   0.29599   0.00000  Uiso   1.00
H494   H     0.82309   0.13002   0.70401   0.00000  Uiso   1.00
H495   H     0.99435   0.36761   0.39101   0.00000  Uiso   1.00
H496   H     0.50565   0.13239   0.60899   0.00000  Uiso   1.00
H497   H     0.63238   0.00597   0.39086   0.00000  Uiso   1.00
H498   H     0.86762   0.49404   0.60914   0.00000  Uiso   1.00
H499   H     0.92057   0.16332   0.38756   0.00000  Uiso   1.00
H500   H     0.57943   0.33668   0.61244   0.00000  Uiso   1.00
H501   H     0.83677   0.07940   0.38789   0.00000  Uiso   1.00
H502   H     0.92691   0.38002   0.79598   0.00000  Uiso   1.00
H503   H     0.66323   0.42060   0.61210   0.00000  Uiso   1.00
H504   H     0.67074   0.08685   0.88759   0.00000  Uiso   1.00
H505   H     0.82926   0.41315   0.11241   0.00000  Uiso   1.00
H506   H     0.88238   0.24404   0.89086   0.00000  Uiso   1.00
H507   H     0.61763   0.25596   0.10914   0.00000  Uiso   1.00
H508   H     0.74412   0.38240   0.89098   0.00000  Uiso   1.00
H509   H     0.75588   0.11760   0.10902   0.00000  Uiso   1.00
H510   H     0.58677   0.17060   0.88789   0.00000  Uiso   1.00
H511   H     0.91323   0.32940   0.11211   0.00000  Uiso   1.00
H512   H     0.87959   0.07352   0.20356   0.00000  Uiso   1.00
H513   H     0.62041   0.42648   0.79644   0.00000  Uiso   1.00
H514   H     0.92617   0.37942   0.20316   0.00000  Uiso   1.00
H515   H     0.57383   0.12058   0.79684   0.00000  Uiso   1.00
H516   H     0.62066   0.07376   0.79683   0.00000  Uiso   1.00
I517   I     0.98554   0.13166   0.45906   0.00000  Uiso   1.00
I518   I     0.68082   0.09649   0.04206   0.00000  Uiso   1.00
I519   I     0.61835   0.23570   0.95925   0.00000  Uiso   1.00
I520   I     0.88165   0.26430   0.04075   0.00000  Uiso   1.00
I521   I     0.73583   0.11836   0.95905   0.00000  Uiso   1.00
I522   I     0.76417   0.38164   0.04095   0.00000  Uiso   1.00
I523   I     0.90355   0.31919   0.95761   0.00000  Uiso   1.00
I524   I     0.59646   0.18081   0.04239   0.00000  Uiso   1.00
I525   I     0.51446   0.36834   0.54094   0.00000  Uiso   1.00
I526   I     0.86835   0.01429   0.45925   0.00000  Uiso   1.00
I527   I     0.63165   0.48571   0.54075   0.00000  Uiso   1.00
I528   I     0.56941   0.34631   0.45793   0.00000  Uiso   1.00
I529   I     0.93059   0.15369   0.54207   0.00000  Uiso   1.00
I530   I     0.65354   0.43081   0.45761   0.00000  Uiso   1.00
I531   I     0.84646   0.06919   0.54239   0.00000  Uiso   1.00
I532   I     0.81918   0.40351   0.95794   0.00000  Uiso   1.00
O533   O     0.75000  -0.00000   0.25000   0.00000  Uiso   1.00
O534   O     0.75000   0.46963   0.66245   0.00000  Uiso   1.00
O535   O     0.96964   0.25000   0.33755   0.00000  Uiso   1.00
O536   O     0.53037   0.25000   0.66245   0.00000  Uiso   1.00
O537   O     0.50000   0.21963   0.83755   0.00000  Uiso   1.00
O538   O     0.50000   0.28037   0.16245   0.00000  Uiso   1.00
O539   O     0.78037  -0.00000   0.83755   0.00000  Uiso   1.00
O540   O     0.71964  -0.00000   0.16245   0.00000  Uiso   1.00
O541   O     0.50000   0.28036   0.83755   0.00000  Uiso   1.00
O542   O     0.50000   0.21963   0.16245   0.00000  Uiso   1.00
O543   O     0.71964  -0.00000   0.83755   0.00000  Uiso   1.00
O544   O     0.75000  -0.00000   0.75000   0.00000  Uiso   1.00
O545   O     0.78037  -0.00000   0.16245   0.00000  Uiso   1.00
O546   O     0.70725   0.07307   0.27302   0.00000  Uiso   1.00
O547   O     0.79276   0.42692   0.72698   0.00000  Uiso   1.00
O548   O     0.92693   0.20724   0.27302   0.00000  Uiso   1.00
O549   O     0.57308   0.29275   0.72698   0.00000  Uiso   1.00
O550   O     0.79276   0.42692   0.27302   0.00000  Uiso   1.00
O551   O     0.70725   0.07307   0.72698   0.00000  Uiso   1.00
O552   O     0.57308   0.29275   0.27302   0.00000  Uiso   1.00
O553   O     0.92693   0.20724   0.72698   0.00000  Uiso   1.00
O554   O     0.70725   0.42692   0.72698   0.00000  Uiso   1.00
O555   O     0.50000   0.25000   0.25000   0.00000  Uiso   1.00
O556   O     0.79276   0.07307   0.27302   0.00000  Uiso   1.00
O557   O     0.92693   0.29275   0.72698   0.00000  Uiso   1.00
O558   O     0.57308   0.20724   0.27302   0.00000  Uiso   1.00
O559   O     0.79276   0.07307   0.72698   0.00000  Uiso   1.00
O560   O     0.70725   0.42692   0.27302   0.00000  Uiso   1.00
O561   O     0.57308   0.20724   0.72698   0.00000  Uiso   1.00
O562   O     0.92693   0.29275   0.27302   0.00000  Uiso   1.00
O563   O     0.95725   0.32307   0.77302   0.00000  Uiso   1.00
O564   O     0.54276   0.17692   0.22698   0.00000  Uiso   1.00
O565   O     0.67693   0.45724   0.77302   0.00000  Uiso   1.00
O566   O     0.50000   0.25000   0.75000   0.00000  Uiso   1.00
O567   O     0.82308   0.04275   0.22698   0.00000  Uiso   1.00
O568   O     0.54276   0.17692   0.77302   0.00000  Uiso   1.00
O569   O     0.95725   0.32307   0.22698   0.00000  Uiso   1.00
O570   O     0.82308   0.04275   0.77302   0.00000  Uiso   1.00
O571   O     0.67693   0.45724   0.22698   0.00000  Uiso   1.00
O572   O     0.95725   0.17692   0.22698   0.00000  Uiso   1.00
O573   O     0.54276   0.32307   0.77302   0.00000  Uiso   1.00
O574   O     0.67693   0.04275   0.22698   0.00000  Uiso   1.00
O575   O     0.82308   0.45724   0.77302   0.00000  Uiso   1.00
O576   O     0.54276   0.32307   0.22698   0.00000  Uiso   1.00
O577   O     0.75000   0.46963   0.33755   0.00000  Uiso   1.00
O578   O     0.95725   0.17692   0.77302   0.00000  Uiso   1.00
O579   O     0.82308   0.45724   0.22698   0.00000  Uiso   1.00
O580   O     0.67693   0.04275   0.77302   0.00000  Uiso   1.00
O581   O     0.53411   0.31994   0.36874   0.00000  Uiso   1.00
O582   O     0.99098   0.34513   0.40775   0.00000  Uiso   1.00
O583   O     0.96589   0.18005   0.63125   0.00000  Uiso   1.00
O584   O     0.50902   0.15487   0.59225   0.00000  Uiso   1.00
O585   O     0.67997   0.46615   0.36855   0.00000  Uiso   1.00
O586   O     0.65487   0.00928   0.40764   0.00000  Uiso   1.00
O587   O     0.82003   0.03386   0.63145   0.00000  Uiso   1.00
O588   O     0.75000   0.03036   0.66245   0.00000  Uiso   1.00
O589   O     0.84513   0.49073   0.59236   0.00000  Uiso   1.00
O590   O     0.98273   0.17436   0.36878   0.00000  Uiso   1.00
O591   O     0.93155   0.18278   0.40491   0.00000  Uiso   1.00
O592   O     0.51727   0.32564   0.63122   0.00000  Uiso   1.00
O593   O     0.56845   0.31722   0.59508   0.00000  Uiso   1.00
O594   O     0.82563   0.01728   0.36892   0.00000  Uiso   1.00
O595   O     0.81730   0.06843   0.40519   0.00000  Uiso   1.00
O596   O     0.67438   0.48272   0.63108   0.00000  Uiso   1.00
O597   O     0.68270   0.43157   0.59481   0.00000  Uiso   1.00
O598   O     0.73286   0.07566   0.86877   0.00000  Uiso   1.00
O599   O     0.53037   0.25000   0.33755   0.00000  Uiso   1.00
O600   O     0.68169   0.06737   0.90494   0.00000  Uiso   1.00
O601   O     0.76714   0.42434   0.13123   0.00000  Uiso   1.00
O602   O     0.81831   0.43263   0.09506   0.00000  Uiso   1.00
O603   O     0.92997   0.28385   0.86854   0.00000  Uiso   1.00
O604   O     0.90487   0.24073   0.90764   0.00000  Uiso   1.00
O605   O     0.57003   0.21615   0.13146   0.00000  Uiso   1.00
O606   O     0.59513   0.25927   0.09236   0.00000  Uiso   1.00
O607   O     0.78398   0.43000   0.86874   0.00000  Uiso   1.00
O608   O     0.74079   0.40489   0.90773   0.00000  Uiso   1.00
O609   O     0.71602   0.07000   0.13126   0.00000  Uiso   1.00
O610   O     0.96964   0.25000   0.66245   0.00000  Uiso   1.00
O611   O     0.75921   0.09511   0.09227   0.00000  Uiso   1.00
O612   O     0.57562   0.23272   0.86892   0.00000  Uiso   1.00
O613   O     0.56730   0.18157   0.90519   0.00000  Uiso   1.00
O614   O     0.92437   0.26728   0.13108   0.00000  Uiso   1.00
O615   O     0.93270   0.31843   0.09481   0.00000  Uiso   1.00
O616   O     0.75000   0.03036   0.33755   0.00000  Uiso   1.00
Zn617  Zn    0.70660  -0.00000   0.21735   0.00000  Uiso   1.00
Zn618  Zn    0.54341   0.25000   0.28265   0.00000  Uiso   1.00
Zn619  Zn    0.75000   0.45659   0.71735   0.00000  Uiso   1.00
Zn620  Zn    0.75000   0.04340   0.28265   0.00000  Uiso   1.00
Zn621  Zn    0.54341   0.25000   0.71735   0.00000  Uiso   1.00
Zn622  Zn    0.95660   0.25000   0.28265   0.00000  Uiso   1.00
Zn623  Zn    0.75000   0.04340   0.71735   0.00000  Uiso   1.00
Zn624  Zn    0.75000   0.45659   0.28265   0.00000  Uiso   1.00
Zn625  Zn    0.79341  -0.00000   0.78265   0.00000  Uiso   1.00
Zn626  Zn    0.50000   0.20659   0.21735   0.00000  Uiso   1.00
Zn627  Zn    0.50000   0.29341   0.78265   0.00000  Uiso   1.00
Zn628  Zn    0.79341  -0.00000   0.21735   0.00000  Uiso   1.00
Zn629  Zn    0.70660  -0.00000   0.78265   0.00000  Uiso   1.00
Zn630  Zn    0.50000   0.29341   0.21735   0.00000  Uiso   1.00
Zn631  Zn    0.50000   0.20659   0.78265   0.00000  Uiso   1.00
Zn632  Zn    0.95660   0.25000   0.71735   0.00000  Uiso   1.00
C633   C     0.01194   0.78115   0.41798   0.00000  Uiso   1.00
C634   C     0.26192   0.96865   0.08208   0.00000  Uiso   1.00
C635   C     0.21787   0.98939   0.54099   0.00000  Uiso   1.00
C636   C     0.01385   0.78063   0.45892   0.00000  Uiso   1.00
C637   C     0.48615   0.71937   0.54108   0.00000  Uiso   1.00
C638   C     0.21933   0.98625   0.45884   0.00000  Uiso   1.00
C639   C     0.28067   0.51376   0.54116   0.00000  Uiso   1.00
C640   C     0.26378   0.96933   0.95892   0.00000  Uiso   1.00
C641   C     0.23622   0.53067   0.04108   0.00000  Uiso   1.00
C642   C     0.03213   0.73939   0.95901   0.00000  Uiso   1.00
C643   C     0.46787   0.76061   0.04099   0.00000  Uiso   1.00
C644   C     0.23945   0.53214   0.95894   0.00000  Uiso   1.00
C645   C     0.46881   0.76181   0.91791   0.00000  Uiso   1.00
C646   C     0.26055   0.96786   0.04106   0.00000  Uiso   1.00
C647   C     0.46933   0.76376   0.95884   0.00000  Uiso   1.00
C648   C     0.03067   0.73625   0.04116   0.00000  Uiso   1.00
C649   C     0.09808   0.84818   0.25010   0.00000  Uiso   1.00
C650   C     0.40192   0.65182   0.74990   0.00000  Uiso   1.00
C651   C     0.15192   0.59818   0.24990   0.00000  Uiso   1.00
C652   C     0.34808   0.90182   0.75010   0.00000  Uiso   1.00
C653   C     0.40196   0.65178   0.25014   0.00000  Uiso   1.00
C654   C     0.09804   0.84822   0.74986   0.00000  Uiso   1.00
C655   C     0.34804   0.90178   0.24986   0.00000  Uiso   1.00
C656   C     0.03119   0.73819   0.08209   0.00000  Uiso   1.00
C657   C     0.15196   0.59822   0.75014   0.00000  Uiso   1.00
C658   C     0.09821   0.65195   0.75015   0.00000  Uiso   1.00
C659   C     0.40179   0.84805   0.24985   0.00000  Uiso   1.00
C660   C     0.15179   0.90195   0.74985   0.00000  Uiso   1.00
C661   C     0.34821   0.59805   0.25015   0.00000  Uiso   1.00
C662   C     0.40181   0.84807   0.75009   0.00000  Uiso   1.00
C663   C     0.09819   0.65193   0.24991   0.00000  Uiso   1.00
C664   C     0.34819   0.59807   0.74991   0.00000  Uiso   1.00
C665   C     0.15181   0.90193   0.25009   0.00000  Uiso   1.00
C666   C     0.00050   0.74974   0.47941   0.00000  Uiso   1.00
C667   C     0.26187   0.96882   0.91798   0.00000  Uiso   1.00
C668   C     0.49950   0.75026   0.52059   0.00000  Uiso   1.00
C669   C     0.25025   0.99952   0.47941   0.00000  Uiso   1.00
C670   C     0.24975   0.50048   0.52059   0.00000  Uiso   1.00
C671   C     0.25050   0.50026   0.97941   0.00000  Uiso   1.00
C672   C     0.24950   0.99974   0.02059   0.00000  Uiso   1.00
C673   C     0.00025   0.75048   0.97941   0.00000  Uiso   1.00
C674   C     0.49975   0.74952   0.02059   0.00000  Uiso   1.00
C675   C     0.01345   0.81626   0.39631   0.00000  Uiso   1.00
C676   C     0.48655   0.68374   0.60369   0.00000  Uiso   1.00
C677   C     0.18369   0.98677   0.39618   0.00000  Uiso   1.00
C678   C     0.23813   0.53118   0.08202   0.00000  Uiso   1.00
C679   C     0.31631   0.51324   0.60382   0.00000  Uiso   1.00
C680   C     0.46784   0.69043   0.39555   0.00000  Uiso   1.00
C681   C     0.03216   0.80957   0.60444   0.00000  Uiso   1.00
C682   C     0.30959   0.53216   0.39572   0.00000  Uiso   1.00
C683   C     0.19041   0.96784   0.60428   0.00000  Uiso   1.00
C684   C     0.21796   0.55964   0.89556   0.00000  Uiso   1.00
C685   C     0.28204   0.94036   0.10444   0.00000  Uiso   1.00
C686   C     0.43369   0.76324   0.89618   0.00000  Uiso   1.00
C687   C     0.06631   0.73677   0.10382   0.00000  Uiso   1.00
C688   C     0.26332   0.93371   0.89630   0.00000  Uiso   1.00
C689   C     0.03132   0.73799   0.91799   0.00000  Uiso   1.00
C690   C     0.23668   0.56629   0.10370   0.00000  Uiso   1.00
C691   C     0.05959   0.71784   0.89572   0.00000  Uiso   1.00
C692   C     0.44041   0.78216   0.10428   0.00000  Uiso   1.00
C693   C     0.46868   0.76201   0.08201   0.00000  Uiso   1.00
C694   C     0.00062   0.74969   0.39800   0.00000  Uiso   1.00
C695   C     0.49938   0.75031   0.60200   0.00000  Uiso   1.00
C696   C     0.25029   0.99946   0.39800   0.00000  Uiso   1.00
C697   C     0.48806   0.71885   0.58202   0.00000  Uiso   1.00
C698   C     0.24971   0.50054   0.60200   0.00000  Uiso   1.00
C699   C     0.25062   0.50031   0.89800   0.00000  Uiso   1.00
C700   C     0.24938   0.99969   0.10200   0.00000  Uiso   1.00
C701   C     0.00029   0.75054   0.89800   0.00000  Uiso   1.00
C702   C     0.49971   0.74946   0.10200   0.00000  Uiso   1.00
C703   C     0.47924   0.68650   0.48032   0.00000  Uiso   1.00
C704   C     0.02076   0.81350   0.51968   0.00000  Uiso   1.00
C705   C     0.31354   0.52067   0.48046   0.00000  Uiso   1.00
C706   C     0.18647   0.97933   0.51954   0.00000  Uiso   1.00
C707   C     0.02784   0.81057   0.48012   0.00000  Uiso   1.00
C708   C     0.21881   0.98819   0.41791   0.00000  Uiso   1.00
C709   C     0.47216   0.68943   0.51988   0.00000  Uiso   1.00
C710   C     0.18937   0.97229   0.47997   0.00000  Uiso   1.00
C711   C     0.31063   0.52771   0.52003   0.00000  Uiso   1.00
C712   C     0.27769   0.93936   0.98013   0.00000  Uiso   1.00
C713   C     0.22231   0.56064   0.01987   0.00000  Uiso   1.00
C714   C     0.06353   0.72933   0.98046   0.00000  Uiso   1.00
C715   C     0.43647   0.77067   0.01954   0.00000  Uiso   1.00
C716   C     0.22939   0.56355   0.98032   0.00000  Uiso   1.00
C717   C     0.27061   0.93645   0.01968   0.00000  Uiso   1.00
C718   C     0.43937   0.77771   0.97997   0.00000  Uiso   1.00
C719   C     0.28119   0.51181   0.58209   0.00000  Uiso   1.00
C720   C     0.06063   0.72229   0.02003   0.00000  Uiso   1.00
C721   C     0.24994   0.99995   0.35568   0.00000  Uiso   1.00
C722   C     0.25006   0.50005   0.64432   0.00000  Uiso   1.00
C723   C     0.00007   0.75006   0.35568   0.00000  Uiso   1.00
C724   C     0.49993   0.74994   0.64432   0.00000  Uiso   1.00
C725   C     0.49994   0.75005   0.85568   0.00000  Uiso   1.00
C726   C     0.00006   0.74995   0.14432   0.00000  Uiso   1.00
C727   C     0.25007   0.99994   0.85568   0.00000  Uiso   1.00
C728   C     0.24993   0.50006   0.14432   0.00000  Uiso   1.00
C729   C     0.17995   0.57008   0.24997   0.00000  Uiso   1.00
C730   C     0.48801   0.71868   0.41792   0.00000  Uiso   1.00
C731   C     0.32005   0.92992   0.75003   0.00000  Uiso   1.00
C732   C     0.42997   0.67991   0.25003   0.00000  Uiso   1.00
C733   C     0.07003   0.82009   0.74996   0.00000  Uiso   1.00
C734   C     0.32003   0.92991   0.24996   0.00000  Uiso   1.00
C735   C     0.17997   0.57009   0.75003   0.00000  Uiso   1.00
C736   C     0.07005   0.82008   0.25003   0.00000  Uiso   1.00
C737   C     0.42995   0.67992   0.74997   0.00000  Uiso   1.00
C738   C     0.17992   0.92996   0.74995   0.00000  Uiso   1.00
C739   C     0.32008   0.57004   0.25004   0.00000  Uiso   1.00
C740   C     0.42991   0.82004   0.75002   0.00000  Uiso   1.00
C741   C     0.01199   0.78133   0.58208   0.00000  Uiso   1.00
C742   C     0.07009   0.67996   0.24998   0.00000  Uiso   1.00
C743   C     0.32009   0.57004   0.74998   0.00000  Uiso   1.00
C744   C     0.17991   0.92996   0.25002   0.00000  Uiso   1.00
C745   C     0.07008   0.67996   0.75004   0.00000  Uiso   1.00
C746   C     0.42992   0.82004   0.24995   0.00000  Uiso   1.00
C747   C     0.12224   0.90445   0.22440   0.00000  Uiso   1.00
C748   C     0.37776   0.59555   0.77560   0.00000  Uiso   1.00
C749   C     0.09566   0.62243   0.22416   0.00000  Uiso   1.00
C750   C     0.40434   0.87757   0.77584   0.00000  Uiso   1.00
C751   C     0.37741   0.59582   0.22404   0.00000  Uiso   1.00
C752   C     0.28132   0.51201   0.41799   0.00000  Uiso   1.00
C753   C     0.12259   0.90418   0.77596   0.00000  Uiso   1.00
C754   C     0.40392   0.87723   0.22366   0.00000  Uiso   1.00
C755   C     0.09608   0.62277   0.77634   0.00000  Uiso   1.00
C756   C     0.12282   0.59605   0.77633   0.00000  Uiso   1.00
C757   C     0.37718   0.90395   0.22367   0.00000  Uiso   1.00
C758   C     0.09586   0.87745   0.77596   0.00000  Uiso   1.00
C759   C     0.40414   0.62254   0.22403   0.00000  Uiso   1.00
C760   C     0.37761   0.90430   0.77584   0.00000  Uiso   1.00
C761   C     0.12239   0.59570   0.22416   0.00000  Uiso   1.00
C762   C     0.40448   0.62229   0.77560   0.00000  Uiso   1.00
C763   C     0.21868   0.98799   0.58201   0.00000  Uiso   1.00
C764   C     0.09552   0.87771   0.22440   0.00000  Uiso   1.00
C765   C     0.37239   0.65430   0.72415   0.00000  Uiso   1.00
C766   C     0.12761   0.84570   0.27585   0.00000  Uiso   1.00
C767   C     0.34552   0.87229   0.72440   0.00000  Uiso   1.00
C768   C     0.15448   0.62771   0.27560   0.00000  Uiso   1.00
C769   C     0.12717   0.84605   0.72366   0.00000  Uiso   1.00
C770   C     0.37283   0.65395   0.27634   0.00000  Uiso   1.00
C771   C     0.15414   0.62746   0.72404   0.00000  Uiso   1.00
C772   C     0.34586   0.87254   0.27596   0.00000  Uiso   1.00
C773   C     0.37259   0.84582   0.27596   0.00000  Uiso   1.00
C774   C     0.23808   0.53135   0.91792   0.00000  Uiso   1.00
C775   C     0.12741   0.65418   0.72404   0.00000  Uiso   1.00
C776   C     0.34608   0.62722   0.27634   0.00000  Uiso   1.00
C777   C     0.15392   0.87278   0.72366   0.00000  Uiso   1.00
C778   C     0.12776   0.65445   0.27560   0.00000  Uiso   1.00
C779   C     0.37224   0.84555   0.72440   0.00000  Uiso   1.00
C780   C     0.15434   0.87243   0.27584   0.00000  Uiso   1.00
C781   C     0.34566   0.62756   0.72416   0.00000  Uiso   1.00
C782   C     0.48938   0.71788   0.45894   0.00000  Uiso   1.00
C783   C     0.01062   0.78212   0.54106   0.00000  Uiso   1.00
C784   C     0.28213   0.51061   0.45901   0.00000  Uiso   1.00
H785   H     0.11974   0.92700   0.20426   0.00000  Uiso   1.00
H786   H     0.37934   0.92624   0.20316   0.00000  Uiso   1.00
H787   H     0.07359   0.87967   0.79645   0.00000  Uiso   1.00
H788   H     0.42641   0.62033   0.20355   0.00000  Uiso   1.00
H789   H     0.38010   0.92685   0.79599   0.00000  Uiso   1.00
H790   H     0.11990   0.57315   0.20401   0.00000  Uiso   1.00
H791   H     0.42706   0.61983   0.79574   0.00000  Uiso   1.00
H792   H     0.07294   0.88017   0.20426   0.00000  Uiso   1.00
H793   H     0.36990   0.67685   0.70401   0.00000  Uiso   1.00
H794   H     0.13010   0.82315   0.29599   0.00000  Uiso   1.00
H795   H     0.32294   0.86983   0.70427   0.00000  Uiso   1.00
H796   H     0.38026   0.57300   0.79574   0.00000  Uiso   1.00
H797   H     0.17706   0.63017   0.29573   0.00000  Uiso   1.00
H798   H     0.12933   0.82376   0.70316   0.00000  Uiso   1.00
H799   H     0.37067   0.67624   0.29684   0.00000  Uiso   1.00
H800   H     0.17642   0.62968   0.70356   0.00000  Uiso   1.00
H801   H     0.32359   0.87032   0.29644   0.00000  Uiso   1.00
H802   H     0.37041   0.82352   0.29644   0.00000  Uiso   1.00
H803   H     0.12959   0.67648   0.70356   0.00000  Uiso   1.00
H804   H     0.32383   0.62942   0.29684   0.00000  Uiso   1.00
H805   H     0.17617   0.87058   0.70316   0.00000  Uiso   1.00
H806   H     0.13026   0.67700   0.29574   0.00000  Uiso   1.00
H807   H     0.07309   0.61998   0.20402   0.00000  Uiso   1.00
H808   H     0.36974   0.82300   0.70426   0.00000  Uiso   1.00
H809   H     0.17691   0.86998   0.29599   0.00000  Uiso   1.00
H810   H     0.32309   0.63002   0.70401   0.00000  Uiso   1.00
H811   H     0.49435   0.86761   0.39101   0.00000  Uiso   1.00
H812   H     0.00565   0.63239   0.60899   0.00000  Uiso   1.00
H813   H     0.13238   0.50597   0.39086   0.00000  Uiso   1.00
H814   H     0.36762   0.99404   0.60914   0.00000  Uiso   1.00
H815   H     0.42057   0.66332   0.38756   0.00000  Uiso   1.00
H816   H     0.07943   0.83668   0.61244   0.00000  Uiso   1.00
H817   H     0.33677   0.57940   0.38789   0.00000  Uiso   1.00
H818   H     0.42691   0.88002   0.79598   0.00000  Uiso   1.00
H819   H     0.16323   0.92060   0.61210   0.00000  Uiso   1.00
H820   H     0.17074   0.58685   0.88759   0.00000  Uiso   1.00
H821   H     0.32926   0.91315   0.11241   0.00000  Uiso   1.00
H822   H     0.38238   0.74404   0.89086   0.00000  Uiso   1.00
H823   H     0.11763   0.75596   0.10914   0.00000  Uiso   1.00
H824   H     0.24412   0.88240   0.89098   0.00000  Uiso   1.00
H825   H     0.25588   0.61760   0.10902   0.00000  Uiso   1.00
H826   H     0.08677   0.67060   0.88789   0.00000  Uiso   1.00
H827   H     0.41323   0.82940   0.11211   0.00000  Uiso   1.00
H828   H     0.37959   0.57352   0.20356   0.00000  Uiso   1.00
H829   H     0.12041   0.92648   0.79644   0.00000  Uiso   1.00
H830   H     0.42617   0.87942   0.20316   0.00000  Uiso   1.00
H831   H     0.07383   0.62058   0.79684   0.00000  Uiso   1.00
H832   H     0.12066   0.57376   0.79683   0.00000  Uiso   1.00
I833   I     0.48554   0.63166   0.45906   0.00000  Uiso   1.00
I834   I     0.18082   0.59649   0.04206   0.00000  Uiso   1.00
I835   I     0.11835   0.73570   0.95925   0.00000  Uiso   1.00
I836   I     0.38165   0.76430   0.04075   0.00000  Uiso   1.00
I837   I     0.23583   0.61836   0.95905   0.00000  Uiso   1.00
I838   I     0.26417   0.88164   0.04095   0.00000  Uiso   1.00
I839   I     0.40355   0.81919   0.95761   0.00000  Uiso   1.00
I840   I     0.09646   0.68081   0.04239   0.00000  Uiso   1.00
I841   I     0.01446   0.86834   0.54094   0.00000  Uiso   1.00
I842   I     0.36835   0.51429   0.45925   0.00000  Uiso   1.00
I843   I     0.13165   0.98571   0.54075   0.00000  Uiso   1.00
I844   I     0.06941   0.84631   0.45793   0.00000  Uiso   1.00
I845   I     0.43059   0.65369   0.54207   0.00000  Uiso   1.00
I846   I     0.15354   0.93081   0.45761   0.00000  Uiso   1.00
I847   I     0.34646   0.56919   0.54239   0.00000  Uiso   1.00
I848   I     0.31918   0.90351   0.95794   0.00000  Uiso   1.00
O849   O     0.25000   0.50000   0.25000   0.00000  Uiso   1.00
O850   O     0.25000   0.96963   0.66245   0.00000  Uiso   1.00
O851   O     0.46964   0.75000   0.33755   0.00000  Uiso   1.00
O852   O     0.03037   0.75000   0.66245   0.00000  Uiso   1.00
O853   O     0.00000   0.71963   0.83755   0.00000  Uiso   1.00
O854   O     0.00000   0.78037   0.16245   0.00000  Uiso   1.00
O855   O     0.28037   0.50000   0.83755   0.00000  Uiso   1.00
O856   O     0.21964   0.50000   0.16245   0.00000  Uiso   1.00
O857   O     0.00000   0.78036   0.83755   0.00000  Uiso   1.00
O858   O     0.00000   0.71963   0.16245   0.00000  Uiso   1.00
O859   O     0.21964   0.50000   0.83755   0.00000  Uiso   1.00
O860   O     0.25000   0.50000   0.75000   0.00000  Uiso   1.00
O861   O     0.28037   0.50000   0.16245   0.00000  Uiso   1.00
O862   O     0.20725   0.57307   0.27302   0.00000  Uiso   1.00
O863   O     0.29276   0.92692   0.72698   0.00000  Uiso   1.00
O864   O     0.42693   0.70724   0.27302   0.00000  Uiso   1.00
O865   O     0.07308   0.79275   0.72698   0.00000  Uiso   1.00
O866   O     0.29276   0.92692   0.27302   0.00000  Uiso   1.00
O867   O     0.20725   0.57307   0.72698   0.00000  Uiso   1.00
O868   O     0.07308   0.79275   0.27302   0.00000  Uiso   1.00
O869   O     0.42693   0.70724   0.72698   0.00000  Uiso   1.00
O870   O     0.20725   0.92692   0.72698   0.00000  Uiso   1.00
O871   O     0.00000   0.75000   0.25000   0.00000  Uiso   1.00
O872   O     0.29276   0.57307   0.27302   0.00000  Uiso   1.00
O873   O     0.42693   0.79275   0.72698   0.00000  Uiso   1.00
O874   O     0.07308   0.70724   0.27302   0.00000  Uiso   1.00
O875   O     0.29276   0.57307   0.72698   0.00000  Uiso   1.00
O876   O     0.20725   0.92692   0.27302   0.00000  Uiso   1.00
O877   O     0.07308   0.70724   0.72698   0.00000  Uiso   1.00
O878   O     0.42693   0.79275   0.27302   0.00000  Uiso   1.00
O879   O     0.45725   0.82307   0.77302   0.00000  Uiso   1.00
O880   O     0.04276   0.67692   0.22698   0.00000  Uiso   1.00
O881   O     0.17693   0.95724   0.77302   0.00000  Uiso   1.00
O882   O     0.00000   0.75000   0.75000   0.00000  Uiso   1.00
O883   O     0.32308   0.54275   0.22698   0.00000  Uiso   1.00
O884   O     0.04276   0.67692   0.77302   0.00000  Uiso   1.00
O885   O     0.45725   0.82307   0.22698   0.00000  Uiso   1.00
O886   O     0.32308   0.54275   0.77302   0.00000  Uiso   1.00
O887   O     0.17693   0.95724   0.22698   0.00000  Uiso   1.00
O888   O     0.45725   0.67692   0.22698   0.00000  Uiso   1.00
O889   O     0.04276   0.82307   0.77302   0.00000  Uiso   1.00
O890   O     0.17693   0.54275   0.22698   0.00000  Uiso   1.00
O891   O     0.32308   0.95724   0.77302   0.00000  Uiso   1.00
O892   O     0.04276   0.82307   0.22698   0.00000  Uiso   1.00
O893   O     0.25000   0.96963   0.33755   0.00000  Uiso   1.00
O894   O     0.45725   0.67692   0.77302   0.00000  Uiso   1.00
O895   O     0.32308   0.95724   0.22698   0.00000  Uiso   1.00
O896   O     0.17693   0.54275   0.77302   0.00000  Uiso   1.00
O897   O     0.03411   0.81994   0.36874   0.00000  Uiso   1.00
O898   O     0.49098   0.84513   0.40775   0.00000  Uiso   1.00
O899   O     0.46589   0.68005   0.63125   0.00000  Uiso   1.00
O900   O     0.00902   0.65487   0.59225   0.00000  Uiso   1.00
O901   O     0.17997   0.96615   0.36855   0.00000  Uiso   1.00
O902   O     0.15487   0.50928   0.40764   0.00000  Uiso   1.00
O903   O     0.32003   0.53386   0.63145   0.00000  Uiso   1.00
O904   O     0.25000   0.53036   0.66245   0.00000  Uiso   1.00
O905   O     0.34513   0.99073   0.59236   0.00000  Uiso   1.00
O906   O     0.48273   0.67436   0.36878   0.00000  Uiso   1.00
O907   O     0.43155   0.68278   0.40491   0.00000  Uiso   1.00
O908   O     0.01727   0.82564   0.63122   0.00000  Uiso   1.00
O909   O     0.06845   0.81722   0.59508   0.00000  Uiso   1.00
O910   O     0.32563   0.51728   0.36892   0.00000  Uiso   1.00
O911   O     0.31730   0.56843   0.40519   0.00000  Uiso   1.00
O912   O     0.17438   0.98272   0.63108   0.00000  Uiso   1.00
O913   O     0.18270   0.93157   0.59481   0.00000  Uiso   1.00
O914   O     0.23286   0.57566   0.86877   0.00000  Uiso   1.00
O915   O     0.03037   0.75000   0.33755   0.00000  Uiso   1.00
O916   O     0.18169   0.56737   0.90494   0.00000  Uiso   1.00
O917   O     0.26714   0.92434   0.13123   0.00000  Uiso   1.00
O918   O     0.31831   0.93263   0.09506   0.00000  Uiso   1.00
O919   O     0.42997   0.78385   0.86854   0.00000  Uiso   1.00
O920   O     0.40487   0.74073   0.90764   0.00000  Uiso   1.00
O921   O     0.07003   0.71615   0.13146   0.00000  Uiso   1.00
O922   O     0.09513   0.75927   0.09236   0.00000  Uiso   1.00
O923   O     0.28398   0.93000   0.86874   0.00000  Uiso   1.00
O924   O     0.24079   0.90489   0.90773   0.00000  Uiso   1.00
O925   O     0.21602   0.57000   0.13126   0.00000  Uiso   1.00
O926   O     0.46964   0.75000   0.66245   0.00000  Uiso   1.00
O927   O     0.25921   0.59511   0.09227   0.00000  Uiso   1.00
O928   O     0.07562   0.73272   0.86892   0.00000  Uiso   1.00
O929   O     0.06730   0.68157   0.90519   0.00000  Uiso   1.00
O930   O     0.42437   0.76728   0.13108   0.00000  Uiso   1.00
O931   O     0.43270   0.81843   0.09481   0.00000  Uiso   1.00
O932   O     0.25000   0.53036   0.33755   0.00000  Uiso   1.00
Zn933  Zn    0.20660   0.50000   0.21735   0.00000  Uiso   1.00
Zn934  Zn    0.04341   0.75000   0.28265   0.00000  Uiso   1.00
Zn935  Zn    0.25000   0.95659   0.71735   0.00000  Uiso   1.00
Zn936  Zn    0.25000   0.54340   0.28265   0.00000  Uiso   1.00
Zn937  Zn    0.04341   0.75000   0.71735   0.00000  Uiso   1.00
Zn938  Zn    0.45660   0.75000   0.28265   0.00000  Uiso   1.00
Zn939  Zn    0.25000   0.54340   0.71735   0.00000  Uiso   1.00
Zn940  Zn    0.25000   0.95659   0.28265   0.00000  Uiso   1.00
Zn941  Zn    0.29341   0.50000   0.78265   0.00000  Uiso   1.00
Zn942  Zn    0.00000   0.70659   0.21735   0.00000  Uiso   1.00
Zn943  Zn    0.00000   0.79341   0.78265   0.00000  Uiso   1.00
Zn944  Zn    0.29341   0.50000   0.21735   0.00000  Uiso   1.00
Zn945  Zn    0.20660   0.50000   0.78265   0.00000  Uiso   1.00
Zn946  Zn    0.00000   0.79341   0.21735   0.00000  Uiso   1.00
Zn947  Zn    0.00000   0.70659   0.78265   0.00000  Uiso   1.00
Zn948  Zn    0.45660   0.75000   0.71735   0.00000  Uiso   1.00
C949   C     0.51194   0.78115   0.41798   0.00000  Uiso   1.00
C950   C     0.76192   0.96865   0.08208   0.00000  Uiso   1.00
C951   C     0.71787   0.98939   0.54099   0.00000  Uiso   1.00
C952   C     0.51385   0.78063   0.45892   0.00000  Uiso   1.00
C953   C     0.98615   0.71937   0.54108   0.00000  Uiso   1.00
C954   C     0.71933   0.98625   0.45884   0.00000  Uiso   1.00
C955   C     0.78067   0.51376   0.54116   0.00000  Uiso   1.00
C956   C     0.76378   0.96933   0.95892   0.00000  Uiso   1.00
C957   C     0.73622   0.53067   0.04108   0.00000  Uiso   1.00
C958   C     0.53213   0.73939   0.95901   0.00000  Uiso   1.00
C959   C     0.96787   0.76061   0.04099   0.00000  Uiso   1.00
C960   C     0.73945   0.53214   0.95894   0.00000  Uiso   1.00
C961   C     0.96881   0.76181   0.91791   0.00000  Uiso   1.00
C962   C     0.76055   0.96786   0.04106   0.00000  Uiso   1.00
C963   C     0.96933   0.76376   0.95884   0.00000  Uiso   1.00
C964   C     0.53067   0.73625   0.04116   0.00000  Uiso   1.00
C965   C     0.59808   0.84818   0.25010   0.00000  Uiso   1.00
C966   C     0.90192   0.65182   0.74990   0.00000  Uiso   1.00
C967   C     0.65192   0.59818   0.24990   0.00000  Uiso   1.00
C968   C     0.84808   0.90182   0.75010   0.00000  Uiso   1.00
C969   C     0.90196   0.65178   0.25014   0.00000  Uiso   1.00
C970   C     0.59804   0.84822   0.74986   0.00000  Uiso   1.00
C971   C     0.84804   0.90178   0.24986   0.00000  Uiso   1.00
C972   C     0.53119   0.73819   0.08209   0.00000  Uiso   1.00
C973   C     0.65196   0.59822   0.75014   0.00000  Uiso   1.00
C974   C     0.59821   0.65195   0.75015   0.00000  Uiso   1.00
C975   C     0.90179   0.84805   0.24985   0.00000  Uiso   1.00
C976   C     0.65179   0.90195   0.74985   0.00000  Uiso   1.00
C977   C     0.84821   0.59805   0.25015   0.00000  Uiso   1.00
C978   C     0.90181   0.84807   0.75009   0.00000  Uiso   1.00
C979   C     0.59819   0.65193   0.24991   0.00000  Uiso   1.00
C980   C     0.84819   0.59807   0.74991   0.00000  Uiso   1.00
C981   C     0.65181   0.90193   0.25009   0.00000  Uiso   1.00
C982   C     0.50050   0.74974   0.47941   0.00000  Uiso   1.00
C983   C     0.76187   0.96882   0.91798   0.00000  Uiso   1.00
C984   C     0.99950   0.75026   0.52059   0.00000  Uiso   1.00
C985   C     0.75025   0.99952   0.47941   0.00000  Uiso   1.00
C986   C     0.74975   0.50048   0.52059   0.00000  Uiso   1.00
C987   C     0.75050   0.50026   0.97941   0.00000  Uiso   1.00
C988   C     0.74950   0.99974   0.02059   0.00000  Uiso   1.00
C989   C     0.50025   0.75048   0.97941   0.00000  Uiso   1.00
C990   C     0.99975   0.74952   0.02059   0.00000  Uiso   1.00
C991   C     0.51345   0.81626   0.39631   0.00000  Uiso   1.00
C992   C     0.98655   0.68374   0.60369   0.00000  Uiso   1.00
C993   C     0.68369   0.98677   0.39618   0.00000  Uiso   1.00
C994   C     0.73813   0.53118   0.08202   0.00000  Uiso   1.00
C995   C     0.81631   0.51324   0.60382   0.00000  Uiso   1.00
C996   C     0.96784   0.69043   0.39555   0.00000  Uiso   1.00
C997   C     0.53216   0.80957   0.60444   0.00000  Uiso   1.00
C998   C     0.80959   0.53216   0.39572   0.00000  Uiso   1.00
C999   C     0.69041   0.96784   0.60428   0.00000  Uiso   1.00
C1000  C     0.71796   0.55964   0.89556   0.00000  Uiso   1.00
C1001  C     0.78204   0.94036   0.10444   0.00000  Uiso   1.00
C1002  C     0.93369   0.76324   0.89618   0.00000  Uiso   1.00
C1003  C     0.56631   0.73677   0.10382   0.00000  Uiso   1.00
C1004  C     0.76332   0.93371   0.89630   0.00000  Uiso   1.00
C1005  C     0.53132   0.73799   0.91799   0.00000  Uiso   1.00
C1006  C     0.73668   0.56629   0.10370   0.00000  Uiso   1.00
C1007  C     0.55959   0.71784   0.89572   0.00000  Uiso   1.00
C1008  C     0.94041   0.78216   0.10428   0.00000  Uiso   1.00
C1009  C     0.96868   0.76201   0.08201   0.00000  Uiso   1.00
C1010  C     0.50062   0.74969   0.39800   0.00000  Uiso   1.00
C1011  C     0.99938   0.75031   0.60200   0.00000  Uiso   1.00
C1012  C     0.75029   0.99946   0.39800   0.00000  Uiso   1.00
C1013  C     0.98806   0.71885   0.58202   0.00000  Uiso   1.00
C1014  C     0.74971   0.50054   0.60200   0.00000  Uiso   1.00
C1015  C     0.75062   0.50031   0.89800   0.00000  Uiso   1.00
C1016  C     0.74938   0.99969   0.10200   0.00000  Uiso   1.00
C1017  C     0.50029   0.75054   0.89800   0.00000  Uiso   1.00
C1018  C     0.99971   0.74946   0.10200   0.00000  Uiso   1.00
C1019  C     0.97924   0.68650   0.48032   0.00000  Uiso   1.00
C1020  C     0.52076   0.81350   0.51968   0.00000  Uiso   1.00
C1021  C     0.81354   0.52067   0.48046   0.00000  Uiso   1.00
C1022  C     0.68647   0.97933   0.51954   0.00000  Uiso   1.00
C1023  C     0.52784   0.81057   0.48012   0.00000  Uiso   1.00
C1024  C     0.71881   0.98819   0.41791   0.00000  Uiso   1.00
C1025  C     0.97216   0.68943   0.51988   0.00000  Uiso   1.00
C1026  C     0.68937   0.97229   0.47997   0.00000  Uiso   1.00
C1027  C     0.81063   0.52771   0.52003   0.00000  Uiso   1.00
C1028  C     0.77769   0.93936   0.98013   0.00000  Uiso   1.00
C1029  C     0.72231   0.56064   0.01987   0.00000  Uiso   1.00
C1030  C     0.56353   0.72933   0.98046   0.00000  Uiso   1.00
C1031  C     0.93647   0.77067   0.01954   0.00000  Uiso   1.00
C1032  C     0.72939   0.56355   0.98032   0.00000  Uiso   1.00
C1033  C     0.77061   0.93645   0.01968   0.00000  Uiso   1.00
C1034  C     0.93937   0.77771   0.97997   0.00000  Uiso   1.00
C1035  C     0.78119   0.51181   0.58209   0.00000  Uiso   1.00
C1036  C     0.56063   0.72229   0.02003   0.00000  Uiso   1.00
C1037  C     0.74994   0.99995   0.35568   0.00000  Uiso   1.00
C1038  C     0.75006   0.50005   0.64432   0.00000  Uiso   1.00
C1039  C     0.50007   0.75006   0.35568   0.00000  Uiso   1.00
C1040  C     0.99993   0.74994   0.64432   0.00000  Uiso   1.00
C1041  C     0.99994   0.75005   0.85568   0.00000  Uiso   1.00
C1042  C     0.50006   0.74995   0.14432   0.00000  Uiso   1.00
C1043  C     0.75007   0.99994   0.85568   0.00000  Uiso   1.00
C1044  C     0.74993   0.50006   0.14432   0.00000  Uiso   1.00
C1045  C     0.67995   0.57008   0.24997   0.00000  Uiso   1.00
C1046  C     0.98801   0.71868   0.41792   0.00000  Uiso   1.00
C1047  C     0.82005   0.92992   0.75003   0.00000  Uiso   1.00
C1048  C     0.92997   0.67991   0.25003   0.00000  Uiso   1.00
C1049  C     0.57003   0.82009   0.74996   0.00000  Uiso   1.00
C1050  C     0.82003   0.92991   0.24996   0.00000  Uiso   1.00
C1051  C     0.67997   0.57009   0.75003   0.00000  Uiso   1.00
C1052  C     0.57005   0.82008   0.25003   0.00000  Uiso   1.00
C1053  C     0.92995   0.67992   0.74997   0.00000  Uiso   1.00
C1054  C     0.67992   0.92996   0.74995   0.00000  Uiso   1.00
C1055  C     0.82008   0.57004   0.25004   0.00000  Uiso   1.00
C1056  C     0.92991   0.82004   0.75002   0.00000  Uiso   1.00
C1057  C     0.51199   0.78133   0.58208   0.00000  Uiso   1.00
C1058  C     0.57009   0.67996   0.24998   0.00000  Uiso   1.00
C1059  C     0.82009   0.57004   0.74998   0.00000  Uiso   1.00
C1060  C     0.67991   0.92996   0.25002   0.00000  Uiso   1.00
C1061  C     0.57008   0.67996   0.75004   0.00000  Uiso   1.00
C1062  C     0.92992   0.82004   0.24995   0.00000  Uiso   1.00
C1063  C     0.62224   0.90445   0.22440   0.00000  Uiso   1.00
C1064  C     0.87776   0.59555   0.77560   0.00000  Uiso   1.00
C1065  C     0.59566   0.62243   0.22416   0.00000  Uiso   1.00
C1066  C     0.90434   0.87757   0.77584   0.00000  Uiso   1.00
C1067  C     0.87741   0.59582   0.22404   0.00000  Uiso   1.00
C1068  C     0.78132   0.51201   0.41799   0.00000  Uiso   1.00
C1069  C     0.62259   0.90418   0.77596   0.00000  Uiso   1.00
C1070  C     0.90392   0.87723   0.22366   0.00000  Uiso   1.00
C1071  C     0.59608   0.62277   0.77634   0.00000  Uiso   1.00
C1072  C     0.62282   0.59605   0.77633   0.00000  Uiso   1.00
C1073  C     0.87718   0.90395   0.22367   0.00000  Uiso   1.00
C1074  C     0.59586   0.87745   0.77596   0.00000  Uiso   1.00
C1075  C     0.90414   0.62254   0.22403   0.00000  Uiso   1.00
C1076  C     0.87761   0.90430   0.77584   0.00000  Uiso   1.00
C1077  C     0.62239   0.59570   0.22416   0.00000  Uiso   1.00
C1078  C     0.90448   0.62229   0.77560   0.00000  Uiso   1.00
C1079  C     0.71868   0.98799   0.58201   0.00000  Uiso   1.00
C1080  C     0.59552   0.87771   0.22440   0.00000  Uiso   1.00
C1081  C     0.87239   0.65430   0.72415   0.00000  Uiso   1.00
C1082  C     0.62761   0.84570   0.27585   0.00000  Uiso   1.00
C1083  C     0.84552   0.87229   0.72440   0.00000  Uiso   1.00
C1084  C     0.65448   0.62771   0.27560   0.00000  Uiso   1.00
C1085  C     0.62717   0.84605   0.72366   0.00000  Uiso   1.00
C1086  C     0.87283   0.65395   0.27634   0.00000  Uiso   1.00
C1087  C     0.65414   0.62746   0.72404   0.00000  Uiso   1.00
C1088  C     0.84586   0.87254   0.27596   0.00000  Uiso   1.00
C1089  C     0.87259   0.84582   0.27596   0.00000  Uiso   1.00
C1090  C     0.73808   0.53135   0.91792   0.00000  Uiso   1.00
C1091  C     0.62741   0.65418   0.72404   0.00000  Uiso   1.00
C1092  C     0.84608   0.62722   0.27634   0.00000  Uiso   1.00
C1093  C     0.65392   0.87278   0.72366   0.00000  Uiso   1.00
C1094  C     0.62776   0.65445   0.27560   0.00000  Uiso   1.00
C1095  C     0.87224   0.84555   0.72440   0.00000  Uiso   1.00
C1096  C     0.65434   0.87243   0.27584   0.00000  Uiso   1.00
C1097  C     0.84566   0.62756   0.72416   0.00000  Uiso   1.00
C1098  C     0.98938   0.71788   0.45894   0.00000  Uiso   1.00
C1099  C     0.51062   0.78212   0.54106   0.00000  Uiso   1.00
C1100  C     0.78213   0.51061   0.45901   0.00000  Uiso   1.00
H1101  H     0.61974   0.92700   0.20426   0.00000  Uiso   1.00
H1102  H     0.87934   0.92624   0.20316   0.00000  Uiso   1.00
H1103  H     0.57359   0.87967   0.79645   0.00000  Uiso   1.00
H1104  H     0.92641   0.62033   0.20355   0.00000  Uiso   1.00
H1105  H     0.88010   0.92685   0.79599   0.00000  Uiso   1.00
H1106  H     0.61990   0.57315   0.20401   0.00000  Uiso   1.00
H1107  H     0.92706   0.61983   0.79574   0.00000  Uiso   1.00
H1108  H     0.57294   0.88017   0.20426   0.00000  Uiso   1.00
H1109  H     0.86990   0.67685   0.70401   0.00000  Uiso   1.00
H1110  H     0.63010   0.82315   0.29599   0.00000  Uiso   1.00
H1111  H     0.82294   0.86983   0.70427   0.00000  Uiso   1.00
H1112  H     0.88026   0.57300   0.79574   0.00000  Uiso   1.00
H1113  H     0.67706   0.63017   0.29573   0.00000  Uiso   1.00
H1114  H     0.62933   0.82376   0.70316   0.00000  Uiso   1.00
H1115  H     0.87067   0.67624   0.29684   0.00000  Uiso   1.00
H1116  H     0.67642   0.62968   0.70356   0.00000  Uiso   1.00
H1117  H     0.82359   0.87032   0.29644   0.00000  Uiso   1.00
H1118  H     0.87041   0.82352   0.29644   0.00000  Uiso   1.00
H1119  H     0.62959   0.67648   0.70356   0.00000  Uiso   1.00
H1120  H     0.82383   0.62942   0.29684   0.00000  Uiso   1.00
H1121  H     0.67617   0.87058   0.70316   0.00000  Uiso   1.00
H1122  H     0.63026   0.67700   0.29574   0.00000  Uiso   1.00
H1123  H     0.57309   0.61998   0.20402   0.00000  Uiso   1.00
H1124  H     0.86974   0.82300   0.70426   0.00000  Uiso   1.00
H1125  H     0.67691   0.86998   0.29599   0.00000  Uiso   1.00
H1126  H     0.82309   0.63002   0.70401   0.00000  Uiso   1.00
H1127  H     0.99435   0.86761   0.39101   0.00000  Uiso   1.00
H1128  H     0.50565   0.63239   0.60899   0.00000  Uiso   1.00
H1129  H     0.63238   0.50597   0.39086   0.00000  Uiso   1.00
H1130  H     0.86762   0.99404   0.60914   0.00000  Uiso   1.00
H1131  H     0.92057   0.66332   0.38756   0.00000  Uiso   1.00
H1132  H     0.57943   0.83668   0.61244   0.00000  Uiso   1.00
H1133  H     0.83677   0.57940   0.38789   0.00000  Uiso   1.00
H1134  H     0.92691   0.88002   0.79598   0.00000  Uiso   1.00
H1135  H     0.66323   0.92060   0.61210   0.00000  Uiso   1.00
H1136  H     0.67074   0.58685   0.88759   0.00000  Uiso   1.00
H1137  H     0.82926   0.91315   0.11241   0.00000  Uiso   1.00
H1138  H     0.88238   0.74404   0.89086   0.00000  Uiso   1.00
H1139  H     0.61763   0.75596   0.10914   0.00000  Uiso   1.00
H1140  H     0.74412   0.88240   0.89098   0.00000  Uiso   1.00
H1141  H     0.75588   0.61760   0.10902   0.00000  Uiso   1.00
H1142  H     0.58677   0.67060   0.88789   0.00000  Uiso   1.00
H1143  H     0.91323   0.82940   0.11211   0.00000  Uiso   1.00
H1144  H     0.87959   0.57352   0.20356   0.00000  Uiso   1.00
H1145  H     0.62041   0.92648   0.79644   0.00000  Uiso   1.00
H1146  H     0.92617   0.87942   0.20316   0.00000  Uiso   1.00
H1147  H     0.57383   0.62058   0.79684   0.00000  Uiso   1.00
H1148  H     0.62066   0.57376   0.79683   0.00000  Uiso   1.00
I1149  I     0.98554   0.63166   0.45906   0.00000  Uiso   1.00
I1150  I     0.68082   0.59649   0.04206   0.00000  Uiso   1.00
I1151  I     0.61835   0.73570   0.95925   0.00000  Uiso   1.00
I1152  I     0.88165   0.76430   0.04075   0.00000  Uiso   1.00
I1153  I     0.73583   0.61836   0.95905   0.00000  Uiso   1.00
I1154  I     0.76417   0.88164   0.04095   0.00000  Uiso   1.00
I1155  I     0.90355   0.81919   0.95761   0.00000  Uiso   1.00
I1156  I     0.59646   0.68081   0.04239   0.00000  Uiso   1.00
I1157  I     0.51446   0.86834   0.54094   0.00000  Uiso   1.00
I1158  I     0.86835   0.51429   0.45925   0.00000  Uiso   1.00
I1159  I     0.63165   0.98571   0.54075   0.00000  Uiso   1.00
I1160  I     0.56941   0.84631   0.45793   0.00000  Uiso   1.00
I1161  I     0.93059   0.65369   0.54207   0.00000  Uiso   1.00
I1162  I     0.65354   0.93081   0.45761   0.00000  Uiso   1.00
I1163  I     0.84646   0.56919   0.54239   0.00000  Uiso   1.00
I1164  I     0.81918   0.90351   0.95794   0.00000  Uiso   1.00
O1165  O     0.75000   0.50000   0.25000   0.00000  Uiso   1.00
O1166  O     0.75000   0.96963   0.66245   0.00000  Uiso   1.00
O1167  O     0.96964   0.75000   0.33755   0.00000  Uiso   1.00
O1168  O     0.53037   0.75000   0.66245   0.00000  Uiso   1.00
O1169  O     0.50000   0.71963   0.83755   0.00000  Uiso   1.00
O1170  O     0.50000   0.78037   0.16245   0.00000  Uiso   1.00
O1171  O     0.78037   0.50000   0.83755   0.00000  Uiso   1.00
O1172  O     0.71964   0.50000   0.16245   0.00000  Uiso   1.00
O1173  O     0.50000   0.78036   0.83755   0.00000  Uiso   1.00
O1174  O     0.50000   0.71963   0.16245   0.00000  Uiso   1.00
O1175  O     0.71964   0.50000   0.83755   0.00000  Uiso   1.00
O1176  O     0.75000   0.50000   0.75000   0.00000  Uiso   1.00
O1177  O     0.78037   0.50000   0.16245   0.00000  Uiso   1.00
O1178  O     0.70725   0.57307   0.27302   0.00000  Uiso   1.00
O1179  O     0.79276   0.92692   0.72698   0.00000  Uiso   1.00
O1180  O     0.92693   0.70724   0.27302   0.00000  Uiso   1.00
O1181  O     0.57308   0.79275   0.72698   0.00000  Uiso   1.00
O1182  O     0.79276   0.92692   0.27302   0.00000  Uiso   1.00
O1183  O     0.70725   0.57307   0.72698   0.00000  Uiso   1.00
O1184  O     0.57308   0.79275   0.27302   0.00000  Uiso   1.00
O1185  O     0.92693   0.70724   0.72698   0.00000  Uiso   1.00
O1186  O     0.70725   0.92692   0.72698   0.00000  Uiso   1.00
O1187  O     0.50000   0.75000   0.25000   0.00000  Uiso   1.00
O1188  O     0.79276   0.57307   0.27302   0.00000  Uiso   1.00
O1189  O     0.92693   0.79275   0.72698   0.00000  Uiso   1.00
O1190  O     0.57308   0.70724   0.27302   0.00000  Uiso   1.00
O1191  O     0.79276   0.57307   0.72698   0.00000  Uiso   1.00
O1192  O     0.70725   0.92692   0.27302   0.00000  Uiso   1.00
O1193  O     0.57308   0.70724   0.72698   0.00000  Uiso   1.00
O1194  O     0.92693   0.79275   0.27302   0.00000  Uiso   1.00
O1195  O     0.95725   0.82307   0.77302   0.00000  Uiso   1.00
O1196  O     0.54276   0.67692   0.22698   0.00000  Uiso   1.00
O1197  O     0.67693   0.95724   0.77302   0.00000  Uiso   1.00
O1198  O     0.50000   0.75000   0.75000   0.00000  Uiso   1.00
O1199  O     0.82308   0.54275   0.22698   0.00000  Uiso   1.00
O1200  O     0.54276   0.67692   0.77302   0.00000  Uiso   1.00
O1201  O     0.95725   0.82307   0.22698   0.00000  Uiso   1.00
O1202  O     0.82308   0.54275   0.77302   0.00000  Uiso   1.00
O1203  O     0.67693   0.95724   0.22698   0.00000  Uiso   1.00
O1204  O     0.95725   0.67692   0.22698   0.00000  Uiso   1.00
O1205  O     0.54276   0.82307   0.77302   0.00000  Uiso   1.00
O1206  O     0.67693   0.54275   0.22698   0.00000  Uiso   1.00
O1207  O     0.82308   0.95724   0.77302   0.00000  Uiso   1.00
O1208  O     0.54276   0.82307   0.22698   0.00000  Uiso   1.00
O1209  O     0.75000   0.96963   0.33755   0.00000  Uiso   1.00
O1210  O     0.95725   0.67692   0.77302   0.00000  Uiso   1.00
O1211  O     0.82308   0.95724   0.22698   0.00000  Uiso   1.00
O1212  O     0.67693   0.54275   0.77302   0.00000  Uiso   1.00
O1213  O     0.53411   0.81994   0.36874   0.00000  Uiso   1.00
O1214  O     0.99098   0.84513   0.40775   0.00000  Uiso   1.00
O1215  O     0.96589   0.68005   0.63125   0.00000  Uiso   1.00
O1216  O     0.50902   0.65487   0.59225   0.00000  Uiso   1.00
O1217  O     0.67997   0.96615   0.36855   0.00000  Uiso   1.00
O1218  O     0.65487   0.50928   0.40764   0.00000  Uiso   1.00
O1219  O     0.82003   0.53386   0.63145   0.00000  Uiso   1.00
O1220  O     0.75000   0.53036   0.66245   0.00000  Uiso   1.00
O1221  O     0.84513   0.99073   0.59236   0.00000  Uiso   1.00
O1222  O     0.98273   0.67436   0.36878   0.00000  Uiso   1.00
O1223  O     0.93155   0.68278   0.40491   0.00000  Uiso   1.00
O1224  O     0.51727   0.82564   0.63122   0.00000  Uiso   1.00
O1225  O     0.56845   0.81722   0.59508   0.00000  Uiso   1.00
O1226  O     0.82563   0.51728   0.36892   0.00000  Uiso   1.00
O1227  O     0.81730   0.56843   0.40519   0.00000  Uiso   1.00
O1228  O     0.67438   0.98272   0.63108   0.00000  Uiso   1.00
O1229  O     0.68270   0.93157   0.59481   0.00000  Uiso   1.00
O1230  O     0.73286   0.57566   0.86877   0.00000  Uiso   1.00
O1231  O     0.53037   0.75000   0.33755   0.00000  Uiso   1.00
O1232  O     0.68169   0.56737   0.90494   0.00000  Uiso   1.00
O1233  O     0.76714   0.92434   0.13123   0.00000  Uiso   1.00
O1234  O     0.81831   0.93263   0.09506   0.00000  Uiso   1.00
O1235  O     0.92997   0.78385   0.86854   0.00000  Uiso   1.00
O1236  O     0.90487   0.74073   0.90764   0.00000  Uiso   1.00
O1237  O     0.57003   0.71615   0.13146   0.00000  Uiso   1.00
O1238  O     0.59513   0.75927   0.09236   0.00000  Uiso   1.00
O1239  O     0.78398   0.93000   0.86874   0.00000  Uiso   1.00
O1240  O     0.74079   0.90489   0.90773   0.00000  Uiso   1.00
O1241  O     0.71602   0.57000   0.13126   0.00000  Uiso   1.00
O1242  O     0.96964   0.75000   0.66245   0.00000  Uiso   1.00
O1243  O     0.75921   0.59511   0.09227   0.00000  Uiso   1.00
O1244  O     0.57562   0.73272   0.86892   0.00000  Uiso   1.00
O1245  O     0.56730   0.68157   0.90519   0.00000  Uiso   1.00
O1246  O     0.92437   0.76728   0.13108   0.00000  Uiso   1.00
O1247  O     0.93270   0.81843   0.09481   0.00000  Uiso   1.00
O1248  O     0.75000   0.53036   0.33755   0.00000  Uiso   1.00
Zn1249 Zn    0.70660   0.50000   0.21735   0.00000  Uiso   1.00
Zn1250 Zn    0.54341   0.75000   0.28265   0.00000  Uiso   1.00
Zn1251 Zn    0.75000   0.95659   0.71735   0.00000  Uiso   1.00
Zn1252 Zn    0.75000   0.54340   0.28265   0.00000  Uiso   1.00
Zn1253 Zn    0.54341   0.75000   0.71735   0.00000  Uiso   1.00
Zn1254 Zn    0.95660   0.75000   0.28265   0.00000  Uiso   1.00
Zn1255 Zn    0.75000   0.54340   0.71735   0.00000  Uiso   1.00
Zn1256 Zn    0.75000   0.95659   0.28265   0.00000  Uiso   1.00
Zn1257 Zn    0.79341   0.50000   0.78265   0.00000  Uiso   1.00
Zn1258 Zn    0.50000   0.70659   0.21735   0.00000  Uiso   1.00
Zn1259 Zn    0.50000   0.79341   0.78265   0.00000  Uiso   1.00
Zn1260 Zn    0.79341   0.50000   0.21735   0.00000  Uiso   1.00
Zn1261 Zn    0.70660   0.50000   0.78265   0.00000  Uiso   1.00
Zn1262 Zn    0.50000   0.79341   0.21735   0.00000  Uiso   1.00
Zn1263 Zn    0.50000   0.70659   0.78265   0.00000  Uiso   1.00
Zn1264 Zn    0.95660   0.75000   0.71735   0.00000  Uiso   1.00
loop_
_geom_bond_atom_site_label_1
_geom_bond_atom_site_label_2
_geom_bond_distance
_geom_bond_site_symmetry_2
_ccdc_geom_bond_type
C1     C62     1.406   .     A
C1     C43     1.490   .     S
C1     C4      1.412   .     A
C2     C53     1.487   .     S
C2     C14     1.414   .     A
C2     C68     1.407   .     A
C3     C131    1.414   .     A
C3     C74     1.416   .     A
C3     C670    1.424   .     S
C4     C75     1.415   .     A
C4     C34     1.422   .     A
C5     C36     1.422   .     A
C5     C77     1.415   .     A
C5     C65     1.412   .     A
C6     C78     1.415   .     A
C6     C76     1.412   .     A
C6     C37     1.422   .     A
C7     C79     1.415   .     A
C7     C87     1.412   .     A
C7     C38     1.422   .     A
C8     C35     1.412   .     A
C8     C80     1.415   .     A
C8     C671    1.422   .     S
C9     C46     1.412   .     A
C9     C81     1.415   .     A
C9     C672    1.422   1_545 S
C10    C41     1.424   .     A
C10    C82     1.416   .     A
C10    C57     1.414   .     A
C11    C61     1.414   .     A
C11    C42     1.424   .     A
C11    C83     1.416   .     A
C12    C84     1.416   .     A
C12    C39     1.424   .     A
C12    C142    1.414   .     A
C13    C54     1.490   .     S
C13    C15     1.412   .     A
C13    C385    1.406   .     S
C14    C40     1.424   .     A
C14    C85     1.416   .     A
C15    C86     1.415   .     A
C15    C357    1.422   .     S
C16    C88     1.415   .     A
C16    C24     1.412   .     A
C16    C358    1.422   1_455 S
C17    C104    1.456   .     S
C17    C132    1.402   .     A
C17    C134    1.402   .     A
C18    C133    1.402   .     A
C18    C130    1.402   .     A
C18    C105    1.456   .     S
C19    C129    1.402   .     A
C19    C97     1.456   .     S
C19    C136    1.402   .     A
C20    C99     1.456   .     S
C20    C128    1.402   .     A
C20    C135    1.402   .     A
C21    C138    1.402   .     A
C21    C127    1.402   .     A
C21    C100    1.456   .     S
C22    C137    1.402   .     A
C22    C101    1.456   .     S
C22    C126    1.402   .     A
C23    C140    1.402   .     A
C23    C102    1.456   .     S
C23    C125    1.402   .     A
C24    C55     1.490   .     S
C24    C386    1.406   1_455 S
C25    C139    1.402   .     A
C25    C103    1.456   .     S
C25    C124    1.402   .     A
C26    C123    1.402   .     A
C26    C143    1.402   .     A
C26    C113    1.456   .     S
C27    C141    1.402   .     A
C27    C122    1.402   .     A
C27    C114    1.456   .     S
C28    C145    1.402   .     A
C28    C106    1.456   .     S
C28    C121    1.402   .     A
C29    C119    1.402   .     A
C29    C107    1.456   .     S
C29    C144    1.402   .     A
C30    C118    1.402   .     A
C30    C147    1.402   .     A
C30    C108    1.456   .     S
C31    C110    1.456   .     S
C31    C117    1.402   .     A
C31    C146    1.402   .     A
C32    C116    1.402   .     A
C32    C111    1.456   .     S
C32    C149    1.402   .     A
C33    C115    1.402   .     A
C33    C148    1.402   .     A
C33    C112    1.456   .     S
C34    C352    1.419   1_455 S
C34    C466    1.424   1_455 S
C35    C56     1.490   .     S
C35    C699    1.406   .     S
C36    C350    1.419   .     S
C36    C467    1.424   .     S
C37    C670    1.419   .     S
C37    C784    1.424   .     S
C38    C669    1.419   1_545 S
C38    C635    1.424   1_545 S
C39    C640    1.422   1_545 S
C39    C672    1.419   1_546 S
C40    C641    1.422   .     S
C40    C671    1.419   1_554 S
C41    C331    1.422   1_455 S
C41    C358    1.419   1_456 S
C42    C332    1.422   .     S
C42    C357    1.419   1_554 S
C43    O265    1.223   .     D
C43    O582    1.398   1_455 S
C44    C65     1.490   .     S
C44    O267    1.223   .     D
C44    O584    1.398   .     S
C45    C76     1.490   .     S
C45    O269    1.223   .     D
C45    O902    1.398   .     S
C46    C58     1.490   .     S
C46    C700    1.406   1_545 S
C47    C87     1.490   .     S
C47    O271    1.223   .     D
C47    O905    1.398   1_545 S
C48    O274    1.224   .     D
C48    C98     1.487   .     S
C48    O275    1.398   .     S
C49    O277    1.398   .     S
C49    O276    1.224   .     D
C49    C109    1.487   .     S
C50    C120    1.487   .     S
C50    O278    1.224   .     D
C50    O279    1.398   .     S
C51    C131    1.487   .     S
C51    O280    1.224   .     D
C51    O281    1.398   .     S
C52    O284    1.398   .     S
C52    C142    1.487   .     S
C52    O282    1.224   .     D
C53    O286    1.398   .     S
C53    O285    1.224   .     D
C54    O287    1.223   .     D
C54    O288    1.398   .     S
C55    O289    1.223   .     D
C55    O290    1.398   .     S
C56    O291    1.223   .     D
C56    O292    1.398   .     S
C57    C59     1.487   .     S
C57    C69     1.407   .     A
C58    O295    1.398   .     S
C58    O293    1.223   .     D
C59    O296    1.224   .     D
C59    O297    1.398   .     S
C60    O299    1.398   .     S
C60    C61     1.487   .     S
C60    O298    1.224   .     D
C61    C70     1.407   .     A
C62    C91     1.458   .     S
C62    C414    1.407   1_455 S
C63    C65     1.406   .     A
C63    C92     1.458   .     S
C63    C425    1.407   .     S
C64    C89     1.458   .     S
C64    C76     1.406   .     A
C64    C752    1.407   .     S
C66    C90     1.458   .     S
C66    C87     1.406   .     A
C66    C763    1.407   1_545 S
C67    C142    1.407   .     A
C67    C667    1.406   1_545 S
C67    C727    1.458   1_545 S
C68    C678    1.406   .     S
C68    C728    1.458   .     S
C69    C329    1.406   1_455 S
C69    C409    1.458   1_455 S
C70    C340    1.406   .     S
C70    C410    1.458   .     S
C71    C150    1.416   .     A
C71    C77     1.392   .     A
C71    I201    2.152   .     S
C72    C151    1.416   .     A
C72    C75     1.392   .     A
C72    I209    2.152   .     S
C73    C79     1.392   .     A
C73    C152    1.416   .     A
C73    I210    2.152   .     S
C74    I211    2.152   .     S
C74    C78     1.392   .     A
C75    I212    2.152   .     S
C77    I213    2.152   .     S
C78    I214    2.152   .     S
C79    I215    2.152   .     S
C80    I216    2.152   .     S
C80    C85     1.392   1_556 S
C81    I202    2.152   .     S
C81    C84     1.392   1_554 S
C82    I203    2.152   .     S
C82    C88     1.392   1_556 S
C83    I204    2.152   .     S
C83    C86     1.392   1_554 S
C84    I205    2.152   .     S
C84    C81     1.392   1_556 S
C85    I206    2.152   .     S
C85    C80     1.392   1_554 S
C86    I207    2.152   .     S
C86    C83     1.392   1_556 S
C88    I208    2.152   .     S
C88    C82     1.392   1_554 S
C89    O261    1.275   .     A
C89    O932    1.278   .     S
C90    O272    1.275   .     A
C90    O850    1.278   1_545 S
C91    O283    1.275   .     A
C91    O535    1.278   1_455 S
C92    O294    1.275   .     A
C92    O536    1.278   .     S
C93    O541    1.275   .     A
C93    O537    1.278   .     A
C93    C385    1.458   .     S
C94    O222    1.278   .     A
C94    C386    1.458   1_455 S
C94    O226    1.275   .     S
C95    C699    1.458   .     S
C95    O855    1.275   .     S
C95    O859    1.278   .     S
C96    O229    1.278   .     A
C96    O224    1.275   .     A
C96    C700    1.458   1_545 S
C97    O258    1.282   .     A
C97    O230    1.282   .     A
C98    C150    1.414   .     A
C98    C378    1.407   .     S
C99    O231    1.282   .     A
C99    O259    1.282   .     A
C100   O256    1.283   .     A
C100   O232    1.282   .     A
C101   O257    1.283   .     A
C101   O233    1.282   .     A
C102   O234    1.283   .     A
C102   O263    1.282   .     A
C103   O235    1.283   .     A
C103   O264    1.282   .     A
C104   O236    1.282   .     A
C104   O260    1.282   .     A
C105   O237    1.282   .     A
C105   O262    1.282   .     A
C106   O238    1.283   .     A
C106   O249    1.283   .     A
C107   O240    1.283   .     A
C107   O251    1.283   .     A
C108   O241    1.282   .     A
C108   O247    1.281   .     A
C109   C151    1.414   .     A
C109   C379    1.407   1_455 S
C110   O242    1.282   .     A
C110   O248    1.281   .     A
C111   O243    1.281   .     A
C111   O254    1.282   .     A
C112   O255    1.282   .     A
C112   O244    1.281   .     A
C113   O252    1.283   .     A
C113   O245    1.283   .     A
C114   O253    1.283   .     A
C114   O246    1.283   .     A
C115   H153    1.083   .     S
C115   C132    1.386   .     A
C116   C130    1.386   .     A
C116   H164    1.083   .     S
C117   C129    1.386   .     A
C117   H175    1.083   .     S
C118   H186    1.083   .     S
C118   C128    1.386   .     A
C119   C127    1.386   .     A
C119   H196    1.083   .     S
C120   C152    1.414   .     A
C120   C696    1.407   1_545 S
C121   H197    1.083   .     S
C121   C126    1.386   .     A
C122   H198    1.083   .     S
C122   C125    1.386   .     A
C123   C124    1.386   .     A
C123   H199    1.083   .     S
C124   H200    1.083   .     S
C125   H154    1.083   .     S
C126   H155    1.083   .     S
C127   H156    1.083   .     S
C128   H157    1.083   .     S
C129   H158    1.083   .     S
C130   H159    1.083   .     S
C131   C698    1.407   .     S
C132   H160    1.083   .     S
C133   C149    1.386   .     A
C133   H161    1.083   .     S
C134   H162    1.083   .     S
C134   C148    1.386   .     A
C135   H163    1.083   .     S
C135   C147    1.386   .     A
C136   C146    1.386   .     A
C136   H165    1.083   .     S
C137   H166    1.083   .     S
C137   C145    1.386   .     A
C138   C144    1.386   .     A
C138   H167    1.083   .     S
C139   C143    1.386   .     A
C139   H168    1.083   .     S
C140   C141    1.386   .     A
C140   H169    1.083   .     S
C141   H170    1.083   .     S
C143   H171    1.083   .     S
C144   H172    1.083   .     S
C145   H173    1.083   .     S
C146   H174    1.083   .     S
C147   H176    1.083   .     S
C148   H177    1.083   .     S
C149   H178    1.083   .     S
C150   C350    1.424   .     S
C151   C352    1.424   1_455 S
C152   C669    1.424   1_545 S
H179   O266    1.014   .     S
H180   O268    1.014   .     S
H181   O270    1.014   .     S
H182   O273    1.014   .     S
H183   O275    1.014   .     S
H184   O277    1.014   .     S
H185   O279    1.014   .     S
H187   O281    1.014   .     S
H188   O284    1.014   .     S
H189   O286    1.014   .     S
H190   O288    1.014   .     S
H191   O290    1.014   .     S
H192   O292    1.014   .     S
H193   O295    1.014   .     S
H194   O297    1.014   .     S
H195   O299    1.014   .     S
O217   Zn304   1.949   .     S
O217   Zn301   1.948   .     S
O217   Zn312   1.950   .     S
O217   Zn940   1.949   1_545 S
O218   Zn303   1.951   .     S
O218   C722    1.278   .     S
O219   Zn306   1.950   .     S
O219   C407    1.278   .     S
O220   Zn305   1.950   .     S
O220   C408    1.278   1_455 S
O221   Zn315   1.951   .     S
O221   C409    1.278   1_455 A
O222   Zn314   1.951   .     S
O223   Zn309   1.952   .     S
O223   C727    1.275   1_545 S
O224   Zn301   1.952   .     S
O225   C409    1.275   1_455 A
O225   Zn311   1.951   .     S
O226   Zn310   1.951   .     S
O227   Zn313   1.950   .     S
O227   C727    1.278   1_545 S
O228   Zn307   1.949   .     S
O228   Zn309   1.948   .     S
O228   Zn313   1.950   .     S
O228   Zn935   1.949   1_545 S
O229   Zn312   1.950   .     S
O230   Zn304   1.937   .     S
O231   Zn303   1.937   .     S
O232   Zn306   1.937   .     S
O233   Zn305   1.937   .     S
O234   Zn308   1.937   .     S
O235   Zn307   1.937   .     S
O236   Zn302   1.937   .     S
O237   Zn316   1.937   .     S
O238   Zn303   1.937   .     S
O239   Zn622   1.950   1_455 S
O239   Zn310   1.949   .     S
O239   Zn302   1.948   .     S
O239   Zn314   1.949   .     S
O240   Zn304   1.937   .     S
O241   Zn316   1.937   .     S
O242   Zn302   1.937   .     S
O243   Zn307   1.937   .     S
O244   Zn308   1.937   .     S
O245   Zn305   1.937   .     S
O246   Zn306   1.937   .     S
O247   Zn627   1.937   .     S
O248   Zn310   1.937   .     S
O249   Zn945   1.937   .     S
O250   Zn305   1.950   .     S
O250   Zn311   1.949   .     S
O250   Zn315   1.949   .     S
O250   Zn632   1.948   1_455 S
O251   Zn312   1.937   .     S
O252   Zn315   1.937   .     S
O253   Zn630   1.937   .     S
O254   Zn309   1.937   .     S
O255   Zn933   1.937   .     S
O256   Zn626   1.937   .     S
O257   Zn311   1.937   .     S
O258   Zn301   1.937   .     S
O259   Zn941   1.937   .     S
O260   Zn314   1.937   .     S
O261   Zn308   1.951   .     S
O262   Zn631   1.937   .     S
O263   Zn944   1.937   .     S
O264   Zn313   1.937   .     S
O266   C359    1.398   .     S
O268   C360    1.398   1_455 S
O270   C677    1.398   1_545 S
O272   Zn307   1.951   .     S
O273   C679    1.398   .     S
O283   Zn302   1.952   .     S
O294   Zn316   1.952   .     S
O300   Zn304   1.951   .     S
O300   C721    1.278   1_545 S
Zn301  O887    1.937   1_545 S
Zn303  O860    1.949   .     S
Zn306  O555    1.950   .     S
Zn308  O849    1.949   .     S
Zn309  O891    1.937   1_545 S
Zn310  O572    1.937   1_455 S
Zn311  O563    1.937   1_455 S
Zn312  O895    1.937   1_545 S
Zn313  O881    1.937   1_545 S
Zn314  O569    1.937   1_455 S
Zn315  O578    1.937   1_455 S
Zn316  O566    1.948   .     S
C317   C378    1.406   .     A
C317   C359    1.490   .     S
C317   C320    1.412   .     A
C318   C369    1.487   .     S
C318   C330    1.414   .     A
C318   C384    1.407   .     A
C319   C447    1.414   .     A
C319   C390    1.416   .     A
C319   C986    1.424   .     S
C320   C391    1.415   .     A
C320   C350    1.422   .     A
C321   C352    1.422   .     A
C321   C393    1.415   .     A
C321   C381    1.412   .     A
C322   C394    1.415   .     A
C322   C392    1.412   .     A
C322   C353    1.422   .     A
C323   C395    1.415   .     A
C323   C403    1.412   .     A
C323   C354    1.422   .     A
C324   C351    1.412   .     A
C324   C396    1.415   .     A
C324   C987    1.422   .     S
C325   C362    1.412   .     A
C325   C397    1.415   .     A
C325   C988    1.422   1_545 S
C326   C357    1.424   .     A
C326   C398    1.416   .     A
C326   C373    1.414   .     A
C327   C377    1.414   .     A
C327   C358    1.424   .     A
C327   C399    1.416   .     A
C328   C400    1.416   .     A
C328   C355    1.424   .     A
C328   C458    1.414   .     A
C329   C370    1.490   .     S
C329   C331    1.412   .     A
C329   C69     1.406   1_655 S
C330   C356    1.424   .     A
C330   C401    1.416   .     A
C331   C402    1.415   .     A
C331   C41     1.422   1_655 S
C332   C404    1.415   .     A
C332   C340    1.412   .     A
C333   C420    1.456   .     S
C333   C448    1.402   .     A
C333   C450    1.402   .     A
C334   C449    1.402   .     A
C334   C446    1.402   .     A
C334   C421    1.456   .     S
C335   C445    1.402   .     A
C335   C413    1.456   .     S
C335   C452    1.402   .     A
C336   C415    1.456   .     S
C336   C444    1.402   .     A
C336   C451    1.402   .     A
C337   C454    1.402   .     A
C337   C443    1.402   .     A
C337   C416    1.456   .     S
C338   C453    1.402   .     A
C338   C417    1.456   .     S
C338   C442    1.402   .     A
C339   C456    1.402   .     A
C339   C418    1.456   .     S
C339   C441    1.402   .     A
C340   C371    1.490   .     S
C341   C455    1.402   .     A
C341   C419    1.456   .     S
C341   C440    1.402   .     A
C342   C439    1.402   .     A
C342   C459    1.402   .     A
C342   C429    1.456   .     S
C343   C457    1.402   .     A
C343   C438    1.402   .     A
C343   C430    1.456   .     S
C344   C461    1.402   .     A
C344   C422    1.456   .     S
C344   C437    1.402   .     A
C345   C435    1.402   .     A
C345   C423    1.456   .     S
C345   C460    1.402   .     A
C346   C434    1.402   .     A
C346   C463    1.402   .     A
C346   C424    1.456   .     S
C347   C426    1.456   .     S
C347   C433    1.402   .     A
C347   C462    1.402   .     A
C348   C432    1.402   .     A
C348   C427    1.456   .     S
C348   C465    1.402   .     A
C349   C431    1.402   .     A
C349   C464    1.402   .     A
C349   C428    1.456   .     S
C351   C372    1.490   .     S
C351   C1015   1.406   .     S
C352   C34     1.419   1_655 S
C352   C151    1.424   1_655 S
C353   C986    1.419   .     S
C353   C1100   1.424   .     S
C354   C985    1.419   1_545 S
C354   C951    1.424   1_545 S
C355   C956    1.422   1_545 S
C355   C988    1.419   1_546 S
C356   C957    1.422   .     S
C356   C987    1.419   1_554 S
C357   C42     1.419   1_556 S
C358   C16     1.422   1_655 S
C358   C41     1.419   1_654 S
C359   O581    1.223   .     D
C360   C381    1.490   .     S
C360   O583    1.223   .     D
C360   O268    1.398   1_655 S
C361   C392    1.490   .     S
C361   O585    1.223   .     D
C361   O1218   1.398   .     S
C362   C374    1.490   .     S
C362   C1016   1.406   1_545 S
C363   C403    1.490   .     S
C363   O587    1.223   .     D
C363   O1221   1.398   1_545 S
C364   O590    1.224   .     D
C364   C414    1.487   .     S
C364   O591    1.398   .     S
C365   O593    1.398   .     S
C365   O592    1.224   .     D
C365   C425    1.487   .     S
C366   C436    1.487   .     S
C366   O594    1.224   .     D
C366   O595    1.398   .     S
C367   C447    1.487   .     S
C367   O596    1.224   .     D
C367   O597    1.398   .     S
C368   O600    1.398   .     S
C368   C458    1.487   .     S
C368   O598    1.224   .     D
C369   O602    1.398   .     S
C369   O601    1.224   .     D
C370   O603    1.223   .     D
C370   O604    1.398   .     S
C371   O605    1.223   .     D
C371   O606    1.398   .     S
C372   O607    1.223   .     D
C372   O608    1.398   .     S
C373   C375    1.487   .     S
C373   C385    1.407   .     A
C374   O611    1.398   .     S
C374   O609    1.223   .     D
C375   O612    1.224   .     D
C375   O613    1.398   .     S
C376   O615    1.398   .     S
C376   C377    1.487   .     S
C376   O614    1.224   .     D
C377   C386    1.407   .     A
C378   C407    1.458   .     S
C379   C381    1.406   .     A
C379   C408    1.458   .     S
C379   C109    1.407   1_655 S
C380   C405    1.458   .     S
C380   C392    1.406   .     A
C380   C1068   1.407   .     S
C382   C406    1.458   .     S
C382   C403    1.406   .     A
C382   C1079   1.407   1_545 S
C383   C458    1.407   .     A
C383   C983    1.406   1_545 S
C383   C1043   1.458   1_545 S
C384   C994    1.406   .     S
C384   C1044   1.458   .     S
C386   C24     1.406   1_655 S
C386   C94     1.458   1_655 S
C387   C466    1.416   .     A
C387   C393    1.392   .     A
C387   I517    2.152   .     S
C388   C467    1.416   .     A
C388   C391    1.392   .     A
C388   I525    2.152   .     S
C389   C395    1.392   .     A
C389   C468    1.416   .     A
C389   I526    2.152   .     S
C390   I527    2.152   .     S
C390   C394    1.392   .     A
C391   I528    2.152   .     S
C393   I529    2.152   .     S
C394   I530    2.152   .     S
C395   I531    2.152   .     S
C396   I532    2.152   .     S
C396   C401    1.392   1_556 S
C397   I518    2.152   .     S
C397   C400    1.392   1_554 S
C398   I519    2.152   .     S
C398   C404    1.392   1_556 S
C399   I520    2.152   .     S
C399   C402    1.392   1_554 S
C400   I521    2.152   .     S
C400   C397    1.392   1_556 S
C401   I522    2.152   .     S
C401   C396    1.392   1_554 S
C402   I523    2.152   .     S
C402   C399    1.392   1_556 S
C404   I524    2.152   .     S
C404   C398    1.392   1_554 S
C405   O577    1.275   .     A
C405   O1248   1.278   .     S
C406   O588    1.275   .     A
C406   O1166   1.278   1_545 S
C407   O599    1.275   .     A
C408   O610    1.275   .     A
C408   O220    1.278   1_655 S
C409   O225    1.275   1_655 A
C409   O221    1.278   1_655 A
C409   C69     1.458   1_655 S
C410   O538    1.278   .     A
C410   O542    1.275   .     S
C411   C1015   1.458   .     S
C411   O1171   1.275   .     S
C411   O1175   1.278   .     S
C412   O545    1.278   .     A
C412   O540    1.275   .     A
C412   C1016   1.458   1_545 S
C413   O574    1.282   .     A
C413   O546    1.282   .     A
C414   C466    1.414   .     A
C414   C62     1.407   1_655 S
C415   O547    1.282   .     A
C415   O575    1.282   .     A
C416   O572    1.283   .     A
C416   O548    1.282   .     A
C417   O573    1.283   .     A
C417   O549    1.282   .     A
C418   O550    1.283   .     A
C418   O579    1.282   .     A
C419   O551    1.283   .     A
C419   O580    1.282   .     A
C420   O552    1.282   .     A
C420   O576    1.282   .     A
C421   O553    1.282   .     A
C421   O578    1.282   .     A
C422   O554    1.283   .     A
C422   O565    1.283   .     A
C423   O556    1.283   .     A
C423   O567    1.283   .     A
C424   O557    1.282   .     A
C424   O563    1.281   .     A
C425   C467    1.414   .     A
C426   O558    1.282   .     A
C426   O564    1.281   .     A
C427   O559    1.281   .     A
C427   O570    1.282   .     A
C428   O571    1.282   .     A
C428   O560    1.281   .     A
C429   O568    1.283   .     A
C429   O561    1.283   .     A
C430   O569    1.283   .     A
C430   O562    1.283   .     A
C431   H469    1.083   .     S
C431   C448    1.386   .     A
C432   C446    1.386   .     A
C432   H480    1.083   .     S
C433   C445    1.386   .     A
C433   H491    1.083   .     S
C434   H502    1.083   .     S
C434   C444    1.386   .     A
C435   C443    1.386   .     A
C435   H512    1.083   .     S
C436   C468    1.414   .     A
C436   C1012   1.407   1_545 S
C437   H513    1.083   .     S
C437   C442    1.386   .     A
C438   H514    1.083   .     S
C438   C441    1.386   .     A
C439   C440    1.386   .     A
C439   H515    1.083   .     S
C440   H516    1.083   .     S
C441   H470    1.083   .     S
C442   H471    1.083   .     S
C443   H472    1.083   .     S
C444   H473    1.083   .     S
C445   H474    1.083   .     S
C446   H475    1.083   .     S
C447   C1014   1.407   .     S
C448   H476    1.083   .     S
C449   C465    1.386   .     A
C449   H477    1.083   .     S
C450   H478    1.083   .     S
C450   C464    1.386   .     A
C451   H479    1.083   .     S
C451   C463    1.386   .     A
C452   C462    1.386   .     A
C452   H481    1.083   .     S
C453   H482    1.083   .     S
C453   C461    1.386   .     A
C454   C460    1.386   .     A
C454   H483    1.083   .     S
C455   C459    1.386   .     A
C455   H484    1.083   .     S
C456   C457    1.386   .     A
C456   H485    1.083   .     S
C457   H486    1.083   .     S
C459   H487    1.083   .     S
C460   H488    1.083   .     S
C461   H489    1.083   .     S
C462   H490    1.083   .     S
C463   H492    1.083   .     S
C464   H493    1.083   .     S
C465   H494    1.083   .     S
C466   C34     1.424   1_655 S
C468   C985    1.424   1_545 S
H495   O582    1.014   .     S
H496   O584    1.014   .     S
H497   O586    1.014   .     S
H498   O589    1.014   .     S
H499   O591    1.014   .     S
H500   O593    1.014   .     S
H501   O595    1.014   .     S
H503   O597    1.014   .     S
H504   O600    1.014   .     S
H505   O602    1.014   .     S
H506   O604    1.014   .     S
H507   O606    1.014   .     S
H508   O608    1.014   .     S
H509   O611    1.014   .     S
H510   O613    1.014   .     S
H511   O615    1.014   .     S
O533   Zn620   1.949   .     S
O533   Zn617   1.948   .     S
O533   Zn628   1.950   .     S
O533   Zn1256  1.949   1_545 S
O534   Zn619   1.951   .     S
O534   C1038   1.278   .     S
O535   Zn622   1.950   .     S
O535   C91     1.278   1_655 S
O536   Zn621   1.950   .     S
O537   Zn631   1.951   .     S
O538   Zn630   1.951   .     S
O539   Zn625   1.952   .     S
O539   C1043   1.275   1_545 S
O540   Zn617   1.952   .     S
O541   Zn627   1.951   .     S
O542   Zn626   1.951   .     S
O543   Zn629   1.950   .     S
O543   C1043   1.278   1_545 S
O544   Zn623   1.949   .     S
O544   Zn625   1.948   .     S
O544   Zn629   1.950   .     S
O544   Zn1251  1.949   1_545 S
O545   Zn628   1.950   .     S
O546   Zn620   1.937   .     S
O547   Zn619   1.937   .     S
O548   Zn622   1.937   .     S
O549   Zn621   1.937   .     S
O550   Zn624   1.937   .     S
O551   Zn623   1.937   .     S
O552   Zn618   1.937   .     S
O553   Zn632   1.937   .     S
O554   Zn619   1.937   .     S
O555   Zn626   1.949   .     S
O555   Zn618   1.948   .     S
O555   Zn630   1.949   .     S
O556   Zn620   1.937   .     S
O557   Zn632   1.937   .     S
O558   Zn618   1.937   .     S
O559   Zn623   1.937   .     S
O560   Zn624   1.937   .     S
O561   Zn621   1.937   .     S
O562   Zn622   1.937   .     S
O563   Zn311   1.937   1_655 S
O564   Zn626   1.937   .     S
O565   Zn1261  1.937   .     S
O566   Zn621   1.950   .     S
O566   Zn627   1.949   .     S
O566   Zn631   1.949   .     S
O567   Zn628   1.937   .     S
O568   Zn631   1.937   .     S
O569   Zn314   1.937   1_655 S
O570   Zn625   1.937   .     S
O571   Zn1249  1.937   .     S
O572   Zn310   1.937   1_655 S
O573   Zn627   1.937   .     S
O574   Zn617   1.937   .     S
O575   Zn1257  1.937   .     S
O576   Zn630   1.937   .     S
O577   Zn624   1.951   .     S
O578   Zn315   1.937   1_655 S
O579   Zn1260  1.937   .     S
O580   Zn629   1.937   .     S
O582   C43     1.398   1_655 S
O586   C993    1.398   1_545 S
O588   Zn623   1.951   .     S
O589   C995    1.398   .     S
O599   Zn618   1.952   .     S
O610   Zn632   1.952   .     S
O616   Zn620   1.951   .     S
O616   C1037   1.278   1_545 S
Zn617  O1203   1.937   1_545 S
Zn619  O1176   1.949   .     S
Zn622  O239    1.950   1_655 S
Zn624  O1165   1.949   .     S
Zn625  O1207   1.937   1_545 S
Zn628  O1211   1.937   1_545 S
Zn629  O1197   1.937   1_545 S
Zn632  O250    1.948   1_655 S
C633   C694    1.406   .     A
C633   C675    1.490   .     S
C633   C636    1.412   .     A
C634   C685    1.487   .     S
C634   C646    1.414   .     A
C634   C700    1.407   .     A
C635   C763    1.414   .     A
C635   C706    1.416   .     A
C635   C38     1.424   1_565 S
C636   C707    1.415   .     A
C636   C666    1.422   .     A
C637   C668    1.422   .     A
C637   C709    1.415   .     A
C637   C697    1.412   .     A
C638   C710    1.415   .     A
C638   C708    1.412   .     A
C638   C669    1.422   .     A
C639   C711    1.415   .     A
C639   C719    1.412   .     A
C639   C670    1.422   .     A
C640   C667    1.412   .     A
C640   C712    1.415   .     A
C640   C39     1.422   1_565 S
C641   C678    1.412   .     A
C641   C713    1.415   .     A
C642   C673    1.424   .     A
C642   C714    1.416   .     A
C642   C689    1.414   .     A
C643   C693    1.414   .     A
C643   C674    1.424   .     A
C643   C715    1.416   .     A
C644   C716    1.416   .     A
C644   C671    1.424   .     A
C644   C774    1.414   .     A
C645   C686    1.490   .     S
C645   C647    1.412   .     A
C645   C1017   1.406   .     S
C646   C672    1.424   .     A
C646   C717    1.416   .     A
C647   C718    1.415   .     A
C647   C989    1.422   .     S
C648   C720    1.415   .     A
C648   C656    1.412   .     A
C648   C990    1.422   1_455 S
C649   C736    1.456   .     S
C649   C764    1.402   .     A
C649   C766    1.402   .     A
C650   C765    1.402   .     A
C650   C762    1.402   .     A
C650   C737    1.456   .     S
C651   C761    1.402   .     A
C651   C729    1.456   .     S
C651   C768    1.402   .     A
C652   C731    1.456   .     S
C652   C760    1.402   .     A
C652   C767    1.402   .     A
C653   C770    1.402   .     A
C653   C759    1.402   .     A
C653   C732    1.456   .     S
C654   C769    1.402   .     A
C654   C733    1.456   .     S
C654   C758    1.402   .     A
C655   C772    1.402   .     A
C655   C734    1.456   .     S
C655   C757    1.402   .     A
C656   C687    1.490   .     S
C656   C1018   1.406   1_455 S
C657   C771    1.402   .     A
C657   C735    1.456   .     S
C657   C756    1.402   .     A
C658   C755    1.402   .     A
C658   C775    1.402   .     A
C658   C745    1.456   .     S
C659   C773    1.402   .     A
C659   C754    1.402   .     A
C659   C746    1.456   .     S
C660   C777    1.402   .     A
C660   C738    1.456   .     S
C660   C753    1.402   .     A
C661   C751    1.402   .     A
C661   C739    1.456   .     S
C661   C776    1.402   .     A
C662   C750    1.402   .     A
C662   C779    1.402   .     A
C662   C740    1.456   .     S
C663   C742    1.456   .     S
C663   C749    1.402   .     A
C663   C778    1.402   .     A
C664   C748    1.402   .     A
C664   C743    1.456   .     S
C664   C781    1.402   .     A
C665   C747    1.402   .     A
C665   C780    1.402   .     A
C665   C744    1.456   .     S
C666   C984    1.419   1_455 S
C666   C1098   1.424   1_455 S
C667   C688    1.490   .     S
C667   C67     1.406   1_565 S
C668   C982    1.419   .     S
C668   C1099   1.424   .     S
C669   C38     1.419   1_565 S
C669   C152    1.424   1_565 S
C671   C40     1.419   1_556 S
C672   C9      1.422   1_565 S
C672   C39     1.419   1_564 S
C673   C963    1.422   1_455 S
C673   C990    1.419   1_456 S
C674   C964    1.422   .     S
C674   C989    1.419   1_554 S
C675   O897    1.223   .     D
C675   O1214   1.398   1_455 S
C676   C697    1.490   .     S
C676   O899    1.223   .     D
C676   O1216   1.398   .     S
C677   C708    1.490   .     S
C677   O901    1.223   .     D
C677   O270    1.398   1_565 S
C678   C690    1.490   .     S
C679   C719    1.490   .     S
C679   O903    1.223   .     D
C680   O906    1.224   .     D
C680   C730    1.487   .     S
C680   O907    1.398   .     S
C681   O909    1.398   .     S
C681   O908    1.224   .     D
C681   C741    1.487   .     S
C682   C752    1.487   .     S
C682   O910    1.224   .     D
C682   O911    1.398   .     S
C683   C763    1.487   .     S
C683   O912    1.224   .     D
C683   O913    1.398   .     S
C684   O916    1.398   .     S
C684   C774    1.487   .     S
C684   O914    1.224   .     D
C685   O918    1.398   .     S
C685   O917    1.224   .     D
C686   O919    1.223   .     D
C686   O920    1.398   .     S
C687   O921    1.223   .     D
C687   O922    1.398   .     S
C688   O923    1.223   .     D
C688   O924    1.398   .     S
C689   C691    1.487   .     S
C689   C701    1.407   .     A
C690   O927    1.398   .     S
C690   O925    1.223   .     D
C691   O928    1.224   .     D
C691   O929    1.398   .     S
C692   O931    1.398   .     S
C692   C693    1.487   .     S
C692   O930    1.224   .     D
C693   C702    1.407   .     A
C694   C723    1.458   .     S
C694   C1046   1.407   1_455 S
C695   C697    1.406   .     A
C695   C724    1.458   .     S
C695   C1057   1.407   .     S
C696   C721    1.458   .     S
C696   C708    1.406   .     A
C696   C120    1.407   1_565 S
C698   C722    1.458   .     S
C698   C719    1.406   .     A
C699   C774    1.407   .     A
C700   C46     1.406   1_565 S
C700   C96     1.458   1_565 S
C701   C961    1.406   1_455 S
C701   C1041   1.458   1_455 S
C702   C972    1.406   .     S
C702   C1042   1.458   .     S
C703   C782    1.416   .     A
C703   C709    1.392   .     A
C703   I833    2.152   .     S
C704   C783    1.416   .     A
C704   C707    1.392   .     A
C704   I841    2.152   .     S
C705   C711    1.392   .     A
C705   C784    1.416   .     A
C705   I842    2.152   .     S
C706   I843    2.152   .     S
C706   C710    1.392   .     A
C707   I844    2.152   .     S
C709   I845    2.152   .     S
C710   I846    2.152   .     S
C711   I847    2.152   .     S
C712   I848    2.152   .     S
C712   C717    1.392   1_556 S
C713   I834    2.152   .     S
C713   C716    1.392   1_554 S
C714   I835    2.152   .     S
C714   C720    1.392   1_556 S
C715   I836    2.152   .     S
C715   C718    1.392   1_554 S
C716   I837    2.152   .     S
C716   C713    1.392   1_556 S
C717   I838    2.152   .     S
C717   C712    1.392   1_554 S
C718   I839    2.152   .     S
C718   C715    1.392   1_556 S
C720   I840    2.152   .     S
C720   C714    1.392   1_554 S
C721   O893    1.275   .     A
C721   O300    1.278   1_565 S
C722   O904    1.275   .     A
C723   O915    1.275   .     A
C723   O1167   1.278   1_455 S
C724   O926    1.275   .     A
C724   O1168   1.278   .     S
C725   O1173   1.275   .     A
C725   O1169   1.278   .     A
C725   C1017   1.458   .     S
C726   O854    1.278   .     A
C726   C1018   1.458   1_455 S
C726   O858    1.275   .     S
C727   C67     1.458   1_565 S
C727   O223    1.275   1_565 S
C727   O227    1.278   1_565 S
C728   O861    1.278   .     A
C728   O856    1.275   .     A
C729   O890    1.282   .     A
C729   O862    1.282   .     A
C730   C782    1.414   .     A
C730   C1010   1.407   .     S
C731   O863    1.282   .     A
C731   O891    1.282   .     A
C732   O888    1.283   .     A
C732   O864    1.282   .     A
C733   O889    1.283   .     A
C733   O865    1.282   .     A
C734   O866    1.283   .     A
C734   O895    1.282   .     A
C735   O867    1.283   .     A
C735   O896    1.282   .     A
C736   O868    1.282   .     A
C736   O892    1.282   .     A
C737   O869    1.282   .     A
C737   O894    1.282   .     A
C738   O870    1.283   .     A
C738   O881    1.283   .     A
C739   O872    1.283   .     A
C739   O883    1.283   .     A
C740   O873    1.282   .     A
C740   O879    1.281   .     A
C741   C783    1.414   .     A
C741   C1011   1.407   1_455 S
C742   O874    1.282   .     A
C742   O880    1.281   .     A
C743   O875    1.281   .     A
C743   O886    1.282   .     A
C744   O887    1.282   .     A
C744   O876    1.281   .     A
C745   O884    1.283   .     A
C745   O877    1.283   .     A
C746   O885    1.283   .     A
C746   O878    1.283   .     A
C747   H785    1.083   .     S
C747   C764    1.386   .     A
C748   C762    1.386   .     A
C748   H796    1.083   .     S
C749   C761    1.386   .     A
C749   H807    1.083   .     S
C750   H818    1.083   .     S
C750   C760    1.386   .     A
C751   C759    1.386   .     A
C751   H828    1.083   .     S
C752   C784    1.414   .     A
C753   H829    1.083   .     S
C753   C758    1.386   .     A
C754   H830    1.083   .     S
C754   C757    1.386   .     A
C755   C756    1.386   .     A
C755   H831    1.083   .     S
C756   H832    1.083   .     S
C757   H786    1.083   .     S
C758   H787    1.083   .     S
C759   H788    1.083   .     S
C760   H789    1.083   .     S
C761   H790    1.083   .     S
C762   H791    1.083   .     S
C763   C66     1.407   1_565 S
C764   H792    1.083   .     S
C765   C781    1.386   .     A
C765   H793    1.083   .     S
C766   H794    1.083   .     S
C766   C780    1.386   .     A
C767   H795    1.083   .     S
C767   C779    1.386   .     A
C768   C778    1.386   .     A
C768   H797    1.083   .     S
C769   H798    1.083   .     S
C769   C777    1.386   .     A
C770   C776    1.386   .     A
C770   H799    1.083   .     S
C771   C775    1.386   .     A
C771   H800    1.083   .     S
C772   C773    1.386   .     A
C772   H801    1.083   .     S
C773   H802    1.083   .     S
C775   H803    1.083   .     S
C776   H804    1.083   .     S
C777   H805    1.083   .     S
C778   H806    1.083   .     S
C779   H808    1.083   .     S
C780   H809    1.083   .     S
C781   H810    1.083   .     S
C782   C982    1.424   .     S
C783   C984    1.424   1_455 S
H811   O898    1.014   .     S
H812   O900    1.014   .     S
H813   O902    1.014   .     S
H814   O905    1.014   .     S
H815   O907    1.014   .     S
H816   O909    1.014   .     S
H817   O911    1.014   .     S
H819   O913    1.014   .     S
H820   O916    1.014   .     S
H821   O918    1.014   .     S
H822   O920    1.014   .     S
H823   O922    1.014   .     S
H824   O924    1.014   .     S
H825   O927    1.014   .     S
H826   O929    1.014   .     S
H827   O931    1.014   .     S
O849   Zn936   1.949   .     S
O849   Zn933   1.948   .     S
O849   Zn944   1.950   .     S
O850   Zn935   1.951   .     S
O850   C90     1.278   1_565 S
O851   Zn938   1.950   .     S
O851   C1039   1.278   .     S
O852   Zn937   1.950   .     S
O852   C1040   1.278   1_455 S
O853   Zn947   1.951   .     S
O853   C1041   1.278   1_455 A
O854   Zn946   1.951   .     S
O855   Zn941   1.952   .     S
O856   Zn933   1.952   .     S
O857   C1041   1.275   1_455 A
O857   Zn943   1.951   .     S
O858   Zn942   1.951   .     S
O859   Zn945   1.950   .     S
O860   Zn939   1.949   .     S
O860   Zn941   1.948   .     S
O860   Zn945   1.950   .     S
O861   Zn944   1.950   .     S
O862   Zn936   1.937   .     S
O863   Zn935   1.937   .     S
O864   Zn938   1.937   .     S
O865   Zn937   1.937   .     S
O866   Zn940   1.937   .     S
O867   Zn939   1.937   .     S
O868   Zn934   1.937   .     S
O869   Zn948   1.937   .     S
O870   Zn935   1.937   .     S
O871   Zn1254  1.950   1_455 S
O871   Zn942   1.949   .     S
O871   Zn934   1.948   .     S
O871   Zn946   1.949   .     S
O872   Zn936   1.937   .     S
O873   Zn948   1.937   .     S
O874   Zn934   1.937   .     S
O875   Zn939   1.937   .     S
O876   Zn940   1.937   .     S
O877   Zn937   1.937   .     S
O878   Zn938   1.937   .     S
O879   Zn1259  1.937   .     S
O880   Zn942   1.937   .     S
O881   Zn313   1.937   1_565 S
O882   Zn937   1.950   .     S
O882   Zn943   1.949   .     S
O882   Zn947   1.949   .     S
O882   Zn1264  1.948   1_455 S
O883   Zn944   1.937   .     S
O884   Zn947   1.937   .     S
O885   Zn1262  1.937   .     S
O886   Zn941   1.937   .     S
O887   Zn301   1.937   1_565 S
O888   Zn1258  1.937   .     S
O889   Zn943   1.937   .     S
O890   Zn933   1.937   .     S
O891   Zn309   1.937   1_565 S
O892   Zn946   1.937   .     S
O893   Zn940   1.951   .     S
O894   Zn1263  1.937   .     S
O895   Zn312   1.937   1_565 S
O896   Zn945   1.937   .     S
O898   C991    1.398   .     S
O900   C992    1.398   1_455 S
O904   Zn939   1.951   .     S
O905   C47     1.398   1_565 S
O915   Zn934   1.952   .     S
O926   Zn948   1.952   .     S
O932   Zn936   1.951   .     S
Zn935  O228    1.949   1_565 S
Zn938  O1187   1.950   .     S
Zn940  O217    1.949   1_565 S
Zn942  O1204   1.937   1_455 S
Zn943  O1195   1.937   1_455 S
Zn946  O1201   1.937   1_455 S
Zn947  O1210   1.937   1_455 S
Zn948  O1198   1.948   .     S
C949   C1010   1.406   .     A
C949   C991    1.490   .     S
C949   C952    1.412   .     A
C950   C1001   1.487   .     S
C950   C962    1.414   .     A
C950   C1016   1.407   .     A
C951   C1079   1.414   .     A
C951   C1022   1.416   .     A
C951   C354    1.424   1_565 S
C952   C1023   1.415   .     A
C952   C982    1.422   .     A
C953   C984    1.422   .     A
C953   C1025   1.415   .     A
C953   C1013   1.412   .     A
C954   C1026   1.415   .     A
C954   C1024   1.412   .     A
C954   C985    1.422   .     A
C955   C1027   1.415   .     A
C955   C1035   1.412   .     A
C955   C986    1.422   .     A
C956   C983    1.412   .     A
C956   C1028   1.415   .     A
C956   C355    1.422   1_565 S
C957   C994    1.412   .     A
C957   C1029   1.415   .     A
C958   C989    1.424   .     A
C958   C1030   1.416   .     A
C958   C1005   1.414   .     A
C959   C1009   1.414   .     A
C959   C990    1.424   .     A
C959   C1031   1.416   .     A
C960   C1032   1.416   .     A
C960   C987    1.424   .     A
C960   C1090   1.414   .     A
C961   C1002   1.490   .     S
C961   C963    1.412   .     A
C961   C701    1.406   1_655 S
C962   C988    1.424   .     A
C962   C1033   1.416   .     A
C963   C1034   1.415   .     A
C963   C673    1.422   1_655 S
C964   C1036   1.415   .     A
C964   C972    1.412   .     A
C965   C1052   1.456   .     S
C965   C1080   1.402   .     A
C965   C1082   1.402   .     A
C966   C1081   1.402   .     A
C966   C1078   1.402   .     A
C966   C1053   1.456   .     S
C967   C1077   1.402   .     A
C967   C1045   1.456   .     S
C967   C1084   1.402   .     A
C968   C1047   1.456   .     S
C968   C1076   1.402   .     A
C968   C1083   1.402   .     A
C969   C1086   1.402   .     A
C969   C1075   1.402   .     A
C969   C1048   1.456   .     S
C970   C1085   1.402   .     A
C970   C1049   1.456   .     S
C970   C1074   1.402   .     A
C971   C1088   1.402   .     A
C971   C1050   1.456   .     S
C971   C1073   1.402   .     A
C972   C1003   1.490   .     S
C973   C1087   1.402   .     A
C973   C1051   1.456   .     S
C973   C1072   1.402   .     A
C974   C1071   1.402   .     A
C974   C1091   1.402   .     A
C974   C1061   1.456   .     S
C975   C1089   1.402   .     A
C975   C1070   1.402   .     A
C975   C1062   1.456   .     S
C976   C1093   1.402   .     A
C976   C1054   1.456   .     S
C976   C1069   1.402   .     A
C977   C1067   1.402   .     A
C977   C1055   1.456   .     S
C977   C1092   1.402   .     A
C978   C1066   1.402   .     A
C978   C1095   1.402   .     A
C978   C1056   1.456   .     S
C979   C1058   1.456   .     S
C979   C1065   1.402   .     A
C979   C1094   1.402   .     A
C980   C1064   1.402   .     A
C980   C1059   1.456   .     S
C980   C1097   1.402   .     A
C981   C1063   1.402   .     A
C981   C1096   1.402   .     A
C981   C1060   1.456   .     S
C983   C1004   1.490   .     S
C983   C383    1.406   1_565 S
C984   C666    1.419   1_655 S
C984   C783    1.424   1_655 S
C985   C354    1.419   1_565 S
C985   C468    1.424   1_565 S
C987   C356    1.419   1_556 S
C988   C325    1.422   1_565 S
C988   C355    1.419   1_564 S
C989   C674    1.419   1_556 S
C990   C648    1.422   1_655 S
C990   C673    1.419   1_654 S
C991   O1213   1.223   .     D
C992   C1013   1.490   .     S
C992   O1215   1.223   .     D
C992   O900    1.398   1_655 S
C993   C1024   1.490   .     S
C993   O1217   1.223   .     D
C993   O586    1.398   1_565 S
C994   C1006   1.490   .     S
C995   C1035   1.490   .     S
C995   O1219   1.223   .     D
C996   O1222   1.224   .     D
C996   C1046   1.487   .     S
C996   O1223   1.398   .     S
C997   O1225   1.398   .     S
C997   O1224   1.224   .     D
C997   C1057   1.487   .     S
C998   C1068   1.487   .     S
C998   O1226   1.224   .     D
C998   O1227   1.398   .     S
C999   C1079   1.487   .     S
C999   O1228   1.224   .     D
C999   O1229   1.398   .     S
C1000  O1232   1.398   .     S
C1000  C1090   1.487   .     S
C1000  O1230   1.224   .     D
C1001  O1234   1.398   .     S
C1001  O1233   1.224   .     D
C1002  O1235   1.223   .     D
C1002  O1236   1.398   .     S
C1003  O1237   1.223   .     D
C1003  O1238   1.398   .     S
C1004  O1239   1.223   .     D
C1004  O1240   1.398   .     S
C1005  C1007   1.487   .     S
C1005  C1017   1.407   .     A
C1006  O1243   1.398   .     S
C1006  O1241   1.223   .     D
C1007  O1244   1.224   .     D
C1007  O1245   1.398   .     S
C1008  O1247   1.398   .     S
C1008  C1009   1.487   .     S
C1008  O1246   1.224   .     D
C1009  C1018   1.407   .     A
C1010  C1039   1.458   .     S
C1011  C1013   1.406   .     A
C1011  C1040   1.458   .     S
C1011  C741    1.407   1_655 S
C1012  C1037   1.458   .     S
C1012  C1024   1.406   .     A
C1012  C436    1.407   1_565 S
C1014  C1038   1.458   .     S
C1014  C1035   1.406   .     A
C1015  C1090   1.407   .     A
C1016  C362    1.406   1_565 S
C1016  C412    1.458   1_565 S
C1018  C656    1.406   1_655 S
C1018  C726    1.458   1_655 S
C1019  C1098   1.416   .     A
C1019  C1025   1.392   .     A
C1019  I1149   2.152   .     S
C1020  C1099   1.416   .     A
C1020  C1023   1.392   .     A
C1020  I1157   2.152   .     S
C1021  C1027   1.392   .     A
C1021  C1100   1.416   .     A
C1021  I1158   2.152   .     S
C1022  I1159   2.152   .     S
C1022  C1026   1.392   .     A
C1023  I1160   2.152   .     S
C1025  I1161   2.152   .     S
C1026  I1162   2.152   .     S
C1027  I1163   2.152   .     S
C1028  I1164   2.152   .     S
C1028  C1033   1.392   1_556 S
C1029  I1150   2.152   .     S
C1029  C1032   1.392   1_554 S
C1030  I1151   2.152   .     S
C1030  C1036   1.392   1_556 S
C1031  I1152   2.152   .     S
C1031  C1034   1.392   1_554 S
C1032  I1153   2.152   .     S
C1032  C1029   1.392   1_556 S
C1033  I1154   2.152   .     S
C1033  C1028   1.392   1_554 S
C1034  I1155   2.152   .     S
C1034  C1031   1.392   1_556 S
C1036  I1156   2.152   .     S
C1036  C1030   1.392   1_554 S
C1037  O1209   1.275   .     A
C1037  O616    1.278   1_565 S
C1038  O1220   1.275   .     A
C1039  O1231   1.275   .     A
C1040  O1242   1.275   .     A
C1040  O852    1.278   1_655 S
C1041  O857    1.275   1_655 A
C1041  O853    1.278   1_655 A
C1041  C701    1.458   1_655 S
C1042  O1170   1.278   .     A
C1042  O1174   1.275   .     S
C1043  C383    1.458   1_565 S
C1043  O539    1.275   1_565 S
C1043  O543    1.278   1_565 S
C1044  O1177   1.278   .     A
C1044  O1172   1.275   .     A
C1045  O1206   1.282   .     A
C1045  O1178   1.282   .     A
C1046  C1098   1.414   .     A
C1046  C694    1.407   1_655 S
C1047  O1179   1.282   .     A
C1047  O1207   1.282   .     A
C1048  O1204   1.283   .     A
C1048  O1180   1.282   .     A
C1049  O1205   1.283   .     A
C1049  O1181   1.282   .     A
C1050  O1182   1.283   .     A
C1050  O1211   1.282   .     A
C1051  O1183   1.283   .     A
C1051  O1212   1.282   .     A
C1052  O1184   1.282   .     A
C1052  O1208   1.282   .     A
C1053  O1185   1.282   .     A
C1053  O1210   1.282   .     A
C1054  O1186   1.283   .     A
C1054  O1197   1.283   .     A
C1055  O1188   1.283   .     A
C1055  O1199   1.283   .     A
C1056  O1189   1.282   .     A
C1056  O1195   1.281   .     A
C1057  C1099   1.414   .     A
C1058  O1190   1.282   .     A
C1058  O1196   1.281   .     A
C1059  O1191   1.281   .     A
C1059  O1202   1.282   .     A
C1060  O1203   1.282   .     A
C1060  O1192   1.281   .     A
C1061  O1200   1.283   .     A
C1061  O1193   1.283   .     A
C1062  O1201   1.283   .     A
C1062  O1194   1.283   .     A
C1063  H1101   1.083   .     S
C1063  C1080   1.386   .     A
C1064  C1078   1.386   .     A
C1064  H1112   1.083   .     S
C1065  C1077   1.386   .     A
C1065  H1123   1.083   .     S
C1066  H1134   1.083   .     S
C1066  C1076   1.386   .     A
C1067  C1075   1.386   .     A
C1067  H1144   1.083   .     S
C1068  C1100   1.414   .     A
C1069  H1145   1.083   .     S
C1069  C1074   1.386   .     A
C1070  H1146   1.083   .     S
C1070  C1073   1.386   .     A
C1071  C1072   1.386   .     A
C1071  H1147   1.083   .     S
C1072  H1148   1.083   .     S
C1073  H1102   1.083   .     S
C1074  H1103   1.083   .     S
C1075  H1104   1.083   .     S
C1076  H1105   1.083   .     S
C1077  H1106   1.083   .     S
C1078  H1107   1.083   .     S
C1079  C382    1.407   1_565 S
C1080  H1108   1.083   .     S
C1081  C1097   1.386   .     A
C1081  H1109   1.083   .     S
C1082  H1110   1.083   .     S
C1082  C1096   1.386   .     A
C1083  H1111   1.083   .     S
C1083  C1095   1.386   .     A
C1084  C1094   1.386   .     A
C1084  H1113   1.083   .     S
C1085  H1114   1.083   .     S
C1085  C1093   1.386   .     A
C1086  C1092   1.386   .     A
C1086  H1115   1.083   .     S
C1087  C1091   1.386   .     A
C1087  H1116   1.083   .     S
C1088  C1089   1.386   .     A
C1088  H1117   1.083   .     S
C1089  H1118   1.083   .     S
C1091  H1119   1.083   .     S
C1092  H1120   1.083   .     S
C1093  H1121   1.083   .     S
C1094  H1122   1.083   .     S
C1095  H1124   1.083   .     S
C1096  H1125   1.083   .     S
C1097  H1126   1.083   .     S
C1098  C666    1.424   1_655 S
H1127  O1214   1.014   .     S
H1128  O1216   1.014   .     S
H1129  O1218   1.014   .     S
H1130  O1221   1.014   .     S
H1131  O1223   1.014   .     S
H1132  O1225   1.014   .     S
H1133  O1227   1.014   .     S
H1135  O1229   1.014   .     S
H1136  O1232   1.014   .     S
H1137  O1234   1.014   .     S
H1138  O1236   1.014   .     S
H1139  O1238   1.014   .     S
H1140  O1240   1.014   .     S
H1141  O1243   1.014   .     S
H1142  O1245   1.014   .     S
H1143  O1247   1.014   .     S
O1165  Zn1252  1.949   .     S
O1165  Zn1249  1.948   .     S
O1165  Zn1260  1.950   .     S
O1166  Zn1251  1.951   .     S
O1166  C406    1.278   1_565 S
O1167  Zn1254  1.950   .     S
O1167  C723    1.278   1_655 S
O1168  Zn1253  1.950   .     S
O1169  Zn1263  1.951   .     S
O1170  Zn1262  1.951   .     S
O1171  Zn1257  1.952   .     S
O1172  Zn1249  1.952   .     S
O1173  Zn1259  1.951   .     S
O1174  Zn1258  1.951   .     S
O1175  Zn1261  1.950   .     S
O1176  Zn1255  1.949   .     S
O1176  Zn1257  1.948   .     S
O1176  Zn1261  1.950   .     S
O1177  Zn1260  1.950   .     S
O1178  Zn1252  1.937   .     S
O1179  Zn1251  1.937   .     S
O1180  Zn1254  1.937   .     S
O1181  Zn1253  1.937   .     S
O1182  Zn1256  1.937   .     S
O1183  Zn1255  1.937   .     S
O1184  Zn1250  1.937   .     S
O1185  Zn1264  1.937   .     S
O1186  Zn1251  1.937   .     S
O1187  Zn1258  1.949   .     S
O1187  Zn1250  1.948   .     S
O1187  Zn1262  1.949   .     S
O1188  Zn1252  1.937   .     S
O1189  Zn1264  1.937   .     S
O1190  Zn1250  1.937   .     S
O1191  Zn1255  1.937   .     S
O1192  Zn1256  1.937   .     S
O1193  Zn1253  1.937   .     S
O1194  Zn1254  1.937   .     S
O1195  Zn943   1.937   1_655 S
O1196  Zn1258  1.937   .     S
O1197  Zn629   1.937   1_565 S
O1198  Zn1253  1.950   .     S
O1198  Zn1259  1.949   .     S
O1198  Zn1263  1.949   .     S
O1199  Zn1260  1.937   .     S
O1200  Zn1263  1.937   .     S
O1201  Zn946   1.937   1_655 S
O1202  Zn1257  1.937   .     S
O1203  Zn617   1.937   1_565 S
O1204  Zn942   1.937   1_655 S
O1205  Zn1259  1.937   .     S
O1206  Zn1249  1.937   .     S
O1207  Zn625   1.937   1_565 S
O1208  Zn1262  1.937   .     S
O1209  Zn1256  1.951   .     S
O1210  Zn947   1.937   1_655 S
O1211  Zn628   1.937   1_565 S
O1212  Zn1261  1.937   .     S
O1214  C675    1.398   1_655 S
O1220  Zn1255  1.951   .     S
O1221  C363    1.398   1_565 S
O1231  Zn1250  1.952   .     S
O1242  Zn1264  1.952   .     S
O1248  Zn1252  1.951   .     S
Zn1251 O544    1.949   1_565 S
Zn1254 O871    1.950   1_655 S
Zn1256 O533    1.949   1_565 S
Zn1264 O882    1.948   1_655 S
