data_str_m1_o10_o16_pcu_sym.212
_audit_creation_date              2020-01-03
_audit_creation_method            'Materials Studio'
_symmetry_space_group_name_H-M    'P1'
_symmetry_Int_Tables_number       1
_symmetry_cell_setting            triclinic
loop_
_symmetry_equiv_pos_as_xyz
  x,y,z
_cell_length_a                    32.5055
_cell_length_b                    32.6646
_cell_length_c                    30.9570
_cell_angle_alpha                 97.2157
_cell_angle_beta                  75.0627
_cell_angle_gamma                 98.6104
loop_
_atom_site_label
_atom_site_type_symbol
_atom_site_fract_x
_atom_site_fract_y
_atom_site_fract_z
_atom_site_U_iso_or_equiv
_atom_site_adp_type
_atom_site_occupancy
C1     C     0.05267   0.15951   0.26001   0.00000  Uiso   1.00
C2     C     0.18052   0.16636   0.05629   0.00000  Uiso   1.00
C3     C     0.19271   0.09657   0.06369   0.00000  Uiso   1.00
C4     C     0.28068   0.17379   0.24010   0.00000  Uiso   1.00
C5     C     0.14186   0.19391   0.42016   0.00000  Uiso   1.00
C6     C     0.32651   0.17664   0.23633   0.00000  Uiso   1.00
C7     C     0.00742   0.15685   0.26369   0.00000  Uiso   1.00
C8     C     0.17964   0.32246   0.23851   0.00000  Uiso   1.00
C9     C     0.14976   0.01211   0.26423   0.00000  Uiso   1.00
C10    C     0.15648   0.05594   0.25954   0.00000  Uiso   1.00
C11    C     0.17619   0.27781   0.24039   0.00000  Uiso   1.00
C12    C     0.12763   0.24526   0.48434   0.00000  Uiso   1.00
C13    C     0.18495   0.14777   0.12929   0.00000  Uiso   1.00
C14    C     0.14817   0.18439   0.37110   0.00000  Uiso   1.00
C15    C     0.18487   0.08338   0.02187   0.00000  Uiso   1.00
C16    C     0.19013   0.13795   0.08118   0.00000  Uiso   1.00
C17    C     0.13212   0.23366   0.43874   0.00000  Uiso   1.00
C18    C     0.08652   0.02021   0.32748   0.00000  Uiso   1.00
C19    C     0.12124   0.22742   0.06026   0.00000  Uiso   1.00
C20    C     0.11463   0.28577   0.00198   0.00000  Uiso   1.00
C21    C     0.13570   0.21795   0.01212   0.00000  Uiso   1.00
C22    C     0.15108   0.17927   0.49283   0.00000  Uiso   1.00
C23    C     0.14855   0.16552   0.44793   0.00000  Uiso   1.00
C24    C     0.16730   0.15271   0.01630   0.00000  Uiso   1.00
C25    C     0.17168   0.11083   0.49834   0.00000  Uiso   1.00
C26    C     0.16216   0.09637   0.45742   0.00000  Uiso   1.00
C27    C     0.15122   0.12331   0.43236   0.00000  Uiso   1.00
H28    H     0.19935   0.07414   0.08322   0.00000  Uiso   1.00
H29    H     0.09081   0.30869   0.27254   0.00000  Uiso   1.00
H30    H     0.05929   0.00089   0.34811   0.00000  Uiso   1.00
H31    H     0.07357   0.04425   0.31413   0.00000  Uiso   1.00
H32    H     0.10777   0.03537   0.34935   0.00000  Uiso   1.00
H33    H     0.31922   0.13832   0.28901   0.00000  Uiso   1.00
H34    H     0.20797   0.00399   0.21616   0.00000  Uiso   1.00
H35    H     0.16400   0.06416   0.44422   0.00000  Uiso   1.00
H36    H     0.18738   0.05123   0.00877   0.00000  Uiso   1.00
H37    H     0.18244   0.19850   0.06959   0.00000  Uiso   1.00
H38    H     0.12729   0.25575   0.41764   0.00000  Uiso   1.00
H39    H     0.14348   0.11005   0.40124   0.00000  Uiso   1.00
H40    H     0.01545   0.19490   0.21117   0.00000  Uiso   1.00
N41    N     0.10991   0.32734   0.29097   0.00000  Uiso   1.00
N42    N     0.10945   0.23509   0.09864   0.00000  Uiso   1.00
N43    N     0.10427   0.31818   0.01605   0.00000  Uiso   1.00
O44    O     0.16667   0.16667   0.25000   0.00000  Uiso   1.00
O45    O     0.15451   0.12637   0.15459   0.00000  Uiso   1.00
O46    O     0.12940   0.20391   0.34968   0.00000  Uiso   1.00
O47    O     0.20824   0.17759   0.14606   0.00000  Uiso   1.00
O48    O     0.17451   0.15880   0.34968   0.00000  Uiso   1.00
O49    O     0.17930   0.08019   0.28213   0.00000  Uiso   1.00
O50    O     0.14632   0.26085   0.27014   0.00000  Uiso   1.00
O51    O     0.07412   0.13291   0.23413   0.00000  Uiso   1.00
O52    O     0.26693   0.19272   0.21360   0.00000  Uiso   1.00
O53    O     0.07071   0.18878   0.28213   0.00000  Uiso   1.00
O54    O     0.25491   0.15226   0.27013   0.00000  Uiso   1.00
O55    O     0.13760   0.06944   0.23413   0.00000  Uiso   1.00
O56    O     0.20345   0.25620   0.21361   0.00000  Uiso   1.00
Zn57   Zn    0.19338   0.13994   0.28734   0.00000  Uiso   1.00
Zn58   Zn    0.13379   0.12458   0.21876   0.00000  Uiso   1.00
Zn59   Zn    0.21056   0.19775   0.20657   0.00000  Uiso   1.00
Zn60   Zn    0.12893   0.20439   0.28734   0.00000  Uiso   1.00
C61    C     0.38600   0.15951   0.26001   0.00000  Uiso   1.00
C62    C     0.51385   0.16636   0.05629   0.00000  Uiso   1.00
C63    C     0.52604   0.09657   0.06369   0.00000  Uiso   1.00
C64    C     0.61401   0.17379   0.24010   0.00000  Uiso   1.00
C65    C     0.47519   0.19391   0.42016   0.00000  Uiso   1.00
C66    C     0.65984   0.17664   0.23633   0.00000  Uiso   1.00
C67    C     0.34076   0.15685   0.26369   0.00000  Uiso   1.00
C68    C     0.51297   0.32246   0.23851   0.00000  Uiso   1.00
C69    C     0.48309   0.01211   0.26423   0.00000  Uiso   1.00
C70    C     0.48982   0.05594   0.25954   0.00000  Uiso   1.00
C71    C     0.50952   0.27781   0.24039   0.00000  Uiso   1.00
C72    C     0.46096   0.24526   0.48434   0.00000  Uiso   1.00
C73    C     0.51828   0.14777   0.12929   0.00000  Uiso   1.00
C74    C     0.48150   0.18439   0.37110   0.00000  Uiso   1.00
C75    C     0.51821   0.08338   0.02187   0.00000  Uiso   1.00
C76    C     0.52346   0.13795   0.08118   0.00000  Uiso   1.00
C77    C     0.46545   0.23366   0.43874   0.00000  Uiso   1.00
C78    C     0.41986   0.02021   0.32748   0.00000  Uiso   1.00
C79    C     0.45458   0.22742   0.06026   0.00000  Uiso   1.00
C80    C     0.44796   0.28577   0.00198   0.00000  Uiso   1.00
C81    C     0.46903   0.21795   0.01212   0.00000  Uiso   1.00
C82    C     0.48442   0.17927   0.49283   0.00000  Uiso   1.00
C83    C     0.48188   0.16552   0.44793   0.00000  Uiso   1.00
C84    C     0.50063   0.15271   0.01630   0.00000  Uiso   1.00
C85    C     0.50501   0.11083   0.49834   0.00000  Uiso   1.00
C86    C     0.49549   0.09637   0.45742   0.00000  Uiso   1.00
C87    C     0.48456   0.12331   0.43236   0.00000  Uiso   1.00
H88    H     0.53268   0.07414   0.08322   0.00000  Uiso   1.00
H89    H     0.42414   0.30869   0.27254   0.00000  Uiso   1.00
H90    H     0.39262   0.00089   0.34811   0.00000  Uiso   1.00
H91    H     0.40690   0.04425   0.31413   0.00000  Uiso   1.00
H92    H     0.44111   0.03537   0.34935   0.00000  Uiso   1.00
H93    H     0.65255   0.13832   0.28901   0.00000  Uiso   1.00
H94    H     0.54130   0.00399   0.21616   0.00000  Uiso   1.00
H95    H     0.49733   0.06416   0.44422   0.00000  Uiso   1.00
H96    H     0.52071   0.05123   0.00877   0.00000  Uiso   1.00
H97    H     0.51578   0.19850   0.06959   0.00000  Uiso   1.00
H98    H     0.46062   0.25575   0.41764   0.00000  Uiso   1.00
H99    H     0.47681   0.11005   0.40124   0.00000  Uiso   1.00
H100   H     0.34878   0.19490   0.21117   0.00000  Uiso   1.00
N101   N     0.44325   0.32734   0.29097   0.00000  Uiso   1.00
N102   N     0.44279   0.23509   0.09864   0.00000  Uiso   1.00
N103   N     0.43760   0.31818   0.01605   0.00000  Uiso   1.00
O104   O     0.50000   0.16667   0.25000   0.00000  Uiso   1.00
O105   O     0.48784   0.12637   0.15459   0.00000  Uiso   1.00
O106   O     0.46274   0.20391   0.34968   0.00000  Uiso   1.00
O107   O     0.54157   0.17759   0.14606   0.00000  Uiso   1.00
O108   O     0.50785   0.15880   0.34968   0.00000  Uiso   1.00
O109   O     0.51264   0.08019   0.28213   0.00000  Uiso   1.00
O110   O     0.47965   0.26085   0.27014   0.00000  Uiso   1.00
O111   O     0.40745   0.13291   0.23413   0.00000  Uiso   1.00
O112   O     0.60026   0.19272   0.21360   0.00000  Uiso   1.00
O113   O     0.40405   0.18878   0.28213   0.00000  Uiso   1.00
O114   O     0.58824   0.15226   0.27013   0.00000  Uiso   1.00
O115   O     0.47093   0.06944   0.23413   0.00000  Uiso   1.00
O116   O     0.53678   0.25620   0.21361   0.00000  Uiso   1.00
Zn117  Zn    0.52672   0.13994   0.28734   0.00000  Uiso   1.00
Zn118  Zn    0.46713   0.12458   0.21876   0.00000  Uiso   1.00
Zn119  Zn    0.54389   0.19775   0.20657   0.00000  Uiso   1.00
Zn120  Zn    0.46226   0.20439   0.28734   0.00000  Uiso   1.00
C121   C     0.71934   0.15951   0.26001   0.00000  Uiso   1.00
C122   C     0.84718   0.16636   0.05629   0.00000  Uiso   1.00
C123   C     0.85937   0.09657   0.06369   0.00000  Uiso   1.00
C124   C     0.94735   0.17379   0.24010   0.00000  Uiso   1.00
C125   C     0.80853   0.19391   0.42016   0.00000  Uiso   1.00
C126   C     0.99318   0.17664   0.23633   0.00000  Uiso   1.00
C127   C     0.67409   0.15685   0.26369   0.00000  Uiso   1.00
C128   C     0.84630   0.32246   0.23851   0.00000  Uiso   1.00
C129   C     0.81642   0.01211   0.26423   0.00000  Uiso   1.00
C130   C     0.82315   0.05594   0.25954   0.00000  Uiso   1.00
C131   C     0.84285   0.27781   0.24039   0.00000  Uiso   1.00
C132   C     0.79429   0.24526   0.48434   0.00000  Uiso   1.00
C133   C     0.85162   0.14777   0.12929   0.00000  Uiso   1.00
C134   C     0.81483   0.18439   0.37110   0.00000  Uiso   1.00
C135   C     0.85154   0.08338   0.02187   0.00000  Uiso   1.00
C136   C     0.85679   0.13795   0.08118   0.00000  Uiso   1.00
C137   C     0.79878   0.23366   0.43874   0.00000  Uiso   1.00
C138   C     0.75319   0.02021   0.32748   0.00000  Uiso   1.00
C139   C     0.78791   0.22742   0.06026   0.00000  Uiso   1.00
C140   C     0.78129   0.28577   0.00198   0.00000  Uiso   1.00
C141   C     0.80237   0.21795   0.01212   0.00000  Uiso   1.00
C142   C     0.81775   0.17927   0.49283   0.00000  Uiso   1.00
C143   C     0.81521   0.16552   0.44793   0.00000  Uiso   1.00
C144   C     0.83397   0.15271   0.01630   0.00000  Uiso   1.00
C145   C     0.83834   0.11083   0.49834   0.00000  Uiso   1.00
C146   C     0.82882   0.09637   0.45742   0.00000  Uiso   1.00
C147   C     0.81789   0.12331   0.43236   0.00000  Uiso   1.00
H148   H     0.86601   0.07414   0.08322   0.00000  Uiso   1.00
H149   H     0.75747   0.30869   0.27254   0.00000  Uiso   1.00
H150   H     0.72596   0.00089   0.34811   0.00000  Uiso   1.00
H151   H     0.74024   0.04425   0.31413   0.00000  Uiso   1.00
H152   H     0.77444   0.03537   0.34935   0.00000  Uiso   1.00
H153   H     0.98589   0.13832   0.28901   0.00000  Uiso   1.00
H154   H     0.87463   0.00399   0.21616   0.00000  Uiso   1.00
H155   H     0.83067   0.06416   0.44422   0.00000  Uiso   1.00
H156   H     0.85405   0.05123   0.00877   0.00000  Uiso   1.00
H157   H     0.84911   0.19850   0.06959   0.00000  Uiso   1.00
H158   H     0.79396   0.25575   0.41764   0.00000  Uiso   1.00
H159   H     0.81014   0.11005   0.40124   0.00000  Uiso   1.00
H160   H     0.68211   0.19490   0.21117   0.00000  Uiso   1.00
N161   N     0.77658   0.32734   0.29097   0.00000  Uiso   1.00
N162   N     0.77612   0.23509   0.09864   0.00000  Uiso   1.00
N163   N     0.77094   0.31818   0.01605   0.00000  Uiso   1.00
O164   O     0.83333   0.16667   0.25000   0.00000  Uiso   1.00
O165   O     0.82118   0.12637   0.15459   0.00000  Uiso   1.00
O166   O     0.79607   0.20391   0.34968   0.00000  Uiso   1.00
O167   O     0.87491   0.17759   0.14606   0.00000  Uiso   1.00
O168   O     0.84118   0.15880   0.34968   0.00000  Uiso   1.00
O169   O     0.84597   0.08019   0.28213   0.00000  Uiso   1.00
O170   O     0.81298   0.26085   0.27014   0.00000  Uiso   1.00
O171   O     0.74078   0.13291   0.23413   0.00000  Uiso   1.00
O172   O     0.93360   0.19272   0.21360   0.00000  Uiso   1.00
O173   O     0.73738   0.18878   0.28213   0.00000  Uiso   1.00
O174   O     0.92158   0.15226   0.27013   0.00000  Uiso   1.00
O175   O     0.80426   0.06944   0.23413   0.00000  Uiso   1.00
O176   O     0.87012   0.25620   0.21361   0.00000  Uiso   1.00
Zn177  Zn    0.86005   0.13994   0.28734   0.00000  Uiso   1.00
Zn178  Zn    0.80046   0.12458   0.21876   0.00000  Uiso   1.00
Zn179  Zn    0.87723   0.19775   0.20657   0.00000  Uiso   1.00
Zn180  Zn    0.79560   0.20439   0.28734   0.00000  Uiso   1.00
C181   C     0.05267   0.49284   0.26001   0.00000  Uiso   1.00
C182   C     0.18052   0.49969   0.05629   0.00000  Uiso   1.00
C183   C     0.19271   0.42990   0.06369   0.00000  Uiso   1.00
C184   C     0.28068   0.50712   0.24010   0.00000  Uiso   1.00
C185   C     0.14186   0.52725   0.42016   0.00000  Uiso   1.00
C186   C     0.32651   0.50997   0.23633   0.00000  Uiso   1.00
C187   C     0.00742   0.49018   0.26369   0.00000  Uiso   1.00
C188   C     0.17964   0.65580   0.23851   0.00000  Uiso   1.00
C189   C     0.14976   0.34544   0.26423   0.00000  Uiso   1.00
C190   C     0.15648   0.38928   0.25954   0.00000  Uiso   1.00
C191   C     0.17619   0.61114   0.24039   0.00000  Uiso   1.00
C192   C     0.12763   0.57859   0.48434   0.00000  Uiso   1.00
C193   C     0.18495   0.48110   0.12929   0.00000  Uiso   1.00
C194   C     0.14817   0.51772   0.37110   0.00000  Uiso   1.00
C195   C     0.18487   0.41671   0.02187   0.00000  Uiso   1.00
C196   C     0.19013   0.47128   0.08118   0.00000  Uiso   1.00
C197   C     0.13212   0.56699   0.43874   0.00000  Uiso   1.00
C198   C     0.08652   0.35355   0.32748   0.00000  Uiso   1.00
C199   C     0.12124   0.56075   0.06026   0.00000  Uiso   1.00
C200   C     0.11463   0.61910   0.00198   0.00000  Uiso   1.00
C201   C     0.13570   0.55129   0.01212   0.00000  Uiso   1.00
C202   C     0.15108   0.51260   0.49283   0.00000  Uiso   1.00
C203   C     0.14855   0.49886   0.44793   0.00000  Uiso   1.00
C204   C     0.16730   0.48604   0.01630   0.00000  Uiso   1.00
C205   C     0.17168   0.44416   0.49834   0.00000  Uiso   1.00
C206   C     0.16216   0.42970   0.45742   0.00000  Uiso   1.00
C207   C     0.15122   0.45664   0.43236   0.00000  Uiso   1.00
H208   H     0.19935   0.40748   0.08322   0.00000  Uiso   1.00
H209   H     0.09081   0.64202   0.27254   0.00000  Uiso   1.00
H210   H     0.05929   0.33422   0.34811   0.00000  Uiso   1.00
H211   H     0.07357   0.37758   0.31413   0.00000  Uiso   1.00
H212   H     0.10777   0.36870   0.34935   0.00000  Uiso   1.00
H213   H     0.31922   0.47165   0.28901   0.00000  Uiso   1.00
H214   H     0.20797   0.33732   0.21616   0.00000  Uiso   1.00
H215   H     0.16400   0.39749   0.44422   0.00000  Uiso   1.00
H216   H     0.18738   0.38457   0.00877   0.00000  Uiso   1.00
H217   H     0.18244   0.53183   0.06959   0.00000  Uiso   1.00
H218   H     0.12729   0.58909   0.41764   0.00000  Uiso   1.00
H219   H     0.14348   0.44338   0.40124   0.00000  Uiso   1.00
H220   H     0.01545   0.52823   0.21117   0.00000  Uiso   1.00
N221   N     0.10991   0.66068   0.29097   0.00000  Uiso   1.00
N222   N     0.10945   0.56842   0.09864   0.00000  Uiso   1.00
N223   N     0.10427   0.65152   0.01605   0.00000  Uiso   1.00
O224   O     0.16667   0.50000   0.25000   0.00000  Uiso   1.00
O225   O     0.15451   0.45970   0.15459   0.00000  Uiso   1.00
O226   O     0.12940   0.53724   0.34968   0.00000  Uiso   1.00
O227   O     0.20824   0.51092   0.14606   0.00000  Uiso   1.00
O228   O     0.17451   0.49213   0.34968   0.00000  Uiso   1.00
O229   O     0.17930   0.41352   0.28213   0.00000  Uiso   1.00
O230   O     0.14632   0.59418   0.27014   0.00000  Uiso   1.00
O231   O     0.07412   0.46625   0.23413   0.00000  Uiso   1.00
O232   O     0.26693   0.52605   0.21360   0.00000  Uiso   1.00
O233   O     0.07071   0.52211   0.28213   0.00000  Uiso   1.00
O234   O     0.25491   0.48559   0.27013   0.00000  Uiso   1.00
O235   O     0.13760   0.40277   0.23413   0.00000  Uiso   1.00
O236   O     0.20345   0.58953   0.21361   0.00000  Uiso   1.00
Zn237  Zn    0.19338   0.47327   0.28734   0.00000  Uiso   1.00
Zn238  Zn    0.13379   0.45791   0.21876   0.00000  Uiso   1.00
Zn239  Zn    0.21056   0.53109   0.20657   0.00000  Uiso   1.00
Zn240  Zn    0.12893   0.53773   0.28734   0.00000  Uiso   1.00
C241   C     0.38600   0.49284   0.26001   0.00000  Uiso   1.00
C242   C     0.51385   0.49969   0.05629   0.00000  Uiso   1.00
C243   C     0.52604   0.42990   0.06369   0.00000  Uiso   1.00
C244   C     0.61401   0.50712   0.24010   0.00000  Uiso   1.00
C245   C     0.47519   0.52725   0.42016   0.00000  Uiso   1.00
C246   C     0.65984   0.50997   0.23633   0.00000  Uiso   1.00
C247   C     0.34076   0.49018   0.26369   0.00000  Uiso   1.00
C248   C     0.51297   0.65580   0.23851   0.00000  Uiso   1.00
C249   C     0.48309   0.34544   0.26423   0.00000  Uiso   1.00
C250   C     0.48982   0.38928   0.25954   0.00000  Uiso   1.00
C251   C     0.50952   0.61114   0.24039   0.00000  Uiso   1.00
C252   C     0.46096   0.57859   0.48434   0.00000  Uiso   1.00
C253   C     0.51828   0.48110   0.12929   0.00000  Uiso   1.00
C254   C     0.48150   0.51772   0.37110   0.00000  Uiso   1.00
C255   C     0.51821   0.41671   0.02187   0.00000  Uiso   1.00
C256   C     0.52346   0.47128   0.08118   0.00000  Uiso   1.00
C257   C     0.46545   0.56699   0.43874   0.00000  Uiso   1.00
C258   C     0.41986   0.35355   0.32748   0.00000  Uiso   1.00
C259   C     0.45458   0.56075   0.06026   0.00000  Uiso   1.00
C260   C     0.44796   0.61910   0.00198   0.00000  Uiso   1.00
C261   C     0.46903   0.55129   0.01212   0.00000  Uiso   1.00
C262   C     0.48442   0.51260   0.49283   0.00000  Uiso   1.00
C263   C     0.48188   0.49886   0.44793   0.00000  Uiso   1.00
C264   C     0.50063   0.48604   0.01630   0.00000  Uiso   1.00
C265   C     0.50501   0.44416   0.49834   0.00000  Uiso   1.00
C266   C     0.49549   0.42970   0.45742   0.00000  Uiso   1.00
C267   C     0.48456   0.45664   0.43236   0.00000  Uiso   1.00
H268   H     0.53268   0.40748   0.08322   0.00000  Uiso   1.00
H269   H     0.42414   0.64202   0.27254   0.00000  Uiso   1.00
H270   H     0.39262   0.33422   0.34811   0.00000  Uiso   1.00
H271   H     0.40690   0.37758   0.31413   0.00000  Uiso   1.00
H272   H     0.44111   0.36870   0.34935   0.00000  Uiso   1.00
H273   H     0.65255   0.47165   0.28901   0.00000  Uiso   1.00
H274   H     0.54130   0.33732   0.21616   0.00000  Uiso   1.00
H275   H     0.49733   0.39749   0.44422   0.00000  Uiso   1.00
H276   H     0.52071   0.38457   0.00877   0.00000  Uiso   1.00
H277   H     0.51578   0.53183   0.06959   0.00000  Uiso   1.00
H278   H     0.46062   0.58909   0.41764   0.00000  Uiso   1.00
H279   H     0.47681   0.44338   0.40124   0.00000  Uiso   1.00
H280   H     0.34878   0.52823   0.21117   0.00000  Uiso   1.00
N281   N     0.44325   0.66068   0.29097   0.00000  Uiso   1.00
N282   N     0.44279   0.56842   0.09864   0.00000  Uiso   1.00
N283   N     0.43760   0.65152   0.01605   0.00000  Uiso   1.00
O284   O     0.50000   0.50000   0.25000   0.00000  Uiso   1.00
O285   O     0.48784   0.45970   0.15459   0.00000  Uiso   1.00
O286   O     0.46274   0.53724   0.34968   0.00000  Uiso   1.00
O287   O     0.54157   0.51092   0.14606   0.00000  Uiso   1.00
O288   O     0.50785   0.49213   0.34968   0.00000  Uiso   1.00
O289   O     0.51264   0.41352   0.28213   0.00000  Uiso   1.00
O290   O     0.47965   0.59418   0.27014   0.00000  Uiso   1.00
O291   O     0.40745   0.46625   0.23413   0.00000  Uiso   1.00
O292   O     0.60026   0.52605   0.21360   0.00000  Uiso   1.00
O293   O     0.40405   0.52211   0.28213   0.00000  Uiso   1.00
O294   O     0.58824   0.48559   0.27013   0.00000  Uiso   1.00
O295   O     0.47093   0.40277   0.23413   0.00000  Uiso   1.00
O296   O     0.53678   0.58953   0.21361   0.00000  Uiso   1.00
Zn297  Zn    0.52672   0.47327   0.28734   0.00000  Uiso   1.00
Zn298  Zn    0.46713   0.45791   0.21876   0.00000  Uiso   1.00
Zn299  Zn    0.54389   0.53109   0.20657   0.00000  Uiso   1.00
Zn300  Zn    0.46226   0.53773   0.28734   0.00000  Uiso   1.00
C301   C     0.71934   0.49284   0.26001   0.00000  Uiso   1.00
C302   C     0.84718   0.49969   0.05629   0.00000  Uiso   1.00
C303   C     0.85937   0.42990   0.06369   0.00000  Uiso   1.00
C304   C     0.94735   0.50712   0.24010   0.00000  Uiso   1.00
C305   C     0.80853   0.52725   0.42016   0.00000  Uiso   1.00
C306   C     0.99318   0.50997   0.23633   0.00000  Uiso   1.00
C307   C     0.67409   0.49018   0.26369   0.00000  Uiso   1.00
C308   C     0.84630   0.65580   0.23851   0.00000  Uiso   1.00
C309   C     0.81642   0.34544   0.26423   0.00000  Uiso   1.00
C310   C     0.82315   0.38928   0.25954   0.00000  Uiso   1.00
C311   C     0.84285   0.61114   0.24039   0.00000  Uiso   1.00
C312   C     0.79429   0.57859   0.48434   0.00000  Uiso   1.00
C313   C     0.85162   0.48110   0.12929   0.00000  Uiso   1.00
C314   C     0.81483   0.51772   0.37110   0.00000  Uiso   1.00
C315   C     0.85154   0.41671   0.02187   0.00000  Uiso   1.00
C316   C     0.85679   0.47128   0.08118   0.00000  Uiso   1.00
C317   C     0.79878   0.56699   0.43874   0.00000  Uiso   1.00
C318   C     0.75319   0.35355   0.32748   0.00000  Uiso   1.00
C319   C     0.78791   0.56075   0.06026   0.00000  Uiso   1.00
C320   C     0.78129   0.61910   0.00198   0.00000  Uiso   1.00
C321   C     0.80237   0.55129   0.01212   0.00000  Uiso   1.00
C322   C     0.81775   0.51260   0.49283   0.00000  Uiso   1.00
C323   C     0.81521   0.49886   0.44793   0.00000  Uiso   1.00
C324   C     0.83397   0.48604   0.01630   0.00000  Uiso   1.00
C325   C     0.83834   0.44416   0.49834   0.00000  Uiso   1.00
C326   C     0.82882   0.42970   0.45742   0.00000  Uiso   1.00
C327   C     0.81789   0.45664   0.43236   0.00000  Uiso   1.00
H328   H     0.86601   0.40748   0.08322   0.00000  Uiso   1.00
H329   H     0.75747   0.64202   0.27254   0.00000  Uiso   1.00
H330   H     0.72596   0.33422   0.34811   0.00000  Uiso   1.00
H331   H     0.74024   0.37758   0.31413   0.00000  Uiso   1.00
H332   H     0.77444   0.36870   0.34935   0.00000  Uiso   1.00
H333   H     0.98589   0.47165   0.28901   0.00000  Uiso   1.00
H334   H     0.87463   0.33732   0.21616   0.00000  Uiso   1.00
H335   H     0.83067   0.39749   0.44422   0.00000  Uiso   1.00
H336   H     0.85405   0.38457   0.00877   0.00000  Uiso   1.00
H337   H     0.84911   0.53183   0.06959   0.00000  Uiso   1.00
H338   H     0.79396   0.58909   0.41764   0.00000  Uiso   1.00
H339   H     0.81014   0.44338   0.40124   0.00000  Uiso   1.00
H340   H     0.68211   0.52823   0.21117   0.00000  Uiso   1.00
N341   N     0.77658   0.66068   0.29097   0.00000  Uiso   1.00
N342   N     0.77612   0.56842   0.09864   0.00000  Uiso   1.00
N343   N     0.77094   0.65152   0.01605   0.00000  Uiso   1.00
O344   O     0.83333   0.50000   0.25000   0.00000  Uiso   1.00
O345   O     0.82118   0.45970   0.15459   0.00000  Uiso   1.00
O346   O     0.79607   0.53724   0.34968   0.00000  Uiso   1.00
O347   O     0.87491   0.51092   0.14606   0.00000  Uiso   1.00
O348   O     0.84118   0.49213   0.34968   0.00000  Uiso   1.00
O349   O     0.84597   0.41352   0.28213   0.00000  Uiso   1.00
O350   O     0.81298   0.59418   0.27014   0.00000  Uiso   1.00
O351   O     0.74078   0.46625   0.23413   0.00000  Uiso   1.00
O352   O     0.93360   0.52605   0.21360   0.00000  Uiso   1.00
O353   O     0.73738   0.52211   0.28213   0.00000  Uiso   1.00
O354   O     0.92158   0.48559   0.27013   0.00000  Uiso   1.00
O355   O     0.80426   0.40277   0.23413   0.00000  Uiso   1.00
O356   O     0.87012   0.58953   0.21361   0.00000  Uiso   1.00
Zn357  Zn    0.86005   0.47327   0.28734   0.00000  Uiso   1.00
Zn358  Zn    0.80046   0.45791   0.21876   0.00000  Uiso   1.00
Zn359  Zn    0.87723   0.53109   0.20657   0.00000  Uiso   1.00
Zn360  Zn    0.79560   0.53773   0.28734   0.00000  Uiso   1.00
C361   C     0.05267   0.82618   0.26001   0.00000  Uiso   1.00
C362   C     0.18052   0.83303   0.05629   0.00000  Uiso   1.00
C363   C     0.19271   0.76323   0.06369   0.00000  Uiso   1.00
C364   C     0.28068   0.84046   0.24010   0.00000  Uiso   1.00
C365   C     0.14186   0.86058   0.42016   0.00000  Uiso   1.00
C366   C     0.32651   0.84330   0.23633   0.00000  Uiso   1.00
C367   C     0.00742   0.82352   0.26369   0.00000  Uiso   1.00
C368   C     0.17964   0.98913   0.23851   0.00000  Uiso   1.00
C369   C     0.14976   0.67877   0.26423   0.00000  Uiso   1.00
C370   C     0.15648   0.72261   0.25954   0.00000  Uiso   1.00
C371   C     0.17619   0.94448   0.24039   0.00000  Uiso   1.00
C372   C     0.12763   0.91192   0.48434   0.00000  Uiso   1.00
C373   C     0.18495   0.81444   0.12929   0.00000  Uiso   1.00
C374   C     0.14817   0.85106   0.37110   0.00000  Uiso   1.00
C375   C     0.18487   0.75005   0.02187   0.00000  Uiso   1.00
C376   C     0.19013   0.80461   0.08118   0.00000  Uiso   1.00
C377   C     0.13212   0.90033   0.43874   0.00000  Uiso   1.00
C378   C     0.08652   0.68688   0.32748   0.00000  Uiso   1.00
C379   C     0.12124   0.89409   0.06026   0.00000  Uiso   1.00
C380   C     0.11463   0.95243   0.00198   0.00000  Uiso   1.00
C381   C     0.13570   0.88462   0.01212   0.00000  Uiso   1.00
C382   C     0.15108   0.84594   0.49283   0.00000  Uiso   1.00
C383   C     0.14855   0.83219   0.44793   0.00000  Uiso   1.00
C384   C     0.16730   0.81937   0.01630   0.00000  Uiso   1.00
C385   C     0.17168   0.77750   0.49834   0.00000  Uiso   1.00
C386   C     0.16216   0.76304   0.45742   0.00000  Uiso   1.00
C387   C     0.15122   0.78998   0.43236   0.00000  Uiso   1.00
H388   H     0.19935   0.74081   0.08322   0.00000  Uiso   1.00
H389   H     0.09081   0.97536   0.27254   0.00000  Uiso   1.00
H390   H     0.05929   0.66755   0.34811   0.00000  Uiso   1.00
H391   H     0.07357   0.71092   0.31413   0.00000  Uiso   1.00
H392   H     0.10777   0.70204   0.34935   0.00000  Uiso   1.00
H393   H     0.31922   0.80499   0.28901   0.00000  Uiso   1.00
H394   H     0.20797   0.67065   0.21616   0.00000  Uiso   1.00
H395   H     0.16400   0.73082   0.44422   0.00000  Uiso   1.00
H396   H     0.18738   0.71790   0.00877   0.00000  Uiso   1.00
H397   H     0.18244   0.86516   0.06959   0.00000  Uiso   1.00
H398   H     0.12729   0.92242   0.41764   0.00000  Uiso   1.00
H399   H     0.14348   0.77671   0.40124   0.00000  Uiso   1.00
H400   H     0.01545   0.86157   0.21117   0.00000  Uiso   1.00
N401   N     0.10991   0.99401   0.29097   0.00000  Uiso   1.00
N402   N     0.10945   0.90175   0.09864   0.00000  Uiso   1.00
N403   N     0.10427   0.98485   0.01605   0.00000  Uiso   1.00
O404   O     0.16667   0.83333   0.25000   0.00000  Uiso   1.00
O405   O     0.15451   0.79304   0.15459   0.00000  Uiso   1.00
O406   O     0.12940   0.87058   0.34968   0.00000  Uiso   1.00
O407   O     0.20824   0.84425   0.14606   0.00000  Uiso   1.00
O408   O     0.17451   0.82546   0.34968   0.00000  Uiso   1.00
O409   O     0.17930   0.74686   0.28213   0.00000  Uiso   1.00
O410   O     0.14632   0.92751   0.27014   0.00000  Uiso   1.00
O411   O     0.07412   0.79958   0.23413   0.00000  Uiso   1.00
O412   O     0.26693   0.85939   0.21360   0.00000  Uiso   1.00
O413   O     0.07071   0.85544   0.28213   0.00000  Uiso   1.00
O414   O     0.25491   0.81892   0.27013   0.00000  Uiso   1.00
O415   O     0.13760   0.73610   0.23413   0.00000  Uiso   1.00
O416   O     0.20345   0.92286   0.21361   0.00000  Uiso   1.00
Zn417  Zn    0.19338   0.80661   0.28734   0.00000  Uiso   1.00
Zn418  Zn    0.13379   0.79124   0.21876   0.00000  Uiso   1.00
Zn419  Zn    0.21056   0.86442   0.20657   0.00000  Uiso   1.00
Zn420  Zn    0.12893   0.87106   0.28734   0.00000  Uiso   1.00
C421   C     0.38600   0.82618   0.26001   0.00000  Uiso   1.00
C422   C     0.51385   0.83303   0.05629   0.00000  Uiso   1.00
C423   C     0.52604   0.76323   0.06369   0.00000  Uiso   1.00
C424   C     0.61401   0.84046   0.24010   0.00000  Uiso   1.00
C425   C     0.47519   0.86058   0.42016   0.00000  Uiso   1.00
C426   C     0.65984   0.84330   0.23633   0.00000  Uiso   1.00
C427   C     0.34076   0.82352   0.26369   0.00000  Uiso   1.00
C428   C     0.51297   0.98913   0.23851   0.00000  Uiso   1.00
C429   C     0.48309   0.67877   0.26423   0.00000  Uiso   1.00
C430   C     0.48982   0.72261   0.25954   0.00000  Uiso   1.00
C431   C     0.50952   0.94448   0.24039   0.00000  Uiso   1.00
C432   C     0.46096   0.91192   0.48434   0.00000  Uiso   1.00
C433   C     0.51828   0.81444   0.12929   0.00000  Uiso   1.00
C434   C     0.48150   0.85106   0.37110   0.00000  Uiso   1.00
C435   C     0.51821   0.75005   0.02187   0.00000  Uiso   1.00
C436   C     0.52346   0.80461   0.08118   0.00000  Uiso   1.00
C437   C     0.46545   0.90033   0.43874   0.00000  Uiso   1.00
C438   C     0.41986   0.68688   0.32748   0.00000  Uiso   1.00
C439   C     0.45458   0.89409   0.06026   0.00000  Uiso   1.00
C440   C     0.44796   0.95243   0.00198   0.00000  Uiso   1.00
C441   C     0.46903   0.88462   0.01212   0.00000  Uiso   1.00
C442   C     0.48442   0.84594   0.49283   0.00000  Uiso   1.00
C443   C     0.48188   0.83219   0.44793   0.00000  Uiso   1.00
C444   C     0.50063   0.81937   0.01630   0.00000  Uiso   1.00
C445   C     0.50501   0.77750   0.49834   0.00000  Uiso   1.00
C446   C     0.49549   0.76304   0.45742   0.00000  Uiso   1.00
C447   C     0.48456   0.78998   0.43236   0.00000  Uiso   1.00
H448   H     0.53268   0.74081   0.08322   0.00000  Uiso   1.00
H449   H     0.42414   0.97536   0.27254   0.00000  Uiso   1.00
H450   H     0.39262   0.66755   0.34811   0.00000  Uiso   1.00
H451   H     0.40690   0.71092   0.31413   0.00000  Uiso   1.00
H452   H     0.44111   0.70204   0.34935   0.00000  Uiso   1.00
H453   H     0.65255   0.80499   0.28901   0.00000  Uiso   1.00
H454   H     0.54130   0.67065   0.21616   0.00000  Uiso   1.00
H455   H     0.49733   0.73082   0.44422   0.00000  Uiso   1.00
H456   H     0.52071   0.71790   0.00877   0.00000  Uiso   1.00
H457   H     0.51578   0.86516   0.06959   0.00000  Uiso   1.00
H458   H     0.46062   0.92242   0.41764   0.00000  Uiso   1.00
H459   H     0.47681   0.77671   0.40124   0.00000  Uiso   1.00
H460   H     0.34878   0.86157   0.21117   0.00000  Uiso   1.00
N461   N     0.44325   0.99401   0.29097   0.00000  Uiso   1.00
N462   N     0.44279   0.90175   0.09864   0.00000  Uiso   1.00
N463   N     0.43760   0.98485   0.01605   0.00000  Uiso   1.00
O464   O     0.50000   0.83333   0.25000   0.00000  Uiso   1.00
O465   O     0.48784   0.79304   0.15459   0.00000  Uiso   1.00
O466   O     0.46274   0.87058   0.34968   0.00000  Uiso   1.00
O467   O     0.54157   0.84425   0.14606   0.00000  Uiso   1.00
O468   O     0.50785   0.82546   0.34968   0.00000  Uiso   1.00
O469   O     0.51264   0.74686   0.28213   0.00000  Uiso   1.00
O470   O     0.47965   0.92751   0.27014   0.00000  Uiso   1.00
O471   O     0.40745   0.79958   0.23413   0.00000  Uiso   1.00
O472   O     0.60026   0.85939   0.21360   0.00000  Uiso   1.00
O473   O     0.40405   0.85544   0.28213   0.00000  Uiso   1.00
O474   O     0.58824   0.81892   0.27013   0.00000  Uiso   1.00
O475   O     0.47093   0.73610   0.23413   0.00000  Uiso   1.00
O476   O     0.53678   0.92286   0.21361   0.00000  Uiso   1.00
Zn477  Zn    0.52672   0.80661   0.28734   0.00000  Uiso   1.00
Zn478  Zn    0.46713   0.79124   0.21876   0.00000  Uiso   1.00
Zn479  Zn    0.54389   0.86442   0.20657   0.00000  Uiso   1.00
Zn480  Zn    0.46226   0.87106   0.28734   0.00000  Uiso   1.00
C481   C     0.71934   0.82618   0.26001   0.00000  Uiso   1.00
C482   C     0.84718   0.83303   0.05629   0.00000  Uiso   1.00
C483   C     0.85937   0.76323   0.06369   0.00000  Uiso   1.00
C484   C     0.94735   0.84046   0.24010   0.00000  Uiso   1.00
C485   C     0.80853   0.86058   0.42016   0.00000  Uiso   1.00
C486   C     0.99318   0.84330   0.23633   0.00000  Uiso   1.00
C487   C     0.67409   0.82352   0.26369   0.00000  Uiso   1.00
C488   C     0.84630   0.98913   0.23851   0.00000  Uiso   1.00
C489   C     0.81642   0.67877   0.26423   0.00000  Uiso   1.00
C490   C     0.82315   0.72261   0.25954   0.00000  Uiso   1.00
C491   C     0.84285   0.94448   0.24039   0.00000  Uiso   1.00
C492   C     0.79429   0.91192   0.48434   0.00000  Uiso   1.00
C493   C     0.85162   0.81444   0.12929   0.00000  Uiso   1.00
C494   C     0.81483   0.85106   0.37110   0.00000  Uiso   1.00
C495   C     0.85154   0.75005   0.02187   0.00000  Uiso   1.00
C496   C     0.85679   0.80461   0.08118   0.00000  Uiso   1.00
C497   C     0.79878   0.90033   0.43874   0.00000  Uiso   1.00
C498   C     0.75319   0.68688   0.32748   0.00000  Uiso   1.00
C499   C     0.78791   0.89409   0.06026   0.00000  Uiso   1.00
C500   C     0.78129   0.95243   0.00198   0.00000  Uiso   1.00
C501   C     0.80237   0.88462   0.01212   0.00000  Uiso   1.00
C502   C     0.81775   0.84594   0.49283   0.00000  Uiso   1.00
C503   C     0.81521   0.83219   0.44793   0.00000  Uiso   1.00
C504   C     0.83397   0.81937   0.01630   0.00000  Uiso   1.00
C505   C     0.83834   0.77750   0.49834   0.00000  Uiso   1.00
C506   C     0.82882   0.76304   0.45742   0.00000  Uiso   1.00
C507   C     0.81789   0.78998   0.43236   0.00000  Uiso   1.00
H508   H     0.86601   0.74081   0.08322   0.00000  Uiso   1.00
H509   H     0.75747   0.97536   0.27254   0.00000  Uiso   1.00
H510   H     0.72596   0.66755   0.34811   0.00000  Uiso   1.00
H511   H     0.74024   0.71092   0.31413   0.00000  Uiso   1.00
H512   H     0.77444   0.70204   0.34935   0.00000  Uiso   1.00
H513   H     0.98589   0.80499   0.28901   0.00000  Uiso   1.00
H514   H     0.87463   0.67065   0.21616   0.00000  Uiso   1.00
H515   H     0.83067   0.73082   0.44422   0.00000  Uiso   1.00
H516   H     0.85405   0.71790   0.00877   0.00000  Uiso   1.00
H517   H     0.84911   0.86516   0.06959   0.00000  Uiso   1.00
H518   H     0.79396   0.92242   0.41764   0.00000  Uiso   1.00
H519   H     0.81014   0.77671   0.40124   0.00000  Uiso   1.00
H520   H     0.68211   0.86157   0.21117   0.00000  Uiso   1.00
N521   N     0.77658   0.99401   0.29097   0.00000  Uiso   1.00
N522   N     0.77612   0.90175   0.09864   0.00000  Uiso   1.00
N523   N     0.77094   0.98485   0.01605   0.00000  Uiso   1.00
O524   O     0.83333   0.83333   0.25000   0.00000  Uiso   1.00
O525   O     0.82118   0.79304   0.15459   0.00000  Uiso   1.00
O526   O     0.79607   0.87058   0.34968   0.00000  Uiso   1.00
O527   O     0.87491   0.84425   0.14606   0.00000  Uiso   1.00
O528   O     0.84118   0.82546   0.34968   0.00000  Uiso   1.00
O529   O     0.84597   0.74686   0.28213   0.00000  Uiso   1.00
O530   O     0.81298   0.92751   0.27014   0.00000  Uiso   1.00
O531   O     0.74078   0.79958   0.23413   0.00000  Uiso   1.00
O532   O     0.93360   0.85939   0.21360   0.00000  Uiso   1.00
O533   O     0.73738   0.85544   0.28213   0.00000  Uiso   1.00
O534   O     0.92158   0.81892   0.27013   0.00000  Uiso   1.00
O535   O     0.80426   0.73610   0.23413   0.00000  Uiso   1.00
O536   O     0.87012   0.92286   0.21361   0.00000  Uiso   1.00
Zn537  Zn    0.86005   0.80661   0.28734   0.00000  Uiso   1.00
Zn538  Zn    0.80046   0.79124   0.21876   0.00000  Uiso   1.00
Zn539  Zn    0.87723   0.86442   0.20657   0.00000  Uiso   1.00
Zn540  Zn    0.79560   0.87106   0.28734   0.00000  Uiso   1.00
C541   C     0.05267   0.15951   0.76001   0.00000  Uiso   1.00
C542   C     0.18052   0.16636   0.55629   0.00000  Uiso   1.00
C543   C     0.19271   0.09657   0.56369   0.00000  Uiso   1.00
C544   C     0.28068   0.17379   0.74010   0.00000  Uiso   1.00
C545   C     0.14186   0.19391   0.92016   0.00000  Uiso   1.00
C546   C     0.32651   0.17664   0.73633   0.00000  Uiso   1.00
C547   C     0.00742   0.15685   0.76369   0.00000  Uiso   1.00
C548   C     0.17964   0.32246   0.73851   0.00000  Uiso   1.00
C549   C     0.14976   0.01211   0.76423   0.00000  Uiso   1.00
C550   C     0.15648   0.05594   0.75954   0.00000  Uiso   1.00
C551   C     0.17619   0.27781   0.74039   0.00000  Uiso   1.00
C552   C     0.12763   0.24526   0.98434   0.00000  Uiso   1.00
C553   C     0.18495   0.14777   0.62929   0.00000  Uiso   1.00
C554   C     0.14817   0.18439   0.87110   0.00000  Uiso   1.00
C555   C     0.18487   0.08338   0.52187   0.00000  Uiso   1.00
C556   C     0.19013   0.13795   0.58118   0.00000  Uiso   1.00
C557   C     0.13212   0.23366   0.93874   0.00000  Uiso   1.00
C558   C     0.08652   0.02021   0.82748   0.00000  Uiso   1.00
C559   C     0.12124   0.22742   0.56026   0.00000  Uiso   1.00
C560   C     0.11463   0.28577   0.50198   0.00000  Uiso   1.00
C561   C     0.13570   0.21795   0.51212   0.00000  Uiso   1.00
C562   C     0.15108   0.17927   0.99283   0.00000  Uiso   1.00
C563   C     0.14855   0.16552   0.94793   0.00000  Uiso   1.00
C564   C     0.16730   0.15271   0.51630   0.00000  Uiso   1.00
C565   C     0.17168   0.11083   0.99834   0.00000  Uiso   1.00
C566   C     0.16216   0.09637   0.95742   0.00000  Uiso   1.00
C567   C     0.15122   0.12331   0.93236   0.00000  Uiso   1.00
H568   H     0.19935   0.07414   0.58322   0.00000  Uiso   1.00
H569   H     0.09081   0.30869   0.77254   0.00000  Uiso   1.00
H570   H     0.05929   0.00089   0.84811   0.00000  Uiso   1.00
H571   H     0.07357   0.04425   0.81413   0.00000  Uiso   1.00
H572   H     0.10777   0.03537   0.84935   0.00000  Uiso   1.00
H573   H     0.31922   0.13832   0.78901   0.00000  Uiso   1.00
H574   H     0.20797   0.00399   0.71616   0.00000  Uiso   1.00
H575   H     0.16400   0.06416   0.94422   0.00000  Uiso   1.00
H576   H     0.18738   0.05123   0.50877   0.00000  Uiso   1.00
H577   H     0.18244   0.19850   0.56959   0.00000  Uiso   1.00
H578   H     0.12729   0.25575   0.91764   0.00000  Uiso   1.00
H579   H     0.14348   0.11005   0.90124   0.00000  Uiso   1.00
H580   H     0.01545   0.19490   0.71117   0.00000  Uiso   1.00
N581   N     0.10991   0.32734   0.79097   0.00000  Uiso   1.00
N582   N     0.10945   0.23509   0.59864   0.00000  Uiso   1.00
N583   N     0.10427   0.31818   0.51605   0.00000  Uiso   1.00
O584   O     0.16667   0.16667   0.75000   0.00000  Uiso   1.00
O585   O     0.15451   0.12637   0.65459   0.00000  Uiso   1.00
O586   O     0.12940   0.20391   0.84968   0.00000  Uiso   1.00
O587   O     0.20824   0.17759   0.64606   0.00000  Uiso   1.00
O588   O     0.17451   0.15880   0.84968   0.00000  Uiso   1.00
O589   O     0.17930   0.08019   0.78213   0.00000  Uiso   1.00
O590   O     0.14632   0.26085   0.77014   0.00000  Uiso   1.00
O591   O     0.07412   0.13291   0.73413   0.00000  Uiso   1.00
O592   O     0.26693   0.19272   0.71360   0.00000  Uiso   1.00
O593   O     0.07071   0.18878   0.78213   0.00000  Uiso   1.00
O594   O     0.25491   0.15226   0.77013   0.00000  Uiso   1.00
O595   O     0.13760   0.06944   0.73413   0.00000  Uiso   1.00
O596   O     0.20345   0.25620   0.71361   0.00000  Uiso   1.00
Zn597  Zn    0.19338   0.13994   0.78734   0.00000  Uiso   1.00
Zn598  Zn    0.13379   0.12458   0.71876   0.00000  Uiso   1.00
Zn599  Zn    0.21056   0.19775   0.70657   0.00000  Uiso   1.00
Zn600  Zn    0.12893   0.20439   0.78734   0.00000  Uiso   1.00
C601   C     0.38600   0.15951   0.76001   0.00000  Uiso   1.00
C602   C     0.51385   0.16636   0.55629   0.00000  Uiso   1.00
C603   C     0.52604   0.09657   0.56369   0.00000  Uiso   1.00
C604   C     0.61401   0.17379   0.74010   0.00000  Uiso   1.00
C605   C     0.47519   0.19391   0.92016   0.00000  Uiso   1.00
C606   C     0.65984   0.17664   0.73633   0.00000  Uiso   1.00
C607   C     0.34076   0.15685   0.76369   0.00000  Uiso   1.00
C608   C     0.51297   0.32246   0.73851   0.00000  Uiso   1.00
C609   C     0.48309   0.01211   0.76423   0.00000  Uiso   1.00
C610   C     0.48982   0.05594   0.75954   0.00000  Uiso   1.00
C611   C     0.50952   0.27781   0.74039   0.00000  Uiso   1.00
C612   C     0.46096   0.24526   0.98434   0.00000  Uiso   1.00
C613   C     0.51828   0.14777   0.62929   0.00000  Uiso   1.00
C614   C     0.48150   0.18439   0.87110   0.00000  Uiso   1.00
C615   C     0.51821   0.08338   0.52187   0.00000  Uiso   1.00
C616   C     0.52346   0.13795   0.58118   0.00000  Uiso   1.00
C617   C     0.46545   0.23366   0.93874   0.00000  Uiso   1.00
C618   C     0.41986   0.02021   0.82748   0.00000  Uiso   1.00
C619   C     0.45458   0.22742   0.56026   0.00000  Uiso   1.00
C620   C     0.44796   0.28577   0.50198   0.00000  Uiso   1.00
C621   C     0.46903   0.21795   0.51212   0.00000  Uiso   1.00
C622   C     0.48442   0.17927   0.99283   0.00000  Uiso   1.00
C623   C     0.48188   0.16552   0.94793   0.00000  Uiso   1.00
C624   C     0.50063   0.15271   0.51630   0.00000  Uiso   1.00
C625   C     0.50501   0.11083   0.99834   0.00000  Uiso   1.00
C626   C     0.49549   0.09637   0.95742   0.00000  Uiso   1.00
C627   C     0.48456   0.12331   0.93236   0.00000  Uiso   1.00
H628   H     0.53268   0.07414   0.58322   0.00000  Uiso   1.00
H629   H     0.42414   0.30869   0.77254   0.00000  Uiso   1.00
H630   H     0.39262   0.00089   0.84811   0.00000  Uiso   1.00
H631   H     0.40690   0.04425   0.81413   0.00000  Uiso   1.00
H632   H     0.44111   0.03537   0.84935   0.00000  Uiso   1.00
H633   H     0.65255   0.13832   0.78901   0.00000  Uiso   1.00
H634   H     0.54130   0.00399   0.71616   0.00000  Uiso   1.00
H635   H     0.49733   0.06416   0.94422   0.00000  Uiso   1.00
H636   H     0.52071   0.05123   0.50877   0.00000  Uiso   1.00
H637   H     0.51578   0.19850   0.56959   0.00000  Uiso   1.00
H638   H     0.46062   0.25575   0.91764   0.00000  Uiso   1.00
H639   H     0.47681   0.11005   0.90124   0.00000  Uiso   1.00
H640   H     0.34878   0.19490   0.71117   0.00000  Uiso   1.00
N641   N     0.44325   0.32734   0.79097   0.00000  Uiso   1.00
N642   N     0.44279   0.23509   0.59864   0.00000  Uiso   1.00
N643   N     0.43760   0.31818   0.51605   0.00000  Uiso   1.00
O644   O     0.50000   0.16667   0.75000   0.00000  Uiso   1.00
O645   O     0.48784   0.12637   0.65459   0.00000  Uiso   1.00
O646   O     0.46274   0.20391   0.84968   0.00000  Uiso   1.00
O647   O     0.54157   0.17759   0.64606   0.00000  Uiso   1.00
O648   O     0.50785   0.15880   0.84968   0.00000  Uiso   1.00
O649   O     0.51264   0.08019   0.78213   0.00000  Uiso   1.00
O650   O     0.47965   0.26085   0.77014   0.00000  Uiso   1.00
O651   O     0.40745   0.13291   0.73413   0.00000  Uiso   1.00
O652   O     0.60026   0.19272   0.71360   0.00000  Uiso   1.00
O653   O     0.40405   0.18878   0.78213   0.00000  Uiso   1.00
O654   O     0.58824   0.15226   0.77013   0.00000  Uiso   1.00
O655   O     0.47093   0.06944   0.73413   0.00000  Uiso   1.00
O656   O     0.53678   0.25620   0.71361   0.00000  Uiso   1.00
Zn657  Zn    0.52672   0.13994   0.78734   0.00000  Uiso   1.00
Zn658  Zn    0.46713   0.12458   0.71876   0.00000  Uiso   1.00
Zn659  Zn    0.54389   0.19775   0.70657   0.00000  Uiso   1.00
Zn660  Zn    0.46226   0.20439   0.78734   0.00000  Uiso   1.00
C661   C     0.71934   0.15951   0.76001   0.00000  Uiso   1.00
C662   C     0.84718   0.16636   0.55629   0.00000  Uiso   1.00
C663   C     0.85937   0.09657   0.56369   0.00000  Uiso   1.00
C664   C     0.94735   0.17379   0.74010   0.00000  Uiso   1.00
C665   C     0.80853   0.19391   0.92016   0.00000  Uiso   1.00
C666   C     0.99318   0.17664   0.73633   0.00000  Uiso   1.00
C667   C     0.67409   0.15685   0.76369   0.00000  Uiso   1.00
C668   C     0.84630   0.32246   0.73851   0.00000  Uiso   1.00
C669   C     0.81642   0.01211   0.76423   0.00000  Uiso   1.00
C670   C     0.82315   0.05594   0.75954   0.00000  Uiso   1.00
C671   C     0.84285   0.27781   0.74039   0.00000  Uiso   1.00
C672   C     0.79429   0.24526   0.98434   0.00000  Uiso   1.00
C673   C     0.85162   0.14777   0.62929   0.00000  Uiso   1.00
C674   C     0.81483   0.18439   0.87110   0.00000  Uiso   1.00
C675   C     0.85154   0.08338   0.52187   0.00000  Uiso   1.00
C676   C     0.85679   0.13795   0.58118   0.00000  Uiso   1.00
C677   C     0.79878   0.23366   0.93874   0.00000  Uiso   1.00
C678   C     0.75319   0.02021   0.82748   0.00000  Uiso   1.00
C679   C     0.78791   0.22742   0.56026   0.00000  Uiso   1.00
C680   C     0.78129   0.28577   0.50198   0.00000  Uiso   1.00
C681   C     0.80237   0.21795   0.51212   0.00000  Uiso   1.00
C682   C     0.81775   0.17927   0.99283   0.00000  Uiso   1.00
C683   C     0.81521   0.16552   0.94793   0.00000  Uiso   1.00
C684   C     0.83397   0.15271   0.51630   0.00000  Uiso   1.00
C685   C     0.83834   0.11083   0.99834   0.00000  Uiso   1.00
C686   C     0.82882   0.09637   0.95742   0.00000  Uiso   1.00
C687   C     0.81789   0.12331   0.93236   0.00000  Uiso   1.00
H688   H     0.86601   0.07414   0.58322   0.00000  Uiso   1.00
H689   H     0.75747   0.30869   0.77254   0.00000  Uiso   1.00
H690   H     0.72596   0.00089   0.84811   0.00000  Uiso   1.00
H691   H     0.74024   0.04425   0.81413   0.00000  Uiso   1.00
H692   H     0.77444   0.03537   0.84935   0.00000  Uiso   1.00
H693   H     0.98589   0.13832   0.78901   0.00000  Uiso   1.00
H694   H     0.87463   0.00399   0.71616   0.00000  Uiso   1.00
H695   H     0.83067   0.06416   0.94422   0.00000  Uiso   1.00
H696   H     0.85405   0.05123   0.50877   0.00000  Uiso   1.00
H697   H     0.84911   0.19850   0.56959   0.00000  Uiso   1.00
H698   H     0.79396   0.25575   0.91764   0.00000  Uiso   1.00
H699   H     0.81014   0.11005   0.90124   0.00000  Uiso   1.00
H700   H     0.68211   0.19490   0.71117   0.00000  Uiso   1.00
N701   N     0.77658   0.32734   0.79097   0.00000  Uiso   1.00
N702   N     0.77612   0.23509   0.59864   0.00000  Uiso   1.00
N703   N     0.77094   0.31818   0.51605   0.00000  Uiso   1.00
O704   O     0.83333   0.16667   0.75000   0.00000  Uiso   1.00
O705   O     0.82118   0.12637   0.65459   0.00000  Uiso   1.00
O706   O     0.79607   0.20391   0.84968   0.00000  Uiso   1.00
O707   O     0.87491   0.17759   0.64606   0.00000  Uiso   1.00
O708   O     0.84118   0.15880   0.84968   0.00000  Uiso   1.00
O709   O     0.84597   0.08019   0.78213   0.00000  Uiso   1.00
O710   O     0.81298   0.26085   0.77014   0.00000  Uiso   1.00
O711   O     0.74078   0.13291   0.73413   0.00000  Uiso   1.00
O712   O     0.93360   0.19272   0.71360   0.00000  Uiso   1.00
O713   O     0.73738   0.18878   0.78213   0.00000  Uiso   1.00
O714   O     0.92158   0.15226   0.77013   0.00000  Uiso   1.00
O715   O     0.80426   0.06944   0.73413   0.00000  Uiso   1.00
O716   O     0.87012   0.25620   0.71361   0.00000  Uiso   1.00
Zn717  Zn    0.86005   0.13994   0.78734   0.00000  Uiso   1.00
Zn718  Zn    0.80046   0.12458   0.71876   0.00000  Uiso   1.00
Zn719  Zn    0.87723   0.19775   0.70657   0.00000  Uiso   1.00
Zn720  Zn    0.79560   0.20439   0.78734   0.00000  Uiso   1.00
C721   C     0.05267   0.49284   0.76001   0.00000  Uiso   1.00
C722   C     0.18052   0.49969   0.55629   0.00000  Uiso   1.00
C723   C     0.19271   0.42990   0.56369   0.00000  Uiso   1.00
C724   C     0.28068   0.50712   0.74010   0.00000  Uiso   1.00
C725   C     0.14186   0.52725   0.92016   0.00000  Uiso   1.00
C726   C     0.32651   0.50997   0.73633   0.00000  Uiso   1.00
C727   C     0.00742   0.49018   0.76369   0.00000  Uiso   1.00
C728   C     0.17964   0.65580   0.73851   0.00000  Uiso   1.00
C729   C     0.14976   0.34544   0.76423   0.00000  Uiso   1.00
C730   C     0.15648   0.38928   0.75954   0.00000  Uiso   1.00
C731   C     0.17619   0.61114   0.74039   0.00000  Uiso   1.00
C732   C     0.12763   0.57859   0.98434   0.00000  Uiso   1.00
C733   C     0.18495   0.48110   0.62929   0.00000  Uiso   1.00
C734   C     0.14817   0.51772   0.87110   0.00000  Uiso   1.00
C735   C     0.18487   0.41671   0.52187   0.00000  Uiso   1.00
C736   C     0.19013   0.47128   0.58118   0.00000  Uiso   1.00
C737   C     0.13212   0.56699   0.93874   0.00000  Uiso   1.00
C738   C     0.08652   0.35355   0.82748   0.00000  Uiso   1.00
C739   C     0.12124   0.56075   0.56026   0.00000  Uiso   1.00
C740   C     0.11463   0.61910   0.50198   0.00000  Uiso   1.00
C741   C     0.13570   0.55129   0.51212   0.00000  Uiso   1.00
C742   C     0.15108   0.51260   0.99283   0.00000  Uiso   1.00
C743   C     0.14855   0.49886   0.94793   0.00000  Uiso   1.00
C744   C     0.16730   0.48604   0.51630   0.00000  Uiso   1.00
C745   C     0.17168   0.44416   0.99834   0.00000  Uiso   1.00
C746   C     0.16216   0.42970   0.95742   0.00000  Uiso   1.00
C747   C     0.15122   0.45664   0.93236   0.00000  Uiso   1.00
H748   H     0.19935   0.40748   0.58322   0.00000  Uiso   1.00
H749   H     0.09081   0.64202   0.77254   0.00000  Uiso   1.00
H750   H     0.05929   0.33422   0.84811   0.00000  Uiso   1.00
H751   H     0.07357   0.37758   0.81413   0.00000  Uiso   1.00
H752   H     0.10777   0.36870   0.84935   0.00000  Uiso   1.00
H753   H     0.31922   0.47165   0.78901   0.00000  Uiso   1.00
H754   H     0.20797   0.33732   0.71616   0.00000  Uiso   1.00
H755   H     0.16400   0.39749   0.94422   0.00000  Uiso   1.00
H756   H     0.18738   0.38457   0.50877   0.00000  Uiso   1.00
H757   H     0.18244   0.53183   0.56959   0.00000  Uiso   1.00
H758   H     0.12729   0.58909   0.91764   0.00000  Uiso   1.00
H759   H     0.14348   0.44338   0.90124   0.00000  Uiso   1.00
H760   H     0.01545   0.52823   0.71117   0.00000  Uiso   1.00
N761   N     0.10991   0.66068   0.79097   0.00000  Uiso   1.00
N762   N     0.10945   0.56842   0.59864   0.00000  Uiso   1.00
N763   N     0.10427   0.65152   0.51605   0.00000  Uiso   1.00
O764   O     0.16667   0.50000   0.75000   0.00000  Uiso   1.00
O765   O     0.15451   0.45970   0.65459   0.00000  Uiso   1.00
O766   O     0.12940   0.53724   0.84968   0.00000  Uiso   1.00
O767   O     0.20824   0.51092   0.64606   0.00000  Uiso   1.00
O768   O     0.17451   0.49213   0.84968   0.00000  Uiso   1.00
O769   O     0.17930   0.41352   0.78213   0.00000  Uiso   1.00
O770   O     0.14632   0.59418   0.77014   0.00000  Uiso   1.00
O771   O     0.07412   0.46625   0.73413   0.00000  Uiso   1.00
O772   O     0.26693   0.52605   0.71360   0.00000  Uiso   1.00
O773   O     0.07071   0.52211   0.78213   0.00000  Uiso   1.00
O774   O     0.25491   0.48559   0.77013   0.00000  Uiso   1.00
O775   O     0.13760   0.40277   0.73413   0.00000  Uiso   1.00
O776   O     0.20345   0.58953   0.71361   0.00000  Uiso   1.00
Zn777  Zn    0.19338   0.47327   0.78734   0.00000  Uiso   1.00
Zn778  Zn    0.13379   0.45791   0.71876   0.00000  Uiso   1.00
Zn779  Zn    0.21056   0.53109   0.70657   0.00000  Uiso   1.00
Zn780  Zn    0.12893   0.53773   0.78734   0.00000  Uiso   1.00
C781   C     0.38600   0.49284   0.76001   0.00000  Uiso   1.00
C782   C     0.51385   0.49969   0.55629   0.00000  Uiso   1.00
C783   C     0.52604   0.42990   0.56369   0.00000  Uiso   1.00
C784   C     0.61401   0.50712   0.74010   0.00000  Uiso   1.00
C785   C     0.47519   0.52725   0.92016   0.00000  Uiso   1.00
C786   C     0.65984   0.50997   0.73633   0.00000  Uiso   1.00
C787   C     0.34076   0.49018   0.76369   0.00000  Uiso   1.00
C788   C     0.51297   0.65580   0.73851   0.00000  Uiso   1.00
C789   C     0.48309   0.34544   0.76423   0.00000  Uiso   1.00
C790   C     0.48982   0.38928   0.75954   0.00000  Uiso   1.00
C791   C     0.50952   0.61114   0.74039   0.00000  Uiso   1.00
C792   C     0.46096   0.57859   0.98434   0.00000  Uiso   1.00
C793   C     0.51828   0.48110   0.62929   0.00000  Uiso   1.00
C794   C     0.48150   0.51772   0.87110   0.00000  Uiso   1.00
C795   C     0.51821   0.41671   0.52187   0.00000  Uiso   1.00
C796   C     0.52346   0.47128   0.58118   0.00000  Uiso   1.00
C797   C     0.46545   0.56699   0.93874   0.00000  Uiso   1.00
C798   C     0.41986   0.35355   0.82748   0.00000  Uiso   1.00
C799   C     0.45458   0.56075   0.56026   0.00000  Uiso   1.00
C800   C     0.44796   0.61910   0.50198   0.00000  Uiso   1.00
C801   C     0.46903   0.55129   0.51212   0.00000  Uiso   1.00
C802   C     0.48442   0.51260   0.99283   0.00000  Uiso   1.00
C803   C     0.48188   0.49886   0.94793   0.00000  Uiso   1.00
C804   C     0.50063   0.48604   0.51630   0.00000  Uiso   1.00
C805   C     0.50501   0.44416   0.99834   0.00000  Uiso   1.00
C806   C     0.49549   0.42970   0.95742   0.00000  Uiso   1.00
C807   C     0.48456   0.45664   0.93236   0.00000  Uiso   1.00
H808   H     0.53268   0.40748   0.58322   0.00000  Uiso   1.00
H809   H     0.42414   0.64202   0.77254   0.00000  Uiso   1.00
H810   H     0.39262   0.33422   0.84811   0.00000  Uiso   1.00
H811   H     0.40690   0.37758   0.81413   0.00000  Uiso   1.00
H812   H     0.44111   0.36870   0.84935   0.00000  Uiso   1.00
H813   H     0.65255   0.47165   0.78901   0.00000  Uiso   1.00
H814   H     0.54130   0.33732   0.71616   0.00000  Uiso   1.00
H815   H     0.49733   0.39749   0.94422   0.00000  Uiso   1.00
H816   H     0.52071   0.38457   0.50877   0.00000  Uiso   1.00
H817   H     0.51578   0.53183   0.56959   0.00000  Uiso   1.00
H818   H     0.46062   0.58909   0.91764   0.00000  Uiso   1.00
H819   H     0.47681   0.44338   0.90124   0.00000  Uiso   1.00
H820   H     0.34878   0.52823   0.71117   0.00000  Uiso   1.00
N821   N     0.44325   0.66068   0.79097   0.00000  Uiso   1.00
N822   N     0.44279   0.56842   0.59864   0.00000  Uiso   1.00
N823   N     0.43760   0.65152   0.51605   0.00000  Uiso   1.00
O824   O     0.50000   0.50000   0.75000   0.00000  Uiso   1.00
O825   O     0.48784   0.45970   0.65459   0.00000  Uiso   1.00
O826   O     0.46274   0.53724   0.84968   0.00000  Uiso   1.00
O827   O     0.54157   0.51092   0.64606   0.00000  Uiso   1.00
O828   O     0.50785   0.49213   0.84968   0.00000  Uiso   1.00
O829   O     0.51264   0.41352   0.78213   0.00000  Uiso   1.00
O830   O     0.47965   0.59418   0.77014   0.00000  Uiso   1.00
O831   O     0.40745   0.46625   0.73413   0.00000  Uiso   1.00
O832   O     0.60026   0.52605   0.71360   0.00000  Uiso   1.00
O833   O     0.40405   0.52211   0.78213   0.00000  Uiso   1.00
O834   O     0.58824   0.48559   0.77013   0.00000  Uiso   1.00
O835   O     0.47093   0.40277   0.73413   0.00000  Uiso   1.00
O836   O     0.53678   0.58953   0.71361   0.00000  Uiso   1.00
Zn837  Zn    0.52672   0.47327   0.78734   0.00000  Uiso   1.00
Zn838  Zn    0.46713   0.45791   0.71876   0.00000  Uiso   1.00
Zn839  Zn    0.54389   0.53109   0.70657   0.00000  Uiso   1.00
Zn840  Zn    0.46226   0.53773   0.78734   0.00000  Uiso   1.00
C841   C     0.71934   0.49284   0.76001   0.00000  Uiso   1.00
C842   C     0.84718   0.49969   0.55629   0.00000  Uiso   1.00
C843   C     0.85937   0.42990   0.56369   0.00000  Uiso   1.00
C844   C     0.94735   0.50712   0.74010   0.00000  Uiso   1.00
C845   C     0.80853   0.52725   0.92016   0.00000  Uiso   1.00
C846   C     0.99318   0.50997   0.73633   0.00000  Uiso   1.00
C847   C     0.67409   0.49018   0.76369   0.00000  Uiso   1.00
C848   C     0.84630   0.65580   0.73851   0.00000  Uiso   1.00
C849   C     0.81642   0.34544   0.76423   0.00000  Uiso   1.00
C850   C     0.82315   0.38928   0.75954   0.00000  Uiso   1.00
C851   C     0.84285   0.61114   0.74039   0.00000  Uiso   1.00
C852   C     0.79429   0.57859   0.98434   0.00000  Uiso   1.00
C853   C     0.85162   0.48110   0.62929   0.00000  Uiso   1.00
C854   C     0.81483   0.51772   0.87110   0.00000  Uiso   1.00
C855   C     0.85154   0.41671   0.52187   0.00000  Uiso   1.00
C856   C     0.85679   0.47128   0.58118   0.00000  Uiso   1.00
C857   C     0.79878   0.56699   0.93874   0.00000  Uiso   1.00
C858   C     0.75319   0.35355   0.82748   0.00000  Uiso   1.00
C859   C     0.78791   0.56075   0.56026   0.00000  Uiso   1.00
C860   C     0.78129   0.61910   0.50198   0.00000  Uiso   1.00
C861   C     0.80237   0.55129   0.51212   0.00000  Uiso   1.00
C862   C     0.81775   0.51260   0.99283   0.00000  Uiso   1.00
C863   C     0.81521   0.49886   0.94793   0.00000  Uiso   1.00
C864   C     0.83397   0.48604   0.51630   0.00000  Uiso   1.00
C865   C     0.83834   0.44416   0.99834   0.00000  Uiso   1.00
C866   C     0.82882   0.42970   0.95742   0.00000  Uiso   1.00
C867   C     0.81789   0.45664   0.93236   0.00000  Uiso   1.00
H868   H     0.86601   0.40748   0.58322   0.00000  Uiso   1.00
H869   H     0.75747   0.64202   0.77254   0.00000  Uiso   1.00
H870   H     0.72596   0.33422   0.84811   0.00000  Uiso   1.00
H871   H     0.74024   0.37758   0.81413   0.00000  Uiso   1.00
H872   H     0.77444   0.36870   0.84935   0.00000  Uiso   1.00
H873   H     0.98589   0.47165   0.78901   0.00000  Uiso   1.00
H874   H     0.87463   0.33732   0.71616   0.00000  Uiso   1.00
H875   H     0.83067   0.39749   0.94422   0.00000  Uiso   1.00
H876   H     0.85405   0.38457   0.50877   0.00000  Uiso   1.00
H877   H     0.84911   0.53183   0.56959   0.00000  Uiso   1.00
H878   H     0.79396   0.58909   0.91764   0.00000  Uiso   1.00
H879   H     0.81014   0.44338   0.90124   0.00000  Uiso   1.00
H880   H     0.68211   0.52823   0.71117   0.00000  Uiso   1.00
N881   N     0.77658   0.66068   0.79097   0.00000  Uiso   1.00
N882   N     0.77612   0.56842   0.59864   0.00000  Uiso   1.00
N883   N     0.77094   0.65152   0.51605   0.00000  Uiso   1.00
O884   O     0.83333   0.50000   0.75000   0.00000  Uiso   1.00
O885   O     0.82118   0.45970   0.65459   0.00000  Uiso   1.00
O886   O     0.79607   0.53724   0.84968   0.00000  Uiso   1.00
O887   O     0.87491   0.51092   0.64606   0.00000  Uiso   1.00
O888   O     0.84118   0.49213   0.84968   0.00000  Uiso   1.00
O889   O     0.84597   0.41352   0.78213   0.00000  Uiso   1.00
O890   O     0.81298   0.59418   0.77014   0.00000  Uiso   1.00
O891   O     0.74078   0.46625   0.73413   0.00000  Uiso   1.00
O892   O     0.93360   0.52605   0.71360   0.00000  Uiso   1.00
O893   O     0.73738   0.52211   0.78213   0.00000  Uiso   1.00
O894   O     0.92158   0.48559   0.77013   0.00000  Uiso   1.00
O895   O     0.80426   0.40277   0.73413   0.00000  Uiso   1.00
O896   O     0.87012   0.58953   0.71361   0.00000  Uiso   1.00
Zn897  Zn    0.86005   0.47327   0.78734   0.00000  Uiso   1.00
Zn898  Zn    0.80046   0.45791   0.71876   0.00000  Uiso   1.00
Zn899  Zn    0.87723   0.53109   0.70657   0.00000  Uiso   1.00
Zn900  Zn    0.79560   0.53773   0.78734   0.00000  Uiso   1.00
C901   C     0.05267   0.82618   0.76001   0.00000  Uiso   1.00
C902   C     0.18052   0.83303   0.55629   0.00000  Uiso   1.00
C903   C     0.19271   0.76323   0.56369   0.00000  Uiso   1.00
C904   C     0.28068   0.84046   0.74010   0.00000  Uiso   1.00
C905   C     0.14186   0.86058   0.92016   0.00000  Uiso   1.00
C906   C     0.32651   0.84330   0.73633   0.00000  Uiso   1.00
C907   C     0.00742   0.82352   0.76369   0.00000  Uiso   1.00
C908   C     0.17964   0.98913   0.73851   0.00000  Uiso   1.00
C909   C     0.14976   0.67877   0.76423   0.00000  Uiso   1.00
C910   C     0.15648   0.72261   0.75954   0.00000  Uiso   1.00
C911   C     0.17619   0.94448   0.74039   0.00000  Uiso   1.00
C912   C     0.12763   0.91192   0.98434   0.00000  Uiso   1.00
C913   C     0.18495   0.81444   0.62929   0.00000  Uiso   1.00
C914   C     0.14817   0.85106   0.87110   0.00000  Uiso   1.00
C915   C     0.18487   0.75005   0.52187   0.00000  Uiso   1.00
C916   C     0.19013   0.80461   0.58118   0.00000  Uiso   1.00
C917   C     0.13212   0.90033   0.93874   0.00000  Uiso   1.00
C918   C     0.08652   0.68688   0.82748   0.00000  Uiso   1.00
C919   C     0.12124   0.89409   0.56026   0.00000  Uiso   1.00
C920   C     0.11463   0.95243   0.50198   0.00000  Uiso   1.00
C921   C     0.13570   0.88462   0.51212   0.00000  Uiso   1.00
C922   C     0.15108   0.84594   0.99283   0.00000  Uiso   1.00
C923   C     0.14855   0.83219   0.94793   0.00000  Uiso   1.00
C924   C     0.16730   0.81937   0.51630   0.00000  Uiso   1.00
C925   C     0.17168   0.77750   0.99834   0.00000  Uiso   1.00
C926   C     0.16216   0.76304   0.95742   0.00000  Uiso   1.00
C927   C     0.15122   0.78998   0.93236   0.00000  Uiso   1.00
H928   H     0.19935   0.74081   0.58322   0.00000  Uiso   1.00
H929   H     0.09081   0.97536   0.77254   0.00000  Uiso   1.00
H930   H     0.05929   0.66755   0.84811   0.00000  Uiso   1.00
H931   H     0.07357   0.71092   0.81413   0.00000  Uiso   1.00
H932   H     0.10777   0.70204   0.84935   0.00000  Uiso   1.00
H933   H     0.31922   0.80499   0.78901   0.00000  Uiso   1.00
H934   H     0.20797   0.67065   0.71616   0.00000  Uiso   1.00
H935   H     0.16400   0.73082   0.94422   0.00000  Uiso   1.00
H936   H     0.18738   0.71790   0.50877   0.00000  Uiso   1.00
H937   H     0.18244   0.86516   0.56959   0.00000  Uiso   1.00
H938   H     0.12729   0.92242   0.91764   0.00000  Uiso   1.00
H939   H     0.14348   0.77671   0.90124   0.00000  Uiso   1.00
H940   H     0.01545   0.86157   0.71117   0.00000  Uiso   1.00
N941   N     0.10991   0.99401   0.79097   0.00000  Uiso   1.00
N942   N     0.10945   0.90175   0.59864   0.00000  Uiso   1.00
N943   N     0.10427   0.98485   0.51605   0.00000  Uiso   1.00
O944   O     0.16667   0.83333   0.75000   0.00000  Uiso   1.00
O945   O     0.15451   0.79304   0.65459   0.00000  Uiso   1.00
O946   O     0.12940   0.87058   0.84968   0.00000  Uiso   1.00
O947   O     0.20824   0.84425   0.64606   0.00000  Uiso   1.00
O948   O     0.17451   0.82546   0.84968   0.00000  Uiso   1.00
O949   O     0.17930   0.74686   0.78213   0.00000  Uiso   1.00
O950   O     0.14632   0.92751   0.77014   0.00000  Uiso   1.00
O951   O     0.07412   0.79958   0.73413   0.00000  Uiso   1.00
O952   O     0.26693   0.85939   0.71360   0.00000  Uiso   1.00
O953   O     0.07071   0.85544   0.78213   0.00000  Uiso   1.00
O954   O     0.25491   0.81892   0.77013   0.00000  Uiso   1.00
O955   O     0.13760   0.73610   0.73413   0.00000  Uiso   1.00
O956   O     0.20345   0.92286   0.71361   0.00000  Uiso   1.00
Zn957  Zn    0.19338   0.80661   0.78734   0.00000  Uiso   1.00
Zn958  Zn    0.13379   0.79124   0.71876   0.00000  Uiso   1.00
Zn959  Zn    0.21056   0.86442   0.70657   0.00000  Uiso   1.00
Zn960  Zn    0.12893   0.87106   0.78734   0.00000  Uiso   1.00
C961   C     0.38600   0.82618   0.76001   0.00000  Uiso   1.00
C962   C     0.51385   0.83303   0.55629   0.00000  Uiso   1.00
C963   C     0.52604   0.76323   0.56369   0.00000  Uiso   1.00
C964   C     0.61401   0.84046   0.74010   0.00000  Uiso   1.00
C965   C     0.47519   0.86058   0.92016   0.00000  Uiso   1.00
C966   C     0.65984   0.84330   0.73633   0.00000  Uiso   1.00
C967   C     0.34076   0.82352   0.76369   0.00000  Uiso   1.00
C968   C     0.51297   0.98913   0.73851   0.00000  Uiso   1.00
C969   C     0.48309   0.67877   0.76423   0.00000  Uiso   1.00
C970   C     0.48982   0.72261   0.75954   0.00000  Uiso   1.00
C971   C     0.50952   0.94448   0.74039   0.00000  Uiso   1.00
C972   C     0.46096   0.91192   0.98434   0.00000  Uiso   1.00
C973   C     0.51828   0.81444   0.62929   0.00000  Uiso   1.00
C974   C     0.48150   0.85106   0.87110   0.00000  Uiso   1.00
C975   C     0.51821   0.75005   0.52187   0.00000  Uiso   1.00
C976   C     0.52346   0.80461   0.58118   0.00000  Uiso   1.00
C977   C     0.46545   0.90033   0.93874   0.00000  Uiso   1.00
C978   C     0.41986   0.68688   0.82748   0.00000  Uiso   1.00
C979   C     0.45458   0.89409   0.56026   0.00000  Uiso   1.00
C980   C     0.44796   0.95243   0.50198   0.00000  Uiso   1.00
C981   C     0.46903   0.88462   0.51212   0.00000  Uiso   1.00
C982   C     0.48442   0.84594   0.99283   0.00000  Uiso   1.00
C983   C     0.48188   0.83219   0.94793   0.00000  Uiso   1.00
C984   C     0.50063   0.81937   0.51630   0.00000  Uiso   1.00
C985   C     0.50501   0.77750   0.99834   0.00000  Uiso   1.00
C986   C     0.49549   0.76304   0.95742   0.00000  Uiso   1.00
C987   C     0.48456   0.78998   0.93236   0.00000  Uiso   1.00
H988   H     0.53268   0.74081   0.58322   0.00000  Uiso   1.00
H989   H     0.42414   0.97536   0.77254   0.00000  Uiso   1.00
H990   H     0.39262   0.66755   0.84811   0.00000  Uiso   1.00
H991   H     0.40690   0.71092   0.81413   0.00000  Uiso   1.00
H992   H     0.44111   0.70204   0.84935   0.00000  Uiso   1.00
H993   H     0.65255   0.80499   0.78901   0.00000  Uiso   1.00
H994   H     0.54130   0.67065   0.71616   0.00000  Uiso   1.00
H995   H     0.49733   0.73082   0.94422   0.00000  Uiso   1.00
H996   H     0.52071   0.71790   0.50877   0.00000  Uiso   1.00
H997   H     0.51578   0.86516   0.56959   0.00000  Uiso   1.00
H998   H     0.46062   0.92242   0.91764   0.00000  Uiso   1.00
H999   H     0.47681   0.77671   0.90124   0.00000  Uiso   1.00
H1000  H     0.34878   0.86157   0.71117   0.00000  Uiso   1.00
N1001  N     0.44325   0.99401   0.79097   0.00000  Uiso   1.00
N1002  N     0.44279   0.90175   0.59864   0.00000  Uiso   1.00
N1003  N     0.43760   0.98485   0.51605   0.00000  Uiso   1.00
O1004  O     0.50000   0.83333   0.75000   0.00000  Uiso   1.00
O1005  O     0.48784   0.79304   0.65459   0.00000  Uiso   1.00
O1006  O     0.46274   0.87058   0.84968   0.00000  Uiso   1.00
O1007  O     0.54157   0.84425   0.64606   0.00000  Uiso   1.00
O1008  O     0.50785   0.82546   0.84968   0.00000  Uiso   1.00
O1009  O     0.51264   0.74686   0.78213   0.00000  Uiso   1.00
O1010  O     0.47965   0.92751   0.77014   0.00000  Uiso   1.00
O1011  O     0.40745   0.79958   0.73413   0.00000  Uiso   1.00
O1012  O     0.60026   0.85939   0.71360   0.00000  Uiso   1.00
O1013  O     0.40405   0.85544   0.78213   0.00000  Uiso   1.00
O1014  O     0.58824   0.81892   0.77013   0.00000  Uiso   1.00
O1015  O     0.47093   0.73610   0.73413   0.00000  Uiso   1.00
O1016  O     0.53678   0.92286   0.71361   0.00000  Uiso   1.00
Zn1017 Zn    0.52672   0.80661   0.78734   0.00000  Uiso   1.00
Zn1018 Zn    0.46713   0.79124   0.71876   0.00000  Uiso   1.00
Zn1019 Zn    0.54389   0.86442   0.70657   0.00000  Uiso   1.00
Zn1020 Zn    0.46226   0.87106   0.78734   0.00000  Uiso   1.00
C1021  C     0.71934   0.82618   0.76001   0.00000  Uiso   1.00
C1022  C     0.84718   0.83303   0.55629   0.00000  Uiso   1.00
C1023  C     0.85937   0.76323   0.56369   0.00000  Uiso   1.00
C1024  C     0.94735   0.84046   0.74010   0.00000  Uiso   1.00
C1025  C     0.80853   0.86058   0.92016   0.00000  Uiso   1.00
C1026  C     0.99318   0.84330   0.73633   0.00000  Uiso   1.00
C1027  C     0.67409   0.82352   0.76369   0.00000  Uiso   1.00
C1028  C     0.84630   0.98913   0.73851   0.00000  Uiso   1.00
C1029  C     0.81642   0.67877   0.76423   0.00000  Uiso   1.00
C1030  C     0.82315   0.72261   0.75954   0.00000  Uiso   1.00
C1031  C     0.84285   0.94448   0.74039   0.00000  Uiso   1.00
C1032  C     0.79429   0.91192   0.98434   0.00000  Uiso   1.00
C1033  C     0.85162   0.81444   0.62929   0.00000  Uiso   1.00
C1034  C     0.81483   0.85106   0.87110   0.00000  Uiso   1.00
C1035  C     0.85154   0.75005   0.52187   0.00000  Uiso   1.00
C1036  C     0.85679   0.80461   0.58118   0.00000  Uiso   1.00
C1037  C     0.79878   0.90033   0.93874   0.00000  Uiso   1.00
C1038  C     0.75319   0.68688   0.82748   0.00000  Uiso   1.00
C1039  C     0.78791   0.89409   0.56026   0.00000  Uiso   1.00
C1040  C     0.78129   0.95243   0.50198   0.00000  Uiso   1.00
C1041  C     0.80237   0.88462   0.51212   0.00000  Uiso   1.00
C1042  C     0.81775   0.84594   0.99283   0.00000  Uiso   1.00
C1043  C     0.81521   0.83219   0.94793   0.00000  Uiso   1.00
C1044  C     0.83397   0.81937   0.51630   0.00000  Uiso   1.00
C1045  C     0.83834   0.77750   0.99834   0.00000  Uiso   1.00
C1046  C     0.82882   0.76304   0.95742   0.00000  Uiso   1.00
C1047  C     0.81789   0.78998   0.93236   0.00000  Uiso   1.00
H1048  H     0.86601   0.74081   0.58322   0.00000  Uiso   1.00
H1049  H     0.75747   0.97536   0.77254   0.00000  Uiso   1.00
H1050  H     0.72596   0.66755   0.84811   0.00000  Uiso   1.00
H1051  H     0.74024   0.71092   0.81413   0.00000  Uiso   1.00
H1052  H     0.77444   0.70204   0.84935   0.00000  Uiso   1.00
H1053  H     0.98589   0.80499   0.78901   0.00000  Uiso   1.00
H1054  H     0.87463   0.67065   0.71616   0.00000  Uiso   1.00
H1055  H     0.83067   0.73082   0.94422   0.00000  Uiso   1.00
H1056  H     0.85405   0.71790   0.50877   0.00000  Uiso   1.00
H1057  H     0.84911   0.86516   0.56959   0.00000  Uiso   1.00
H1058  H     0.79396   0.92242   0.91764   0.00000  Uiso   1.00
H1059  H     0.81014   0.77671   0.90124   0.00000  Uiso   1.00
H1060  H     0.68211   0.86157   0.71117   0.00000  Uiso   1.00
N1061  N     0.77658   0.99401   0.79097   0.00000  Uiso   1.00
N1062  N     0.77612   0.90175   0.59864   0.00000  Uiso   1.00
N1063  N     0.77094   0.98485   0.51605   0.00000  Uiso   1.00
O1064  O     0.83333   0.83333   0.75000   0.00000  Uiso   1.00
O1065  O     0.82118   0.79304   0.65459   0.00000  Uiso   1.00
O1066  O     0.79607   0.87058   0.84968   0.00000  Uiso   1.00
O1067  O     0.87491   0.84425   0.64606   0.00000  Uiso   1.00
O1068  O     0.84118   0.82546   0.84968   0.00000  Uiso   1.00
O1069  O     0.84597   0.74686   0.78213   0.00000  Uiso   1.00
O1070  O     0.81298   0.92751   0.77014   0.00000  Uiso   1.00
O1071  O     0.74078   0.79958   0.73413   0.00000  Uiso   1.00
O1072  O     0.93360   0.85939   0.71360   0.00000  Uiso   1.00
O1073  O     0.73738   0.85544   0.78213   0.00000  Uiso   1.00
O1074  O     0.92158   0.81892   0.77013   0.00000  Uiso   1.00
O1075  O     0.80426   0.73610   0.73413   0.00000  Uiso   1.00
O1076  O     0.87012   0.92286   0.71361   0.00000  Uiso   1.00
Zn1077 Zn    0.86005   0.80661   0.78734   0.00000  Uiso   1.00
Zn1078 Zn    0.80046   0.79124   0.71876   0.00000  Uiso   1.00
Zn1079 Zn    0.87723   0.86442   0.70657   0.00000  Uiso   1.00
Zn1080 Zn    0.79560   0.87106   0.78734   0.00000  Uiso   1.00
loop_
_geom_bond_atom_site_label_1
_geom_bond_atom_site_label_2
_geom_bond_distance
_geom_bond_site_symmetry_2
_ccdc_geom_bond_type
C1     O53     1.266   .     A
C1     O51     1.265   .     A
C1     C7      1.436   .     S
C2     C16     1.394   .     A
C2     H37     1.077   .     S
C2     C24     1.412   .     A
C3     H28     1.084   .     S
C3     C15     1.387   .     A
C3     C16     1.398   .     A
C4     O52     1.286   .     A
C4     C6      1.454   .     S
C4     O54     1.284   .     A
C5     C23     1.416   .     A
C5     C14     1.478   .     S
C5     C17     1.399   .     A
C6     C67     1.334   .     S
C6     H100    1.088   .     S
C7     C126    1.334   1_455 S
C7     H153    1.086   1_455 S
C8     C11     1.453   .     S
C8     C189    1.345   .     S
C8     H214    1.088   .     S
C9     C10     1.436   .     S
C9     C368    1.345   1_545 S
C9     N401    1.433   1_545 S
C10    O55     1.268   .     A
C10    O49     1.272   .     A
C11    O56     1.278   .     A
C11    O50     1.266   .     A
C12    C17     1.391   .     A
C12    C560    1.447   .     S
C12    C561    1.408   .     S
C13    C16     1.455   .     S
C13    O45     1.270   .     A
C13    O47     1.283   .     A
C14    O46     1.284   .     A
C14    O48     1.286   .     A
C15    H36     1.084   .     S
C15    C565    1.400   1_554 S
C17    H38     1.085   .     S
C18    H30     1.110   .     S
C18    H32     1.111   .     S
C18    H31     1.111   .     S
C18    N401    1.448   1_545 S
C19    N42     1.158   .     T
C19    C21     1.451   .     S
C20    N43     1.157   .     T
C20    C552    1.447   1_554 S
C21    C552    1.408   1_554 S
C21    C562    1.431   1_554 S
C22    C23     1.425   .     A
C22    C561    1.431   .     S
C22    C564    1.432   .     S
C23    C27     1.410   .     A
C24    C562    1.432   1_554 S
C24    C565    1.424   1_554 S
C25    C26     1.390   .     A
C25    C564    1.424   .     S
C25    C555    1.400   .     S
C26    C27     1.382   .     A
C26    H35     1.084   .     S
C27    H39     1.080   .     S
H29    N41     1.032   .     S
H33    C67     1.086   .     S
H34    C368    1.088   1_545 S
H40    C126    1.088   1_455 S
N41    C198    1.448   .     S
N41    C189    1.433   .     S
O44    Zn57    1.962   .     S
O44    Zn60    1.930   .     S
O44    Zn59    1.948   .     S
O44    Zn58    1.930   .     S
O45    Zn58    1.932   .     S
O46    Zn60    1.936   .     S
O47    Zn59    1.923   .     S
O48    Zn57    1.919   .     S
O49    Zn57    1.933   .     S
O50    Zn60    1.945   .     S
O51    Zn58    1.927   .     S
O52    Zn59    1.933   .     S
O53    Zn60    1.927   .     S
O54    Zn57    1.926   .     S
O55    Zn58    1.949   .     S
O56    Zn59    1.936   .     S
C61    O113    1.266   .     A
C61    O111    1.265   .     A
C61    C67     1.436   .     S
C62    C76     1.394   .     A
C62    H97     1.077   .     S
C62    C84     1.412   .     A
C63    H88     1.084   .     S
C63    C75     1.387   .     A
C63    C76     1.398   .     A
C64    O112    1.286   .     A
C64    C66     1.454   .     S
C64    O114    1.284   .     A
C65    C83     1.416   .     A
C65    C74     1.478   .     S
C65    C77     1.399   .     A
C66    C127    1.334   .     S
C66    H160    1.088   .     S
C68    C71     1.453   .     S
C68    C249    1.345   .     S
C68    H274    1.088   .     S
C69    C70     1.436   .     S
C69    C428    1.345   1_545 S
C69    N461    1.433   1_545 S
C70    O115    1.268   .     A
C70    O109    1.272   .     A
C71    O116    1.278   .     A
C71    O110    1.266   .     A
C72    C77     1.391   .     A
C72    C620    1.447   .     S
C72    C621    1.408   .     S
C73    C76     1.455   .     S
C73    O105    1.270   .     A
C73    O107    1.283   .     A
C74    O106    1.284   .     A
C74    O108    1.286   .     A
C75    H96     1.084   .     S
C75    C625    1.400   1_554 S
C77    H98     1.085   .     S
C78    H90     1.110   .     S
C78    H92     1.111   .     S
C78    H91     1.111   .     S
C78    N461    1.448   1_545 S
C79    N102    1.158   .     T
C79    C81     1.451   .     S
C80    N103    1.157   .     T
C80    C612    1.447   1_554 S
C81    C612    1.408   1_554 S
C81    C622    1.431   1_554 S
C82    C83     1.425   .     A
C82    C621    1.431   .     S
C82    C624    1.432   .     S
C83    C87     1.410   .     A
C84    C622    1.432   1_554 S
C84    C625    1.424   1_554 S
C85    C86     1.390   .     A
C85    C624    1.424   .     S
C85    C615    1.400   .     S
C86    C87     1.382   .     A
C86    H95     1.084   .     S
C87    H99     1.080   .     S
H89    N101    1.032   .     S
H93    C127    1.086   .     S
H94    C428    1.088   1_545 S
N101   C258    1.448   .     S
N101   C249    1.433   .     S
O104   Zn117   1.962   .     S
O104   Zn120   1.930   .     S
O104   Zn119   1.948   .     S
O104   Zn118   1.930   .     S
O105   Zn118   1.932   .     S
O106   Zn120   1.936   .     S
O107   Zn119   1.923   .     S
O108   Zn117   1.919   .     S
O109   Zn117   1.933   .     S
O110   Zn120   1.945   .     S
O111   Zn118   1.927   .     S
O112   Zn119   1.933   .     S
O113   Zn120   1.927   .     S
O114   Zn117   1.926   .     S
O115   Zn118   1.949   .     S
O116   Zn119   1.936   .     S
C121   O173    1.266   .     A
C121   O171    1.265   .     A
C121   C127    1.436   .     S
C122   C136    1.394   .     A
C122   H157    1.077   .     S
C122   C144    1.412   .     A
C123   H148    1.084   .     S
C123   C135    1.387   .     A
C123   C136    1.398   .     A
C124   O172    1.286   .     A
C124   C126    1.454   .     S
C124   O174    1.284   .     A
C125   C143    1.416   .     A
C125   C134    1.478   .     S
C125   C137    1.399   .     A
C126   C7      1.334   1_655 S
C126   H40     1.088   1_655 S
C128   C131    1.453   .     S
C128   C309    1.345   .     S
C128   H334    1.088   .     S
C129   C130    1.436   .     S
C129   C488    1.345   1_545 S
C129   N521    1.433   1_545 S
C130   O175    1.268   .     A
C130   O169    1.272   .     A
C131   O176    1.278   .     A
C131   O170    1.266   .     A
C132   C137    1.391   .     A
C132   C680    1.447   .     S
C132   C681    1.408   .     S
C133   C136    1.455   .     S
C133   O165    1.270   .     A
C133   O167    1.283   .     A
C134   O166    1.284   .     A
C134   O168    1.286   .     A
C135   H156    1.084   .     S
C135   C685    1.400   1_554 S
C137   H158    1.085   .     S
C138   H150    1.110   .     S
C138   H152    1.111   .     S
C138   H151    1.111   .     S
C138   N521    1.448   1_545 S
C139   N162    1.158   .     T
C139   C141    1.451   .     S
C140   N163    1.157   .     T
C140   C672    1.447   1_554 S
C141   C672    1.408   1_554 S
C141   C682    1.431   1_554 S
C142   C143    1.425   .     A
C142   C681    1.431   .     S
C142   C684    1.432   .     S
C143   C147    1.410   .     A
C144   C682    1.432   1_554 S
C144   C685    1.424   1_554 S
C145   C146    1.390   .     A
C145   C684    1.424   .     S
C145   C675    1.400   .     S
C146   C147    1.382   .     A
C146   H155    1.084   .     S
C147   H159    1.080   .     S
H149   N161    1.032   .     S
H153   C7      1.086   1_655 S
H154   C488    1.088   1_545 S
N161   C318    1.448   .     S
N161   C309    1.433   .     S
O164   Zn177   1.962   .     S
O164   Zn180   1.930   .     S
O164   Zn179   1.948   .     S
O164   Zn178   1.930   .     S
O165   Zn178   1.932   .     S
O166   Zn180   1.936   .     S
O167   Zn179   1.923   .     S
O168   Zn177   1.919   .     S
O169   Zn177   1.933   .     S
O170   Zn180   1.945   .     S
O171   Zn178   1.927   .     S
O172   Zn179   1.933   .     S
O173   Zn180   1.927   .     S
O174   Zn177   1.926   .     S
O175   Zn178   1.949   .     S
O176   Zn179   1.936   .     S
C181   O233    1.266   .     A
C181   O231    1.265   .     A
C181   C187    1.436   .     S
C182   C196    1.394   .     A
C182   H217    1.077   .     S
C182   C204    1.412   .     A
C183   H208    1.084   .     S
C183   C195    1.387   .     A
C183   C196    1.398   .     A
C184   O232    1.286   .     A
C184   C186    1.454   .     S
C184   O234    1.284   .     A
C185   C203    1.416   .     A
C185   C194    1.478   .     S
C185   C197    1.399   .     A
C186   C247    1.334   .     S
C186   H280    1.088   .     S
C187   C306    1.334   1_455 S
C187   H333    1.086   1_455 S
C188   C191    1.453   .     S
C188   C369    1.345   .     S
C188   H394    1.088   .     S
C189   C190    1.436   .     S
C190   O235    1.268   .     A
C190   O229    1.272   .     A
C191   O236    1.278   .     A
C191   O230    1.266   .     A
C192   C197    1.391   .     A
C192   C740    1.447   .     S
C192   C741    1.408   .     S
C193   C196    1.455   .     S
C193   O225    1.270   .     A
C193   O227    1.283   .     A
C194   O226    1.284   .     A
C194   O228    1.286   .     A
C195   H216    1.084   .     S
C195   C745    1.400   1_554 S
C197   H218    1.085   .     S
C198   H210    1.110   .     S
C198   H212    1.111   .     S
C198   H211    1.111   .     S
C199   N222    1.158   .     T
C199   C201    1.451   .     S
C200   N223    1.157   .     T
C200   C732    1.447   1_554 S
C201   C732    1.408   1_554 S
C201   C742    1.431   1_554 S
C202   C203    1.425   .     A
C202   C741    1.431   .     S
C202   C744    1.432   .     S
C203   C207    1.410   .     A
C204   C742    1.432   1_554 S
C204   C745    1.424   1_554 S
C205   C206    1.390   .     A
C205   C744    1.424   .     S
C205   C735    1.400   .     S
C206   C207    1.382   .     A
C206   H215    1.084   .     S
C207   H219    1.080   .     S
H209   N221    1.032   .     S
H213   C247    1.086   .     S
H220   C306    1.088   1_455 S
N221   C378    1.448   .     S
N221   C369    1.433   .     S
O224   Zn237   1.962   .     S
O224   Zn240   1.930   .     S
O224   Zn239   1.948   .     S
O224   Zn238   1.930   .     S
O225   Zn238   1.932   .     S
O226   Zn240   1.936   .     S
O227   Zn239   1.923   .     S
O228   Zn237   1.919   .     S
O229   Zn237   1.933   .     S
O230   Zn240   1.945   .     S
O231   Zn238   1.927   .     S
O232   Zn239   1.933   .     S
O233   Zn240   1.927   .     S
O234   Zn237   1.926   .     S
O235   Zn238   1.949   .     S
O236   Zn239   1.936   .     S
C241   O293    1.266   .     A
C241   O291    1.265   .     A
C241   C247    1.436   .     S
C242   C256    1.394   .     A
C242   H277    1.077   .     S
C242   C264    1.412   .     A
C243   H268    1.084   .     S
C243   C255    1.387   .     A
C243   C256    1.398   .     A
C244   O292    1.286   .     A
C244   C246    1.454   .     S
C244   O294    1.284   .     A
C245   C263    1.416   .     A
C245   C254    1.478   .     S
C245   C257    1.399   .     A
C246   C307    1.334   .     S
C246   H340    1.088   .     S
C248   C251    1.453   .     S
C248   C429    1.345   .     S
C248   H454    1.088   .     S
C249   C250    1.436   .     S
C250   O295    1.268   .     A
C250   O289    1.272   .     A
C251   O296    1.278   .     A
C251   O290    1.266   .     A
C252   C257    1.391   .     A
C252   C800    1.447   .     S
C252   C801    1.408   .     S
C253   C256    1.455   .     S
C253   O285    1.270   .     A
C253   O287    1.283   .     A
C254   O286    1.284   .     A
C254   O288    1.286   .     A
C255   H276    1.084   .     S
C255   C805    1.400   1_554 S
C257   H278    1.085   .     S
C258   H270    1.110   .     S
C258   H272    1.111   .     S
C258   H271    1.111   .     S
C259   N282    1.158   .     T
C259   C261    1.451   .     S
C260   N283    1.157   .     T
C260   C792    1.447   1_554 S
C261   C792    1.408   1_554 S
C261   C802    1.431   1_554 S
C262   C263    1.425   .     A
C262   C801    1.431   .     S
C262   C804    1.432   .     S
C263   C267    1.410   .     A
C264   C802    1.432   1_554 S
C264   C805    1.424   1_554 S
C265   C266    1.390   .     A
C265   C804    1.424   .     S
C265   C795    1.400   .     S
C266   C267    1.382   .     A
C266   H275    1.084   .     S
C267   H279    1.080   .     S
H269   N281    1.032   .     S
H273   C307    1.086   .     S
N281   C438    1.448   .     S
N281   C429    1.433   .     S
O284   Zn297   1.962   .     S
O284   Zn300   1.930   .     S
O284   Zn299   1.948   .     S
O284   Zn298   1.930   .     S
O285   Zn298   1.932   .     S
O286   Zn300   1.936   .     S
O287   Zn299   1.923   .     S
O288   Zn297   1.919   .     S
O289   Zn297   1.933   .     S
O290   Zn300   1.945   .     S
O291   Zn298   1.927   .     S
O292   Zn299   1.933   .     S
O293   Zn300   1.927   .     S
O294   Zn297   1.926   .     S
O295   Zn298   1.949   .     S
O296   Zn299   1.936   .     S
C301   O353    1.266   .     A
C301   O351    1.265   .     A
C301   C307    1.436   .     S
C302   C316    1.394   .     A
C302   H337    1.077   .     S
C302   C324    1.412   .     A
C303   H328    1.084   .     S
C303   C315    1.387   .     A
C303   C316    1.398   .     A
C304   O352    1.286   .     A
C304   C306    1.454   .     S
C304   O354    1.284   .     A
C305   C323    1.416   .     A
C305   C314    1.478   .     S
C305   C317    1.399   .     A
C306   C187    1.334   1_655 S
C306   H220    1.088   1_655 S
C308   C311    1.453   .     S
C308   C489    1.345   .     S
C308   H514    1.088   .     S
C309   C310    1.436   .     S
C310   O355    1.268   .     A
C310   O349    1.272   .     A
C311   O356    1.278   .     A
C311   O350    1.266   .     A
C312   C317    1.391   .     A
C312   C860    1.447   .     S
C312   C861    1.408   .     S
C313   C316    1.455   .     S
C313   O345    1.270   .     A
C313   O347    1.283   .     A
C314   O346    1.284   .     A
C314   O348    1.286   .     A
C315   H336    1.084   .     S
C315   C865    1.400   1_554 S
C317   H338    1.085   .     S
C318   H330    1.110   .     S
C318   H332    1.111   .     S
C318   H331    1.111   .     S
C319   N342    1.158   .     T
C319   C321    1.451   .     S
C320   N343    1.157   .     T
C320   C852    1.447   1_554 S
C321   C852    1.408   1_554 S
C321   C862    1.431   1_554 S
C322   C323    1.425   .     A
C322   C861    1.431   .     S
C322   C864    1.432   .     S
C323   C327    1.410   .     A
C324   C862    1.432   1_554 S
C324   C865    1.424   1_554 S
C325   C326    1.390   .     A
C325   C864    1.424   .     S
C325   C855    1.400   .     S
C326   C327    1.382   .     A
C326   H335    1.084   .     S
C327   H339    1.080   .     S
H329   N341    1.032   .     S
H333   C187    1.086   1_655 S
N341   C498    1.448   .     S
N341   C489    1.433   .     S
O344   Zn357   1.962   .     S
O344   Zn360   1.930   .     S
O344   Zn359   1.948   .     S
O344   Zn358   1.930   .     S
O345   Zn358   1.932   .     S
O346   Zn360   1.936   .     S
O347   Zn359   1.923   .     S
O348   Zn357   1.919   .     S
O349   Zn357   1.933   .     S
O350   Zn360   1.945   .     S
O351   Zn358   1.927   .     S
O352   Zn359   1.933   .     S
O353   Zn360   1.927   .     S
O354   Zn357   1.926   .     S
O355   Zn358   1.949   .     S
O356   Zn359   1.936   .     S
C361   O413    1.266   .     A
C361   O411    1.265   .     A
C361   C367    1.436   .     S
C362   C376    1.394   .     A
C362   H397    1.077   .     S
C362   C384    1.412   .     A
C363   H388    1.084   .     S
C363   C375    1.387   .     A
C363   C376    1.398   .     A
C364   O412    1.286   .     A
C364   C366    1.454   .     S
C364   O414    1.284   .     A
C365   C383    1.416   .     A
C365   C374    1.478   .     S
C365   C377    1.399   .     A
C366   C427    1.334   .     S
C366   H460    1.088   .     S
C367   C486    1.334   1_455 S
C367   H513    1.086   1_455 S
C368   C371    1.453   .     S
C368   C9      1.345   1_565 S
C368   H34     1.088   1_565 S
C369   C370    1.436   .     S
C370   O415    1.268   .     A
C370   O409    1.272   .     A
C371   O416    1.278   .     A
C371   O410    1.266   .     A
C372   C377    1.391   .     A
C372   C920    1.447   .     S
C372   C921    1.408   .     S
C373   C376    1.455   .     S
C373   O405    1.270   .     A
C373   O407    1.283   .     A
C374   O406    1.284   .     A
C374   O408    1.286   .     A
C375   H396    1.084   .     S
C375   C925    1.400   1_554 S
C377   H398    1.085   .     S
C378   H390    1.110   .     S
C378   H392    1.111   .     S
C378   H391    1.111   .     S
C379   N402    1.158   .     T
C379   C381    1.451   .     S
C380   N403    1.157   .     T
C380   C912    1.447   1_554 S
C381   C912    1.408   1_554 S
C381   C922    1.431   1_554 S
C382   C383    1.425   .     A
C382   C921    1.431   .     S
C382   C924    1.432   .     S
C383   C387    1.410   .     A
C384   C922    1.432   1_554 S
C384   C925    1.424   1_554 S
C385   C386    1.390   .     A
C385   C924    1.424   .     S
C385   C915    1.400   .     S
C386   C387    1.382   .     A
C386   H395    1.084   .     S
C387   H399    1.080   .     S
H389   N401    1.032   .     S
H393   C427    1.086   .     S
H400   C486    1.088   1_455 S
N401   C18     1.448   1_565 S
N401   C9      1.433   1_565 S
O404   Zn417   1.962   .     S
O404   Zn420   1.930   .     S
O404   Zn419   1.948   .     S
O404   Zn418   1.930   .     S
O405   Zn418   1.932   .     S
O406   Zn420   1.936   .     S
O407   Zn419   1.923   .     S
O408   Zn417   1.919   .     S
O409   Zn417   1.933   .     S
O410   Zn420   1.945   .     S
O411   Zn418   1.927   .     S
O412   Zn419   1.933   .     S
O413   Zn420   1.927   .     S
O414   Zn417   1.926   .     S
O415   Zn418   1.949   .     S
O416   Zn419   1.936   .     S
C421   O473    1.266   .     A
C421   O471    1.265   .     A
C421   C427    1.436   .     S
C422   C436    1.394   .     A
C422   H457    1.077   .     S
C422   C444    1.412   .     A
C423   H448    1.084   .     S
C423   C435    1.387   .     A
C423   C436    1.398   .     A
C424   O472    1.286   .     A
C424   C426    1.454   .     S
C424   O474    1.284   .     A
C425   C443    1.416   .     A
C425   C434    1.478   .     S
C425   C437    1.399   .     A
C426   C487    1.334   .     S
C426   H520    1.088   .     S
C428   C431    1.453   .     S
C428   C69     1.345   1_565 S
C428   H94     1.088   1_565 S
C429   C430    1.436   .     S
C430   O475    1.268   .     A
C430   O469    1.272   .     A
C431   O476    1.278   .     A
C431   O470    1.266   .     A
C432   C437    1.391   .     A
C432   C980    1.447   .     S
C432   C981    1.408   .     S
C433   C436    1.455   .     S
C433   O465    1.270   .     A
C433   O467    1.283   .     A
C434   O466    1.284   .     A
C434   O468    1.286   .     A
C435   H456    1.084   .     S
C435   C985    1.400   1_554 S
C437   H458    1.085   .     S
C438   H450    1.110   .     S
C438   H452    1.111   .     S
C438   H451    1.111   .     S
C439   N462    1.158   .     T
C439   C441    1.451   .     S
C440   N463    1.157   .     T
C440   C972    1.447   1_554 S
C441   C972    1.408   1_554 S
C441   C982    1.431   1_554 S
C442   C443    1.425   .     A
C442   C981    1.431   .     S
C442   C984    1.432   .     S
C443   C447    1.410   .     A
C444   C982    1.432   1_554 S
C444   C985    1.424   1_554 S
C445   C446    1.390   .     A
C445   C984    1.424   .     S
C445   C975    1.400   .     S
C446   C447    1.382   .     A
C446   H455    1.084   .     S
C447   H459    1.080   .     S
H449   N461    1.032   .     S
H453   C487    1.086   .     S
N461   C78     1.448   1_565 S
N461   C69     1.433   1_565 S
O464   Zn477   1.962   .     S
O464   Zn480   1.930   .     S
O464   Zn479   1.948   .     S
O464   Zn478   1.930   .     S
O465   Zn478   1.932   .     S
O466   Zn480   1.936   .     S
O467   Zn479   1.923   .     S
O468   Zn477   1.919   .     S
O469   Zn477   1.933   .     S
O470   Zn480   1.945   .     S
O471   Zn478   1.927   .     S
O472   Zn479   1.933   .     S
O473   Zn480   1.927   .     S
O474   Zn477   1.926   .     S
O475   Zn478   1.949   .     S
O476   Zn479   1.936   .     S
C481   O533    1.266   .     A
C481   O531    1.265   .     A
C481   C487    1.436   .     S
C482   C496    1.394   .     A
C482   H517    1.077   .     S
C482   C504    1.412   .     A
C483   H508    1.084   .     S
C483   C495    1.387   .     A
C483   C496    1.398   .     A
C484   O532    1.286   .     A
C484   C486    1.454   .     S
C484   O534    1.284   .     A
C485   C503    1.416   .     A
C485   C494    1.478   .     S
C485   C497    1.399   .     A
C486   C367    1.334   1_655 S
C486   H400    1.088   1_655 S
C488   C491    1.453   .     S
C488   C129    1.345   1_565 S
C488   H154    1.088   1_565 S
C489   C490    1.436   .     S
C490   O535    1.268   .     A
C490   O529    1.272   .     A
C491   O536    1.278   .     A
C491   O530    1.266   .     A
C492   C497    1.391   .     A
C492   C1040   1.447   .     S
C492   C1041   1.408   .     S
C493   C496    1.455   .     S
C493   O525    1.270   .     A
C493   O527    1.283   .     A
C494   O526    1.284   .     A
C494   O528    1.286   .     A
C495   H516    1.084   .     S
C495   C1045   1.400   1_554 S
C497   H518    1.085   .     S
C498   H510    1.110   .     S
C498   H512    1.111   .     S
C498   H511    1.111   .     S
C499   N522    1.158   .     T
C499   C501    1.451   .     S
C500   N523    1.157   .     T
C500   C1032   1.447   1_554 S
C501   C1032   1.408   1_554 S
C501   C1042   1.431   1_554 S
C502   C503    1.425   .     A
C502   C1041   1.431   .     S
C502   C1044   1.432   .     S
C503   C507    1.410   .     A
C504   C1042   1.432   1_554 S
C504   C1045   1.424   1_554 S
C505   C506    1.390   .     A
C505   C1044   1.424   .     S
C505   C1035   1.400   .     S
C506   C507    1.382   .     A
C506   H515    1.084   .     S
C507   H519    1.080   .     S
H509   N521    1.032   .     S
H513   C367    1.086   1_655 S
N521   C138    1.448   1_565 S
N521   C129    1.433   1_565 S
O524   Zn537   1.962   .     S
O524   Zn540   1.930   .     S
O524   Zn539   1.948   .     S
O524   Zn538   1.930   .     S
O525   Zn538   1.932   .     S
O526   Zn540   1.936   .     S
O527   Zn539   1.923   .     S
O528   Zn537   1.919   .     S
O529   Zn537   1.933   .     S
O530   Zn540   1.945   .     S
O531   Zn538   1.927   .     S
O532   Zn539   1.933   .     S
O533   Zn540   1.927   .     S
O534   Zn537   1.926   .     S
O535   Zn538   1.949   .     S
O536   Zn539   1.936   .     S
C541   O593    1.266   .     A
C541   O591    1.265   .     A
C541   C547    1.436   .     S
C542   C556    1.394   .     A
C542   H577    1.077   .     S
C542   C564    1.412   .     A
C543   H568    1.084   .     S
C543   C555    1.387   .     A
C543   C556    1.398   .     A
C544   O592    1.286   .     A
C544   C546    1.454   .     S
C544   O594    1.284   .     A
C545   C563    1.416   .     A
C545   C554    1.478   .     S
C545   C557    1.399   .     A
C546   C607    1.334   .     S
C546   H640    1.088   .     S
C547   C666    1.334   1_455 S
C547   H693    1.086   1_455 S
C548   C551    1.453   .     S
C548   C729    1.345   .     S
C548   H754    1.088   .     S
C549   C550    1.436   .     S
C549   C908    1.345   1_545 S
C549   N941    1.433   1_545 S
C550   O595    1.268   .     A
C550   O589    1.272   .     A
C551   O596    1.278   .     A
C551   O590    1.266   .     A
C552   C557    1.391   .     A
C552   C20     1.447   1_556 S
C552   C21     1.408   1_556 S
C553   C556    1.455   .     S
C553   O585    1.270   .     A
C553   O587    1.283   .     A
C554   O586    1.284   .     A
C554   O588    1.286   .     A
C555   H576    1.084   .     S
C557   H578    1.085   .     S
C558   H570    1.110   .     S
C558   H572    1.111   .     S
C558   H571    1.111   .     S
C558   N941    1.448   1_545 S
C559   N582    1.158   .     T
C559   C561    1.451   .     S
C560   N583    1.157   .     T
C562   C563    1.425   .     A
C562   C21     1.431   1_556 S
C562   C24     1.432   1_556 S
C563   C567    1.410   .     A
C565   C566    1.390   .     A
C565   C24     1.424   1_556 S
C565   C15     1.400   1_556 S
C566   C567    1.382   .     A
C566   H575    1.084   .     S
C567   H579    1.080   .     S
H569   N581    1.032   .     S
H573   C607    1.086   .     S
H574   C908    1.088   1_545 S
H580   C666    1.088   1_455 S
N581   C738    1.448   .     S
N581   C729    1.433   .     S
O584   Zn597   1.962   .     S
O584   Zn600   1.930   .     S
O584   Zn599   1.948   .     S
O584   Zn598   1.930   .     S
O585   Zn598   1.932   .     S
O586   Zn600   1.936   .     S
O587   Zn599   1.923   .     S
O588   Zn597   1.919   .     S
O589   Zn597   1.933   .     S
O590   Zn600   1.945   .     S
O591   Zn598   1.927   .     S
O592   Zn599   1.933   .     S
O593   Zn600   1.927   .     S
O594   Zn597   1.926   .     S
O595   Zn598   1.949   .     S
O596   Zn599   1.936   .     S
C601   O653    1.266   .     A
C601   O651    1.265   .     A
C601   C607    1.436   .     S
C602   C616    1.394   .     A
C602   H637    1.077   .     S
C602   C624    1.412   .     A
C603   H628    1.084   .     S
C603   C615    1.387   .     A
C603   C616    1.398   .     A
C604   O652    1.286   .     A
C604   C606    1.454   .     S
C604   O654    1.284   .     A
C605   C623    1.416   .     A
C605   C614    1.478   .     S
C605   C617    1.399   .     A
C606   C667    1.334   .     S
C606   H700    1.088   .     S
C608   C611    1.453   .     S
C608   C789    1.345   .     S
C608   H814    1.088   .     S
C609   C610    1.436   .     S
C609   C968    1.345   1_545 S
C609   N1001   1.433   1_545 S
C610   O655    1.268   .     A
C610   O649    1.272   .     A
C611   O656    1.278   .     A
C611   O650    1.266   .     A
C612   C617    1.391   .     A
C612   C80     1.447   1_556 S
C612   C81     1.408   1_556 S
C613   C616    1.455   .     S
C613   O645    1.270   .     A
C613   O647    1.283   .     A
C614   O646    1.284   .     A
C614   O648    1.286   .     A
C615   H636    1.084   .     S
C617   H638    1.085   .     S
C618   H630    1.110   .     S
C618   H632    1.111   .     S
C618   H631    1.111   .     S
C618   N1001   1.448   1_545 S
C619   N642    1.158   .     T
C619   C621    1.451   .     S
C620   N643    1.157   .     T
C622   C623    1.425   .     A
C622   C81     1.431   1_556 S
C622   C84     1.432   1_556 S
C623   C627    1.410   .     A
C625   C626    1.390   .     A
C625   C84     1.424   1_556 S
C625   C75     1.400   1_556 S
C626   C627    1.382   .     A
C626   H635    1.084   .     S
C627   H639    1.080   .     S
H629   N641    1.032   .     S
H633   C667    1.086   .     S
H634   C968    1.088   1_545 S
N641   C798    1.448   .     S
N641   C789    1.433   .     S
O644   Zn657   1.962   .     S
O644   Zn660   1.930   .     S
O644   Zn659   1.948   .     S
O644   Zn658   1.930   .     S
O645   Zn658   1.932   .     S
O646   Zn660   1.936   .     S
O647   Zn659   1.923   .     S
O648   Zn657   1.919   .     S
O649   Zn657   1.933   .     S
O650   Zn660   1.945   .     S
O651   Zn658   1.927   .     S
O652   Zn659   1.933   .     S
O653   Zn660   1.927   .     S
O654   Zn657   1.926   .     S
O655   Zn658   1.949   .     S
O656   Zn659   1.936   .     S
C661   O713    1.266   .     A
C661   O711    1.265   .     A
C661   C667    1.436   .     S
C662   C676    1.394   .     A
C662   H697    1.077   .     S
C662   C684    1.412   .     A
C663   H688    1.084   .     S
C663   C675    1.387   .     A
C663   C676    1.398   .     A
C664   O712    1.286   .     A
C664   C666    1.454   .     S
C664   O714    1.284   .     A
C665   C683    1.416   .     A
C665   C674    1.478   .     S
C665   C677    1.399   .     A
C666   C547    1.334   1_655 S
C666   H580    1.088   1_655 S
C668   C671    1.453   .     S
C668   C849    1.345   .     S
C668   H874    1.088   .     S
C669   C670    1.436   .     S
C669   C1028   1.345   1_545 S
C669   N1061   1.433   1_545 S
C670   O715    1.268   .     A
C670   O709    1.272   .     A
C671   O716    1.278   .     A
C671   O710    1.266   .     A
C672   C677    1.391   .     A
C672   C140    1.447   1_556 S
C672   C141    1.408   1_556 S
C673   C676    1.455   .     S
C673   O705    1.270   .     A
C673   O707    1.283   .     A
C674   O706    1.284   .     A
C674   O708    1.286   .     A
C675   H696    1.084   .     S
C677   H698    1.085   .     S
C678   H690    1.110   .     S
C678   H692    1.111   .     S
C678   H691    1.111   .     S
C678   N1061   1.448   1_545 S
C679   N702    1.158   .     T
C679   C681    1.451   .     S
C680   N703    1.157   .     T
C682   C683    1.425   .     A
C682   C141    1.431   1_556 S
C682   C144    1.432   1_556 S
C683   C687    1.410   .     A
C685   C686    1.390   .     A
C685   C144    1.424   1_556 S
C685   C135    1.400   1_556 S
C686   C687    1.382   .     A
C686   H695    1.084   .     S
C687   H699    1.080   .     S
H689   N701    1.032   .     S
H693   C547    1.086   1_655 S
H694   C1028   1.088   1_545 S
N701   C858    1.448   .     S
N701   C849    1.433   .     S
O704   Zn717   1.962   .     S
O704   Zn720   1.930   .     S
O704   Zn719   1.948   .     S
O704   Zn718   1.930   .     S
O705   Zn718   1.932   .     S
O706   Zn720   1.936   .     S
O707   Zn719   1.923   .     S
O708   Zn717   1.919   .     S
O709   Zn717   1.933   .     S
O710   Zn720   1.945   .     S
O711   Zn718   1.927   .     S
O712   Zn719   1.933   .     S
O713   Zn720   1.927   .     S
O714   Zn717   1.926   .     S
O715   Zn718   1.949   .     S
O716   Zn719   1.936   .     S
C721   O773    1.266   .     A
C721   O771    1.265   .     A
C721   C727    1.436   .     S
C722   C736    1.394   .     A
C722   H757    1.077   .     S
C722   C744    1.412   .     A
C723   H748    1.084   .     S
C723   C735    1.387   .     A
C723   C736    1.398   .     A
C724   O772    1.286   .     A
C724   C726    1.454   .     S
C724   O774    1.284   .     A
C725   C743    1.416   .     A
C725   C734    1.478   .     S
C725   C737    1.399   .     A
C726   C787    1.334   .     S
C726   H820    1.088   .     S
C727   C846    1.334   1_455 S
C727   H873    1.086   1_455 S
C728   C731    1.453   .     S
C728   C909    1.345   .     S
C728   H934    1.088   .     S
C729   C730    1.436   .     S
C730   O775    1.268   .     A
C730   O769    1.272   .     A
C731   O776    1.278   .     A
C731   O770    1.266   .     A
C732   C737    1.391   .     A
C732   C200    1.447   1_556 S
C732   C201    1.408   1_556 S
C733   C736    1.455   .     S
C733   O765    1.270   .     A
C733   O767    1.283   .     A
C734   O766    1.284   .     A
C734   O768    1.286   .     A
C735   H756    1.084   .     S
C737   H758    1.085   .     S
C738   H750    1.110   .     S
C738   H752    1.111   .     S
C738   H751    1.111   .     S
C739   N762    1.158   .     T
C739   C741    1.451   .     S
C740   N763    1.157   .     T
C742   C743    1.425   .     A
C742   C201    1.431   1_556 S
C742   C204    1.432   1_556 S
C743   C747    1.410   .     A
C745   C746    1.390   .     A
C745   C204    1.424   1_556 S
C745   C195    1.400   1_556 S
C746   C747    1.382   .     A
C746   H755    1.084   .     S
C747   H759    1.080   .     S
H749   N761    1.032   .     S
H753   C787    1.086   .     S
H760   C846    1.088   1_455 S
N761   C918    1.448   .     S
N761   C909    1.433   .     S
O764   Zn777   1.962   .     S
O764   Zn780   1.930   .     S
O764   Zn779   1.948   .     S
O764   Zn778   1.930   .     S
O765   Zn778   1.932   .     S
O766   Zn780   1.936   .     S
O767   Zn779   1.923   .     S
O768   Zn777   1.919   .     S
O769   Zn777   1.933   .     S
O770   Zn780   1.945   .     S
O771   Zn778   1.927   .     S
O772   Zn779   1.933   .     S
O773   Zn780   1.927   .     S
O774   Zn777   1.926   .     S
O775   Zn778   1.949   .     S
O776   Zn779   1.936   .     S
C781   O833    1.266   .     A
C781   O831    1.265   .     A
C781   C787    1.436   .     S
C782   C796    1.394   .     A
C782   H817    1.077   .     S
C782   C804    1.412   .     A
C783   H808    1.084   .     S
C783   C795    1.387   .     A
C783   C796    1.398   .     A
C784   O832    1.286   .     A
C784   C786    1.454   .     S
C784   O834    1.284   .     A
C785   C803    1.416   .     A
C785   C794    1.478   .     S
C785   C797    1.399   .     A
C786   C847    1.334   .     S
C786   H880    1.088   .     S
C788   C791    1.453   .     S
C788   C969    1.345   .     S
C788   H994    1.088   .     S
C789   C790    1.436   .     S
C790   O835    1.268   .     A
C790   O829    1.272   .     A
C791   O836    1.278   .     A
C791   O830    1.266   .     A
C792   C797    1.391   .     A
C792   C260    1.447   1_556 S
C792   C261    1.408   1_556 S
C793   C796    1.455   .     S
C793   O825    1.270   .     A
C793   O827    1.283   .     A
C794   O826    1.284   .     A
C794   O828    1.286   .     A
C795   H816    1.084   .     S
C797   H818    1.085   .     S
C798   H810    1.110   .     S
C798   H812    1.111   .     S
C798   H811    1.111   .     S
C799   N822    1.158   .     T
C799   C801    1.451   .     S
C800   N823    1.157   .     T
C802   C803    1.425   .     A
C802   C261    1.431   1_556 S
C802   C264    1.432   1_556 S
C803   C807    1.410   .     A
C805   C806    1.390   .     A
C805   C264    1.424   1_556 S
C805   C255    1.400   1_556 S
C806   C807    1.382   .     A
C806   H815    1.084   .     S
C807   H819    1.080   .     S
H809   N821    1.032   .     S
H813   C847    1.086   .     S
N821   C978    1.448   .     S
N821   C969    1.433   .     S
O824   Zn837   1.962   .     S
O824   Zn840   1.930   .     S
O824   Zn839   1.948   .     S
O824   Zn838   1.930   .     S
O825   Zn838   1.932   .     S
O826   Zn840   1.936   .     S
O827   Zn839   1.923   .     S
O828   Zn837   1.919   .     S
O829   Zn837   1.933   .     S
O830   Zn840   1.945   .     S
O831   Zn838   1.927   .     S
O832   Zn839   1.933   .     S
O833   Zn840   1.927   .     S
O834   Zn837   1.926   .     S
O835   Zn838   1.949   .     S
O836   Zn839   1.936   .     S
C841   O893    1.266   .     A
C841   O891    1.265   .     A
C841   C847    1.436   .     S
C842   C856    1.394   .     A
C842   H877    1.077   .     S
C842   C864    1.412   .     A
C843   H868    1.084   .     S
C843   C855    1.387   .     A
C843   C856    1.398   .     A
C844   O892    1.286   .     A
C844   C846    1.454   .     S
C844   O894    1.284   .     A
C845   C863    1.416   .     A
C845   C854    1.478   .     S
C845   C857    1.399   .     A
C846   C727    1.334   1_655 S
C846   H760    1.088   1_655 S
C848   C851    1.453   .     S
C848   C1029   1.345   .     S
C848   H1054   1.088   .     S
C849   C850    1.436   .     S
C850   O895    1.268   .     A
C850   O889    1.272   .     A
C851   O896    1.278   .     A
C851   O890    1.266   .     A
C852   C857    1.391   .     A
C852   C320    1.447   1_556 S
C852   C321    1.408   1_556 S
C853   C856    1.455   .     S
C853   O885    1.270   .     A
C853   O887    1.283   .     A
C854   O886    1.284   .     A
C854   O888    1.286   .     A
C855   H876    1.084   .     S
C857   H878    1.085   .     S
C858   H870    1.110   .     S
C858   H872    1.111   .     S
C858   H871    1.111   .     S
C859   N882    1.158   .     T
C859   C861    1.451   .     S
C860   N883    1.157   .     T
C862   C863    1.425   .     A
C862   C321    1.431   1_556 S
C862   C324    1.432   1_556 S
C863   C867    1.410   .     A
C865   C866    1.390   .     A
C865   C324    1.424   1_556 S
C865   C315    1.400   1_556 S
C866   C867    1.382   .     A
C866   H875    1.084   .     S
C867   H879    1.080   .     S
H869   N881    1.032   .     S
H873   C727    1.086   1_655 S
N881   C1038   1.448   .     S
N881   C1029   1.433   .     S
O884   Zn897   1.962   .     S
O884   Zn900   1.930   .     S
O884   Zn899   1.948   .     S
O884   Zn898   1.930   .     S
O885   Zn898   1.932   .     S
O886   Zn900   1.936   .     S
O887   Zn899   1.923   .     S
O888   Zn897   1.919   .     S
O889   Zn897   1.933   .     S
O890   Zn900   1.945   .     S
O891   Zn898   1.927   .     S
O892   Zn899   1.933   .     S
O893   Zn900   1.927   .     S
O894   Zn897   1.926   .     S
O895   Zn898   1.949   .     S
O896   Zn899   1.936   .     S
C901   O953    1.266   .     A
C901   O951    1.265   .     A
C901   C907    1.436   .     S
C902   C916    1.394   .     A
C902   H937    1.077   .     S
C902   C924    1.412   .     A
C903   H928    1.084   .     S
C903   C915    1.387   .     A
C903   C916    1.398   .     A
C904   O952    1.286   .     A
C904   C906    1.454   .     S
C904   O954    1.284   .     A
C905   C923    1.416   .     A
C905   C914    1.478   .     S
C905   C917    1.399   .     A
C906   C967    1.334   .     S
C906   H1000   1.088   .     S
C907   C1026   1.334   1_455 S
C907   H1053   1.086   1_455 S
C908   C911    1.453   .     S
C908   C549    1.345   1_565 S
C908   H574    1.088   1_565 S
C909   C910    1.436   .     S
C910   O955    1.268   .     A
C910   O949    1.272   .     A
C911   O956    1.278   .     A
C911   O950    1.266   .     A
C912   C917    1.391   .     A
C912   C380    1.447   1_556 S
C912   C381    1.408   1_556 S
C913   C916    1.455   .     S
C913   O945    1.270   .     A
C913   O947    1.283   .     A
C914   O946    1.284   .     A
C914   O948    1.286   .     A
C915   H936    1.084   .     S
C917   H938    1.085   .     S
C918   H930    1.110   .     S
C918   H932    1.111   .     S
C918   H931    1.111   .     S
C919   N942    1.158   .     T
C919   C921    1.451   .     S
C920   N943    1.157   .     T
C922   C923    1.425   .     A
C922   C381    1.431   1_556 S
C922   C384    1.432   1_556 S
C923   C927    1.410   .     A
C925   C926    1.390   .     A
C925   C384    1.424   1_556 S
C925   C375    1.400   1_556 S
C926   C927    1.382   .     A
C926   H935    1.084   .     S
C927   H939    1.080   .     S
H929   N941    1.032   .     S
H933   C967    1.086   .     S
H940   C1026   1.088   1_455 S
N941   C558    1.448   1_565 S
N941   C549    1.433   1_565 S
O944   Zn957   1.962   .     S
O944   Zn960   1.930   .     S
O944   Zn959   1.948   .     S
O944   Zn958   1.930   .     S
O945   Zn958   1.932   .     S
O946   Zn960   1.936   .     S
O947   Zn959   1.923   .     S
O948   Zn957   1.919   .     S
O949   Zn957   1.933   .     S
O950   Zn960   1.945   .     S
O951   Zn958   1.927   .     S
O952   Zn959   1.933   .     S
O953   Zn960   1.927   .     S
O954   Zn957   1.926   .     S
O955   Zn958   1.949   .     S
O956   Zn959   1.936   .     S
C961   O1013   1.266   .     A
C961   O1011   1.265   .     A
C961   C967    1.436   .     S
C962   C976    1.394   .     A
C962   H997    1.077   .     S
C962   C984    1.412   .     A
C963   H988    1.084   .     S
C963   C975    1.387   .     A
C963   C976    1.398   .     A
C964   O1012   1.286   .     A
C964   C966    1.454   .     S
C964   O1014   1.284   .     A
C965   C983    1.416   .     A
C965   C974    1.478   .     S
C965   C977    1.399   .     A
C966   C1027   1.334   .     S
C966   H1060   1.088   .     S
C968   C971    1.453   .     S
C968   C609    1.345   1_565 S
C968   H634    1.088   1_565 S
C969   C970    1.436   .     S
C970   O1015   1.268   .     A
C970   O1009   1.272   .     A
C971   O1016   1.278   .     A
C971   O1010   1.266   .     A
C972   C977    1.391   .     A
C972   C440    1.447   1_556 S
C972   C441    1.408   1_556 S
C973   C976    1.455   .     S
C973   O1005   1.270   .     A
C973   O1007   1.283   .     A
C974   O1006   1.284   .     A
C974   O1008   1.286   .     A
C975   H996    1.084   .     S
C977   H998    1.085   .     S
C978   H990    1.110   .     S
C978   H992    1.111   .     S
C978   H991    1.111   .     S
C979   N1002   1.158   .     T
C979   C981    1.451   .     S
C980   N1003   1.157   .     T
C982   C983    1.425   .     A
C982   C441    1.431   1_556 S
C982   C444    1.432   1_556 S
C983   C987    1.410   .     A
C985   C986    1.390   .     A
C985   C444    1.424   1_556 S
C985   C435    1.400   1_556 S
C986   C987    1.382   .     A
C986   H995    1.084   .     S
C987   H999    1.080   .     S
H989   N1001   1.032   .     S
H993   C1027   1.086   .     S
N1001  C618    1.448   1_565 S
N1001  C609    1.433   1_565 S
O1004  Zn1017  1.962   .     S
O1004  Zn1020  1.930   .     S
O1004  Zn1019  1.948   .     S
O1004  Zn1018  1.930   .     S
O1005  Zn1018  1.932   .     S
O1006  Zn1020  1.936   .     S
O1007  Zn1019  1.923   .     S
O1008  Zn1017  1.919   .     S
O1009  Zn1017  1.933   .     S
O1010  Zn1020  1.945   .     S
O1011  Zn1018  1.927   .     S
O1012  Zn1019  1.933   .     S
O1013  Zn1020  1.927   .     S
O1014  Zn1017  1.926   .     S
O1015  Zn1018  1.949   .     S
O1016  Zn1019  1.936   .     S
C1021  O1073   1.266   .     A
C1021  O1071   1.265   .     A
C1021  C1027   1.436   .     S
C1022  C1036   1.394   .     A
C1022  H1057   1.077   .     S
C1022  C1044   1.412   .     A
C1023  H1048   1.084   .     S
C1023  C1035   1.387   .     A
C1023  C1036   1.398   .     A
C1024  O1072   1.286   .     A
C1024  C1026   1.454   .     S
C1024  O1074   1.284   .     A
C1025  C1043   1.416   .     A
C1025  C1034   1.478   .     S
C1025  C1037   1.399   .     A
C1026  C907    1.334   1_655 S
C1026  H940    1.088   1_655 S
C1028  C1031   1.453   .     S
C1028  C669    1.345   1_565 S
C1028  H694    1.088   1_565 S
C1029  C1030   1.436   .     S
C1030  O1075   1.268   .     A
C1030  O1069   1.272   .     A
C1031  O1076   1.278   .     A
C1031  O1070   1.266   .     A
C1032  C1037   1.391   .     A
C1032  C500    1.447   1_556 S
C1032  C501    1.408   1_556 S
C1033  C1036   1.455   .     S
C1033  O1065   1.270   .     A
C1033  O1067   1.283   .     A
C1034  O1066   1.284   .     A
C1034  O1068   1.286   .     A
C1035  H1056   1.084   .     S
C1037  H1058   1.085   .     S
C1038  H1050   1.110   .     S
C1038  H1052   1.111   .     S
C1038  H1051   1.111   .     S
C1039  N1062   1.158   .     T
C1039  C1041   1.451   .     S
C1040  N1063   1.157   .     T
C1042  C1043   1.425   .     A
C1042  C501    1.431   1_556 S
C1042  C504    1.432   1_556 S
C1043  C1047   1.410   .     A
C1045  C1046   1.390   .     A
C1045  C504    1.424   1_556 S
C1045  C495    1.400   1_556 S
C1046  C1047   1.382   .     A
C1046  H1055   1.084   .     S
C1047  H1059   1.080   .     S
H1049  N1061   1.032   .     S
H1053  C907    1.086   1_655 S
N1061  C678    1.448   1_565 S
N1061  C669    1.433   1_565 S
O1064  Zn1077  1.962   .     S
O1064  Zn1080  1.930   .     S
O1064  Zn1079  1.948   .     S
O1064  Zn1078  1.930   .     S
O1065  Zn1078  1.932   .     S
O1066  Zn1080  1.936   .     S
O1067  Zn1079  1.923   .     S
O1068  Zn1077  1.919   .     S
O1069  Zn1077  1.933   .     S
O1070  Zn1080  1.945   .     S
O1071  Zn1078  1.927   .     S
O1072  Zn1079  1.933   .     S
O1073  Zn1080  1.927   .     S
O1074  Zn1077  1.926   .     S
O1075  Zn1078  1.949   .     S
O1076  Zn1079  1.936   .     S
