data_str_m1_o10_o16_pcu_sym.44
_audit_creation_date              2020-01-03
_audit_creation_method            'Materials Studio'
_symmetry_space_group_name_H-M    'P1'
_symmetry_Int_Tables_number       1
_symmetry_cell_setting            triclinic
loop_
_symmetry_equiv_pos_as_xyz
  x,y,z
_cell_length_a                    32.7149
_cell_length_b                    32.5503
_cell_length_c                    31.0251
_cell_angle_alpha                 96.4144
_cell_angle_beta                  74.9452
_cell_angle_gamma                 98.1979
loop_
_atom_site_label
_atom_site_type_symbol
_atom_site_fract_x
_atom_site_fract_y
_atom_site_fract_z
_atom_site_U_iso_or_equiv
_atom_site_adp_type
_atom_site_occupancy
Zn1    Zn    0.19338   0.13994   0.28734   0.00000  Uiso   1.00
Zn2    Zn    0.13379   0.12458   0.21875   0.00000  Uiso   1.00
Zn3    Zn    0.21056   0.19775   0.20657   0.00000  Uiso   1.00
Zn4    Zn    0.12893   0.20439   0.28733   0.00000  Uiso   1.00
O5     O     0.16667   0.16667   0.25000   0.00000  Uiso   1.00
O6     O     0.07071   0.18878   0.28213   0.00000  Uiso   1.00
O7     O     0.25491   0.15226   0.27013   0.00000  Uiso   1.00
O8     O     0.13760   0.06944   0.23413   0.00000  Uiso   1.00
O9     O     0.20345   0.25620   0.21360   0.00000  Uiso   1.00
O10    O     0.15451   0.12637   0.15458   0.00000  Uiso   1.00
O11    O     0.12940   0.20391   0.34968   0.00000  Uiso   1.00
O12    O     0.20824   0.17759   0.14606   0.00000  Uiso   1.00
O13    O     0.17451   0.15880   0.34968   0.00000  Uiso   1.00
O14    O     0.17930   0.08019   0.28213   0.00000  Uiso   1.00
O15    O     0.14632   0.26085   0.27013   0.00000  Uiso   1.00
O16    O     0.07412   0.13291   0.23413   0.00000  Uiso   1.00
O17    O     0.26693   0.19272   0.21360   0.00000  Uiso   1.00
C18    C     0.05308   0.15927   0.26027   0.00000  Uiso   1.00
C19    C     0.28067   0.17398   0.24069   0.00000  Uiso   1.00
C20    C     0.15671   0.05608   0.25992   0.00000  Uiso   1.00
C21    C     0.17636   0.27783   0.24046   0.00000  Uiso   1.00
C22    C     0.18530   0.14808   0.12961   0.00000  Uiso   1.00
C23    C     0.14779   0.18375   0.37121   0.00000  Uiso   1.00
C24    C     0.22362   0.10312   0.01202   0.00000  Uiso   1.00
H25    H     0.23635   0.09595   0.07543   0.00000  Uiso   1.00
H26    H     0.20421   0.07985   0.43240   0.00000  Uiso   1.00
C27    C     0.19254   0.14087   0.08165   0.00000  Uiso   1.00
C28    C     0.12712   0.23054   0.43924   0.00000  Uiso   1.00
C29    C     0.13345   0.24843   0.48035   0.00000  Uiso   1.00
C30    C     0.15440   0.22729   0.00469   0.00000  Uiso   1.00
C31    C     0.16333   0.18517   0.48908   0.00000  Uiso   1.00
C32    C     0.15792   0.16887   0.44609   0.00000  Uiso   1.00
C33    C     0.17958   0.15889   0.01315   0.00000  Uiso   1.00
C34    C     0.20035   0.12417   0.49044   0.00000  Uiso   1.00
C35    C     0.19359   0.10892   0.44880   0.00000  Uiso   1.00
C36    C     0.16894   0.12866   0.42956   0.00000  Uiso   1.00
C37    C     0.17237   0.16342   0.05970   0.00000  Uiso   1.00
C38    C     0.21956   0.11215   0.05794   0.00000  Uiso   1.00
C39    C     0.14247   0.19317   0.42010   0.00000  Uiso   1.00
H40    H     0.14992   0.18333   0.07961   0.00000  Uiso   1.00
H41    H     0.11333   0.24815   0.42005   0.00000  Uiso   1.00
H42    H     0.15918   0.11176   0.40125   0.00000  Uiso   1.00
C43    C     0.32610   0.17888   0.24010   0.00000  Uiso   1.00
C44    C     0.00801   0.15478   0.26452   0.00000  Uiso   1.00
C45    C     0.17823   0.32210   0.23653   0.00000  Uiso   1.00
H46    H     0.20091   0.00220   0.20787   0.00000  Uiso   1.00
C47    C     0.15192   0.01267   0.26606   0.00000  Uiso   1.00
C48    C     0.31457   0.11986   0.29273   0.00000  Uiso   1.00
C49    C     0.00618   0.09437   0.31390   0.00000  Uiso   1.00
C50    C     0.30957   0.06154   0.34209   0.00000  Uiso   1.00
H51    H     0.28553   0.07651   0.36907   0.00000  Uiso   1.00
H52    H     0.29293   0.03906   0.32078   0.00000  Uiso   1.00
H53    H     0.32823   0.04426   0.35763   0.00000  Uiso   1.00
H54    H     0.02956   0.07817   0.28729   0.00000  Uiso   1.00
H55    H     0.02356   0.11539   0.33574   0.00000  Uiso   1.00
H56    H     0.29094   0.13411   0.32088   0.00000  Uiso   1.00
H57    H     0.29789   0.09762   0.27119   0.00000  Uiso   1.00
N58    N     0.12477   0.33234   0.30760   0.00000  Uiso   1.00
O59    O     0.08592   0.00856   0.32022   0.00000  Uiso   1.00
O60    O     0.14162   0.32050   0.33715   0.00000  Uiso   1.00
C61    C     0.25417   0.07267   0.48697   0.00000  Uiso   1.00
C62    C     0.23267   0.02770   0.48878   0.00000  Uiso   1.00
C63    C     0.26279   0.33097   0.46052   0.00000  Uiso   1.00
H64    H     0.27284   0.00570   0.42514   0.00000  Uiso   1.00
H65    H     0.29144   0.33225   0.47376   0.00000  Uiso   1.00
H66    H     0.24638   0.29869   0.46132   0.00000  Uiso   1.00
H67    H     0.22321   0.01936   0.02408   0.00000  Uiso   1.00
H68    H     0.20355   0.02447   0.47603   0.00000  Uiso   1.00
H69    H     0.26731   0.08048   0.45172   0.00000  Uiso   1.00
H70    H     0.28205   0.07579   0.00187   0.00000  Uiso   1.00
C71    C     0.17455   0.25264   0.04017   0.00000  Uiso   1.00
C72    C     0.14223   0.26367   0.08462   0.00000  Uiso   1.00
C73    C     0.16394   0.27297   0.12321   0.00000  Uiso   1.00
H74    H     0.17664   0.24483   0.12908   0.00000  Uiso   1.00
H75    H     0.19045   0.29859   0.11566   0.00000  Uiso   1.00
H76    H     0.14057   0.28269   0.15419   0.00000  Uiso   1.00
H77    H     0.12776   0.29184   0.08235   0.00000  Uiso   1.00
H78    H     0.11563   0.23828   0.09282   0.00000  Uiso   1.00
H79    H     0.20042   0.23722   0.04616   0.00000  Uiso   1.00
H80    H     0.19228   0.28181   0.02654   0.00000  Uiso   1.00
C81    C     0.12005   0.29176   0.49443   0.00000  Uiso   1.00
C82    C     0.07298   0.28915   0.02000   0.00000  Uiso   1.00
C83    C     0.05967   0.33236   0.03650   0.00000  Uiso   1.00
H84    H     0.07838   0.01465   0.06019   0.00000  Uiso   1.00
H85    H     0.06483   0.01840   0.00782   0.00000  Uiso   1.00
H86    H     0.02531   0.32954   0.05412   0.00000  Uiso   1.00
H87    H     0.05281   0.27363   0.49764   0.00000  Uiso   1.00
H88    H     0.06721   0.27032   0.04922   0.00000  Uiso   1.00
H89    H     0.14027   0.31119   0.01418   0.00000  Uiso   1.00
H90    H     0.12460   0.30909   0.46424   0.00000  Uiso   1.00
C91    C     0.02121   0.21375   0.21364   0.00000  Uiso   1.00
C92    C     0.01743   0.25561   0.24172   0.00000  Uiso   1.00
C93    C     0.04996   0.29009   0.21928   0.00000  Uiso   1.00
H94    H     0.08265   0.28368   0.21816   0.00000  Uiso   1.00
H95    H     0.04712   0.29242   0.18475   0.00000  Uiso   1.00
H96    H     0.04441   0.32034   0.23893   0.00000  Uiso   1.00
H97    H     0.31817   0.26443   0.24659   0.00000  Uiso   1.00
H98    H     0.02269   0.25284   0.27523   0.00000  Uiso   1.00
H99    H     0.05510   0.20783   0.20276   0.00000  Uiso   1.00
H100   H     0.01164   0.21555   0.18210   0.00000  Uiso   1.00
Zn101  Zn    0.52672   0.13994   0.28734   0.00000  Uiso   1.00
Zn102  Zn    0.46713   0.12458   0.21875   0.00000  Uiso   1.00
Zn103  Zn    0.54389   0.19775   0.20657   0.00000  Uiso   1.00
Zn104  Zn    0.46226   0.20439   0.28733   0.00000  Uiso   1.00
O105   O     0.50000   0.16667   0.25000   0.00000  Uiso   1.00
O106   O     0.40405   0.18878   0.28213   0.00000  Uiso   1.00
O107   O     0.58824   0.15226   0.27013   0.00000  Uiso   1.00
O108   O     0.47093   0.06944   0.23413   0.00000  Uiso   1.00
O109   O     0.53678   0.25620   0.21360   0.00000  Uiso   1.00
O110   O     0.48784   0.12637   0.15458   0.00000  Uiso   1.00
O111   O     0.46274   0.20391   0.34968   0.00000  Uiso   1.00
O112   O     0.54157   0.17759   0.14606   0.00000  Uiso   1.00
O113   O     0.50785   0.15880   0.34968   0.00000  Uiso   1.00
O114   O     0.51264   0.08019   0.28213   0.00000  Uiso   1.00
O115   O     0.47965   0.26085   0.27013   0.00000  Uiso   1.00
O116   O     0.40745   0.13291   0.23413   0.00000  Uiso   1.00
O117   O     0.60026   0.19272   0.21360   0.00000  Uiso   1.00
C118   C     0.38642   0.15927   0.26027   0.00000  Uiso   1.00
C119   C     0.61400   0.17398   0.24069   0.00000  Uiso   1.00
C120   C     0.49004   0.05608   0.25992   0.00000  Uiso   1.00
C121   C     0.50970   0.27783   0.24046   0.00000  Uiso   1.00
C122   C     0.51864   0.14808   0.12961   0.00000  Uiso   1.00
C123   C     0.48112   0.18375   0.37121   0.00000  Uiso   1.00
C124   C     0.55695   0.10312   0.01202   0.00000  Uiso   1.00
H125   H     0.56969   0.09595   0.07543   0.00000  Uiso   1.00
H126   H     0.53754   0.07985   0.43240   0.00000  Uiso   1.00
C127   C     0.52588   0.14087   0.08165   0.00000  Uiso   1.00
C128   C     0.46046   0.23054   0.43924   0.00000  Uiso   1.00
C129   C     0.46679   0.24843   0.48035   0.00000  Uiso   1.00
C130   C     0.48773   0.22729   0.00469   0.00000  Uiso   1.00
C131   C     0.49667   0.18517   0.48908   0.00000  Uiso   1.00
C132   C     0.49125   0.16887   0.44609   0.00000  Uiso   1.00
C133   C     0.51291   0.15889   0.01315   0.00000  Uiso   1.00
C134   C     0.53369   0.12417   0.49044   0.00000  Uiso   1.00
C135   C     0.52693   0.10892   0.44880   0.00000  Uiso   1.00
C136   C     0.50227   0.12866   0.42956   0.00000  Uiso   1.00
C137   C     0.50570   0.16342   0.05970   0.00000  Uiso   1.00
C138   C     0.55289   0.11215   0.05794   0.00000  Uiso   1.00
C139   C     0.47581   0.19317   0.42010   0.00000  Uiso   1.00
H140   H     0.48326   0.18333   0.07961   0.00000  Uiso   1.00
H141   H     0.44667   0.24815   0.42005   0.00000  Uiso   1.00
H142   H     0.49251   0.11176   0.40125   0.00000  Uiso   1.00
C143   C     0.65944   0.17888   0.24010   0.00000  Uiso   1.00
C144   C     0.34135   0.15478   0.26452   0.00000  Uiso   1.00
C145   C     0.51157   0.32210   0.23653   0.00000  Uiso   1.00
H146   H     0.53425   0.00220   0.20787   0.00000  Uiso   1.00
C147   C     0.48525   0.01267   0.26606   0.00000  Uiso   1.00
C148   C     0.64791   0.11986   0.29273   0.00000  Uiso   1.00
C149   C     0.33951   0.09437   0.31390   0.00000  Uiso   1.00
C150   C     0.64291   0.06154   0.34209   0.00000  Uiso   1.00
H151   H     0.61886   0.07651   0.36907   0.00000  Uiso   1.00
H152   H     0.62626   0.03906   0.32078   0.00000  Uiso   1.00
H153   H     0.66156   0.04426   0.35763   0.00000  Uiso   1.00
H154   H     0.36290   0.07817   0.28729   0.00000  Uiso   1.00
H155   H     0.35689   0.11539   0.33574   0.00000  Uiso   1.00
H156   H     0.62427   0.13411   0.32088   0.00000  Uiso   1.00
H157   H     0.63122   0.09762   0.27119   0.00000  Uiso   1.00
N158   N     0.45810   0.33234   0.30760   0.00000  Uiso   1.00
O159   O     0.41925   0.00856   0.32022   0.00000  Uiso   1.00
O160   O     0.47495   0.32050   0.33715   0.00000  Uiso   1.00
C161   C     0.58750   0.07267   0.48697   0.00000  Uiso   1.00
C162   C     0.56601   0.02770   0.48878   0.00000  Uiso   1.00
C163   C     0.59613   0.33097   0.46052   0.00000  Uiso   1.00
H164   H     0.60617   0.00570   0.42514   0.00000  Uiso   1.00
H165   H     0.62478   0.33225   0.47376   0.00000  Uiso   1.00
H166   H     0.57971   0.29869   0.46132   0.00000  Uiso   1.00
H167   H     0.55654   0.01936   0.02408   0.00000  Uiso   1.00
H168   H     0.53688   0.02447   0.47603   0.00000  Uiso   1.00
H169   H     0.60065   0.08048   0.45172   0.00000  Uiso   1.00
H170   H     0.61538   0.07579   0.00187   0.00000  Uiso   1.00
C171   C     0.50788   0.25264   0.04017   0.00000  Uiso   1.00
C172   C     0.47557   0.26367   0.08462   0.00000  Uiso   1.00
C173   C     0.49727   0.27297   0.12321   0.00000  Uiso   1.00
H174   H     0.50997   0.24483   0.12908   0.00000  Uiso   1.00
H175   H     0.52379   0.29859   0.11566   0.00000  Uiso   1.00
H176   H     0.47390   0.28269   0.15419   0.00000  Uiso   1.00
H177   H     0.46110   0.29184   0.08235   0.00000  Uiso   1.00
H178   H     0.44896   0.23828   0.09282   0.00000  Uiso   1.00
H179   H     0.53375   0.23722   0.04616   0.00000  Uiso   1.00
H180   H     0.52561   0.28181   0.02654   0.00000  Uiso   1.00
C181   C     0.45338   0.29176   0.49443   0.00000  Uiso   1.00
C182   C     0.40632   0.28915   0.02000   0.00000  Uiso   1.00
C183   C     0.39300   0.33236   0.03650   0.00000  Uiso   1.00
H184   H     0.41171   0.01465   0.06019   0.00000  Uiso   1.00
H185   H     0.39817   0.01840   0.00782   0.00000  Uiso   1.00
H186   H     0.35864   0.32954   0.05412   0.00000  Uiso   1.00
H187   H     0.38614   0.27363   0.49764   0.00000  Uiso   1.00
H188   H     0.40054   0.27032   0.04922   0.00000  Uiso   1.00
H189   H     0.47361   0.31119   0.01418   0.00000  Uiso   1.00
H190   H     0.45793   0.30909   0.46424   0.00000  Uiso   1.00
C191   C     0.35454   0.21375   0.21364   0.00000  Uiso   1.00
C192   C     0.35076   0.25561   0.24172   0.00000  Uiso   1.00
C193   C     0.38330   0.29009   0.21928   0.00000  Uiso   1.00
H194   H     0.41599   0.28368   0.21816   0.00000  Uiso   1.00
H195   H     0.38045   0.29242   0.18475   0.00000  Uiso   1.00
H196   H     0.37774   0.32034   0.23893   0.00000  Uiso   1.00
H197   H     0.65150   0.26443   0.24659   0.00000  Uiso   1.00
H198   H     0.35602   0.25284   0.27523   0.00000  Uiso   1.00
H199   H     0.38844   0.20783   0.20276   0.00000  Uiso   1.00
H200   H     0.34497   0.21555   0.18210   0.00000  Uiso   1.00
Zn201  Zn    0.86005   0.13994   0.28734   0.00000  Uiso   1.00
Zn202  Zn    0.80046   0.12458   0.21875   0.00000  Uiso   1.00
Zn203  Zn    0.87723   0.19775   0.20657   0.00000  Uiso   1.00
Zn204  Zn    0.79560   0.20439   0.28733   0.00000  Uiso   1.00
O205   O     0.83333   0.16667   0.25000   0.00000  Uiso   1.00
O206   O     0.73738   0.18878   0.28213   0.00000  Uiso   1.00
O207   O     0.92158   0.15226   0.27013   0.00000  Uiso   1.00
O208   O     0.80426   0.06944   0.23413   0.00000  Uiso   1.00
O209   O     0.87012   0.25620   0.21360   0.00000  Uiso   1.00
O210   O     0.82118   0.12637   0.15458   0.00000  Uiso   1.00
O211   O     0.79607   0.20391   0.34968   0.00000  Uiso   1.00
O212   O     0.87491   0.17759   0.14606   0.00000  Uiso   1.00
O213   O     0.84118   0.15880   0.34968   0.00000  Uiso   1.00
O214   O     0.84597   0.08019   0.28213   0.00000  Uiso   1.00
O215   O     0.81298   0.26085   0.27013   0.00000  Uiso   1.00
O216   O     0.74078   0.13291   0.23413   0.00000  Uiso   1.00
O217   O     0.93360   0.19272   0.21360   0.00000  Uiso   1.00
C218   C     0.71975   0.15927   0.26027   0.00000  Uiso   1.00
C219   C     0.94733   0.17398   0.24069   0.00000  Uiso   1.00
C220   C     0.82338   0.05608   0.25992   0.00000  Uiso   1.00
C221   C     0.84303   0.27783   0.24046   0.00000  Uiso   1.00
C222   C     0.85197   0.14808   0.12961   0.00000  Uiso   1.00
C223   C     0.81446   0.18375   0.37121   0.00000  Uiso   1.00
C224   C     0.89028   0.10312   0.01202   0.00000  Uiso   1.00
H225   H     0.90302   0.09595   0.07543   0.00000  Uiso   1.00
H226   H     0.87087   0.07985   0.43240   0.00000  Uiso   1.00
C227   C     0.85921   0.14087   0.08165   0.00000  Uiso   1.00
C228   C     0.79379   0.23054   0.43924   0.00000  Uiso   1.00
C229   C     0.80012   0.24843   0.48035   0.00000  Uiso   1.00
C230   C     0.82106   0.22729   0.00469   0.00000  Uiso   1.00
C231   C     0.83000   0.18517   0.48908   0.00000  Uiso   1.00
C232   C     0.82458   0.16887   0.44609   0.00000  Uiso   1.00
C233   C     0.84624   0.15889   0.01315   0.00000  Uiso   1.00
C234   C     0.86702   0.12417   0.49044   0.00000  Uiso   1.00
C235   C     0.86026   0.10892   0.44880   0.00000  Uiso   1.00
C236   C     0.83560   0.12866   0.42956   0.00000  Uiso   1.00
C237   C     0.83904   0.16342   0.05970   0.00000  Uiso   1.00
C238   C     0.88622   0.11215   0.05794   0.00000  Uiso   1.00
C239   C     0.80914   0.19317   0.42010   0.00000  Uiso   1.00
H240   H     0.81659   0.18333   0.07961   0.00000  Uiso   1.00
H241   H     0.78000   0.24815   0.42005   0.00000  Uiso   1.00
H242   H     0.82584   0.11176   0.40125   0.00000  Uiso   1.00
C243   C     0.99277   0.17888   0.24010   0.00000  Uiso   1.00
C244   C     0.67468   0.15478   0.26452   0.00000  Uiso   1.00
C245   C     0.84490   0.32210   0.23653   0.00000  Uiso   1.00
H246   H     0.86758   0.00220   0.20787   0.00000  Uiso   1.00
C247   C     0.81858   0.01267   0.26606   0.00000  Uiso   1.00
C248   C     0.98124   0.11986   0.29273   0.00000  Uiso   1.00
C249   C     0.67284   0.09437   0.31390   0.00000  Uiso   1.00
C250   C     0.97624   0.06154   0.34209   0.00000  Uiso   1.00
H251   H     0.95220   0.07651   0.36907   0.00000  Uiso   1.00
H252   H     0.95960   0.03906   0.32078   0.00000  Uiso   1.00
H253   H     0.99490   0.04426   0.35763   0.00000  Uiso   1.00
H254   H     0.69623   0.07817   0.28729   0.00000  Uiso   1.00
H255   H     0.69023   0.11539   0.33574   0.00000  Uiso   1.00
H256   H     0.95761   0.13411   0.32088   0.00000  Uiso   1.00
H257   H     0.96455   0.09762   0.27119   0.00000  Uiso   1.00
N258   N     0.79144   0.33234   0.30760   0.00000  Uiso   1.00
O259   O     0.75259   0.00856   0.32022   0.00000  Uiso   1.00
O260   O     0.80829   0.32050   0.33715   0.00000  Uiso   1.00
C261   C     0.92083   0.07267   0.48697   0.00000  Uiso   1.00
C262   C     0.89934   0.02770   0.48878   0.00000  Uiso   1.00
C263   C     0.92946   0.33097   0.46052   0.00000  Uiso   1.00
H264   H     0.93950   0.00570   0.42514   0.00000  Uiso   1.00
H265   H     0.95811   0.33225   0.47376   0.00000  Uiso   1.00
H266   H     0.91305   0.29869   0.46132   0.00000  Uiso   1.00
H267   H     0.88987   0.01936   0.02408   0.00000  Uiso   1.00
H268   H     0.87022   0.02447   0.47603   0.00000  Uiso   1.00
H269   H     0.93398   0.08048   0.45172   0.00000  Uiso   1.00
H270   H     0.94871   0.07579   0.00187   0.00000  Uiso   1.00
C271   C     0.84121   0.25264   0.04017   0.00000  Uiso   1.00
C272   C     0.80890   0.26367   0.08462   0.00000  Uiso   1.00
C273   C     0.83061   0.27297   0.12321   0.00000  Uiso   1.00
H274   H     0.84331   0.24483   0.12908   0.00000  Uiso   1.00
H275   H     0.85712   0.29859   0.11566   0.00000  Uiso   1.00
H276   H     0.80724   0.28269   0.15419   0.00000  Uiso   1.00
H277   H     0.79443   0.29184   0.08235   0.00000  Uiso   1.00
H278   H     0.78229   0.23828   0.09282   0.00000  Uiso   1.00
H279   H     0.86709   0.23722   0.04616   0.00000  Uiso   1.00
H280   H     0.85894   0.28181   0.02654   0.00000  Uiso   1.00
C281   C     0.78672   0.29176   0.49443   0.00000  Uiso   1.00
C282   C     0.73965   0.28915   0.02000   0.00000  Uiso   1.00
C283   C     0.72633   0.33236   0.03650   0.00000  Uiso   1.00
H284   H     0.74505   0.01465   0.06019   0.00000  Uiso   1.00
H285   H     0.73150   0.01840   0.00782   0.00000  Uiso   1.00
H286   H     0.69197   0.32954   0.05412   0.00000  Uiso   1.00
H287   H     0.71948   0.27363   0.49764   0.00000  Uiso   1.00
H288   H     0.73388   0.27032   0.04922   0.00000  Uiso   1.00
H289   H     0.80694   0.31119   0.01418   0.00000  Uiso   1.00
H290   H     0.79127   0.30909   0.46424   0.00000  Uiso   1.00
C291   C     0.68787   0.21375   0.21364   0.00000  Uiso   1.00
C292   C     0.68409   0.25561   0.24172   0.00000  Uiso   1.00
C293   C     0.71663   0.29009   0.21928   0.00000  Uiso   1.00
H294   H     0.74932   0.28368   0.21816   0.00000  Uiso   1.00
H295   H     0.71378   0.29242   0.18475   0.00000  Uiso   1.00
H296   H     0.71108   0.32034   0.23893   0.00000  Uiso   1.00
H297   H     0.98483   0.26443   0.24659   0.00000  Uiso   1.00
H298   H     0.68936   0.25284   0.27523   0.00000  Uiso   1.00
H299   H     0.72177   0.20783   0.20276   0.00000  Uiso   1.00
H300   H     0.67831   0.21555   0.18210   0.00000  Uiso   1.00
Zn301  Zn    0.19338   0.47327   0.28734   0.00000  Uiso   1.00
Zn302  Zn    0.13379   0.45791   0.21875   0.00000  Uiso   1.00
Zn303  Zn    0.21056   0.53109   0.20657   0.00000  Uiso   1.00
Zn304  Zn    0.12893   0.53773   0.28733   0.00000  Uiso   1.00
O305   O     0.16667   0.50000   0.25000   0.00000  Uiso   1.00
O306   O     0.07071   0.52211   0.28213   0.00000  Uiso   1.00
O307   O     0.25491   0.48559   0.27013   0.00000  Uiso   1.00
O308   O     0.13760   0.40277   0.23413   0.00000  Uiso   1.00
O309   O     0.20345   0.58953   0.21360   0.00000  Uiso   1.00
O310   O     0.15451   0.45970   0.15458   0.00000  Uiso   1.00
O311   O     0.12940   0.53724   0.34968   0.00000  Uiso   1.00
O312   O     0.20824   0.51092   0.14606   0.00000  Uiso   1.00
O313   O     0.17451   0.49213   0.34968   0.00000  Uiso   1.00
O314   O     0.17930   0.41352   0.28213   0.00000  Uiso   1.00
O315   O     0.14632   0.59418   0.27013   0.00000  Uiso   1.00
O316   O     0.07412   0.46625   0.23413   0.00000  Uiso   1.00
O317   O     0.26693   0.52605   0.21360   0.00000  Uiso   1.00
C318   C     0.05308   0.49261   0.26027   0.00000  Uiso   1.00
C319   C     0.28067   0.50732   0.24069   0.00000  Uiso   1.00
C320   C     0.15671   0.38941   0.25992   0.00000  Uiso   1.00
C321   C     0.17636   0.61116   0.24046   0.00000  Uiso   1.00
C322   C     0.18530   0.48141   0.12961   0.00000  Uiso   1.00
C323   C     0.14779   0.51708   0.37121   0.00000  Uiso   1.00
C324   C     0.22362   0.43645   0.01202   0.00000  Uiso   1.00
H325   H     0.23635   0.42929   0.07543   0.00000  Uiso   1.00
H326   H     0.20421   0.41318   0.43240   0.00000  Uiso   1.00
C327   C     0.19254   0.47420   0.08165   0.00000  Uiso   1.00
C328   C     0.12712   0.56388   0.43924   0.00000  Uiso   1.00
C329   C     0.13345   0.58176   0.48035   0.00000  Uiso   1.00
C330   C     0.15440   0.56063   0.00469   0.00000  Uiso   1.00
C331   C     0.16333   0.51851   0.48908   0.00000  Uiso   1.00
C332   C     0.15792   0.50220   0.44609   0.00000  Uiso   1.00
C333   C     0.17958   0.49222   0.01315   0.00000  Uiso   1.00
C334   C     0.20035   0.45750   0.49044   0.00000  Uiso   1.00
C335   C     0.19359   0.44225   0.44880   0.00000  Uiso   1.00
C336   C     0.16894   0.46199   0.42956   0.00000  Uiso   1.00
C337   C     0.17237   0.49675   0.05970   0.00000  Uiso   1.00
C338   C     0.21956   0.44548   0.05794   0.00000  Uiso   1.00
C339   C     0.14247   0.52650   0.42010   0.00000  Uiso   1.00
H340   H     0.14992   0.51667   0.07961   0.00000  Uiso   1.00
H341   H     0.11333   0.58149   0.42005   0.00000  Uiso   1.00
H342   H     0.15918   0.44510   0.40125   0.00000  Uiso   1.00
C343   C     0.32610   0.51222   0.24010   0.00000  Uiso   1.00
C344   C     0.00801   0.48811   0.26452   0.00000  Uiso   1.00
C345   C     0.17823   0.65543   0.23653   0.00000  Uiso   1.00
H346   H     0.20091   0.33553   0.20787   0.00000  Uiso   1.00
C347   C     0.15192   0.34600   0.26606   0.00000  Uiso   1.00
C348   C     0.31457   0.45320   0.29273   0.00000  Uiso   1.00
C349   C     0.00618   0.42771   0.31390   0.00000  Uiso   1.00
C350   C     0.30957   0.39488   0.34209   0.00000  Uiso   1.00
H351   H     0.28553   0.40985   0.36907   0.00000  Uiso   1.00
H352   H     0.29293   0.37240   0.32078   0.00000  Uiso   1.00
H353   H     0.32823   0.37759   0.35763   0.00000  Uiso   1.00
H354   H     0.02956   0.41150   0.28729   0.00000  Uiso   1.00
H355   H     0.02356   0.44872   0.33574   0.00000  Uiso   1.00
H356   H     0.29094   0.46744   0.32088   0.00000  Uiso   1.00
H357   H     0.29789   0.43095   0.27119   0.00000  Uiso   1.00
N358   N     0.12477   0.66567   0.30760   0.00000  Uiso   1.00
O359   O     0.08592   0.34189   0.32022   0.00000  Uiso   1.00
O360   O     0.14162   0.65383   0.33715   0.00000  Uiso   1.00
C361   C     0.25417   0.40600   0.48697   0.00000  Uiso   1.00
C362   C     0.23267   0.36104   0.48878   0.00000  Uiso   1.00
C363   C     0.26279   0.66430   0.46052   0.00000  Uiso   1.00
H364   H     0.27284   0.33903   0.42514   0.00000  Uiso   1.00
H365   H     0.29144   0.66558   0.47376   0.00000  Uiso   1.00
H366   H     0.24638   0.63202   0.46132   0.00000  Uiso   1.00
H367   H     0.22321   0.35270   0.02408   0.00000  Uiso   1.00
H368   H     0.20355   0.35781   0.47603   0.00000  Uiso   1.00
H369   H     0.26731   0.41382   0.45172   0.00000  Uiso   1.00
H370   H     0.28205   0.40912   0.00187   0.00000  Uiso   1.00
C371   C     0.17455   0.58598   0.04017   0.00000  Uiso   1.00
C372   C     0.14223   0.59701   0.08462   0.00000  Uiso   1.00
C373   C     0.16394   0.60630   0.12321   0.00000  Uiso   1.00
H374   H     0.17664   0.57816   0.12908   0.00000  Uiso   1.00
H375   H     0.19045   0.63192   0.11566   0.00000  Uiso   1.00
H376   H     0.14057   0.61602   0.15419   0.00000  Uiso   1.00
H377   H     0.12776   0.62517   0.08235   0.00000  Uiso   1.00
H378   H     0.11563   0.57162   0.09282   0.00000  Uiso   1.00
H379   H     0.20042   0.57056   0.04616   0.00000  Uiso   1.00
H380   H     0.19228   0.61514   0.02654   0.00000  Uiso   1.00
C381   C     0.12005   0.62509   0.49443   0.00000  Uiso   1.00
C382   C     0.07298   0.62248   0.02000   0.00000  Uiso   1.00
C383   C     0.05967   0.66570   0.03650   0.00000  Uiso   1.00
H384   H     0.07838   0.34798   0.06019   0.00000  Uiso   1.00
H385   H     0.06483   0.35173   0.00782   0.00000  Uiso   1.00
H386   H     0.02531   0.66287   0.05412   0.00000  Uiso   1.00
H387   H     0.05281   0.60696   0.49764   0.00000  Uiso   1.00
H388   H     0.06721   0.60366   0.04922   0.00000  Uiso   1.00
H389   H     0.14027   0.64452   0.01418   0.00000  Uiso   1.00
H390   H     0.12460   0.64242   0.46424   0.00000  Uiso   1.00
C391   C     0.02121   0.54709   0.21364   0.00000  Uiso   1.00
C392   C     0.01743   0.58894   0.24172   0.00000  Uiso   1.00
C393   C     0.04996   0.62342   0.21928   0.00000  Uiso   1.00
H394   H     0.08265   0.61701   0.21816   0.00000  Uiso   1.00
H395   H     0.04712   0.62576   0.18475   0.00000  Uiso   1.00
H396   H     0.04441   0.65368   0.23893   0.00000  Uiso   1.00
H397   H     0.31817   0.59777   0.24659   0.00000  Uiso   1.00
H398   H     0.02269   0.58617   0.27523   0.00000  Uiso   1.00
H399   H     0.05510   0.54116   0.20276   0.00000  Uiso   1.00
H400   H     0.01164   0.54888   0.18210   0.00000  Uiso   1.00
Zn401  Zn    0.52672   0.47327   0.28734   0.00000  Uiso   1.00
Zn402  Zn    0.46713   0.45791   0.21875   0.00000  Uiso   1.00
Zn403  Zn    0.54389   0.53109   0.20657   0.00000  Uiso   1.00
Zn404  Zn    0.46226   0.53773   0.28733   0.00000  Uiso   1.00
O405   O     0.50000   0.50000   0.25000   0.00000  Uiso   1.00
O406   O     0.40405   0.52211   0.28213   0.00000  Uiso   1.00
O407   O     0.58824   0.48559   0.27013   0.00000  Uiso   1.00
O408   O     0.47093   0.40277   0.23413   0.00000  Uiso   1.00
O409   O     0.53678   0.58953   0.21360   0.00000  Uiso   1.00
O410   O     0.48784   0.45970   0.15458   0.00000  Uiso   1.00
O411   O     0.46274   0.53724   0.34968   0.00000  Uiso   1.00
O412   O     0.54157   0.51092   0.14606   0.00000  Uiso   1.00
O413   O     0.50785   0.49213   0.34968   0.00000  Uiso   1.00
O414   O     0.51264   0.41352   0.28213   0.00000  Uiso   1.00
O415   O     0.47965   0.59418   0.27013   0.00000  Uiso   1.00
O416   O     0.40745   0.46625   0.23413   0.00000  Uiso   1.00
O417   O     0.60026   0.52605   0.21360   0.00000  Uiso   1.00
C418   C     0.38642   0.49261   0.26027   0.00000  Uiso   1.00
C419   C     0.61400   0.50732   0.24069   0.00000  Uiso   1.00
C420   C     0.49004   0.38941   0.25992   0.00000  Uiso   1.00
C421   C     0.50970   0.61116   0.24046   0.00000  Uiso   1.00
C422   C     0.51864   0.48141   0.12961   0.00000  Uiso   1.00
C423   C     0.48112   0.51708   0.37121   0.00000  Uiso   1.00
C424   C     0.55695   0.43645   0.01202   0.00000  Uiso   1.00
H425   H     0.56969   0.42929   0.07543   0.00000  Uiso   1.00
H426   H     0.53754   0.41318   0.43240   0.00000  Uiso   1.00
C427   C     0.52588   0.47420   0.08165   0.00000  Uiso   1.00
C428   C     0.46046   0.56388   0.43924   0.00000  Uiso   1.00
C429   C     0.46679   0.58176   0.48035   0.00000  Uiso   1.00
C430   C     0.48773   0.56063   0.00469   0.00000  Uiso   1.00
C431   C     0.49667   0.51851   0.48908   0.00000  Uiso   1.00
C432   C     0.49125   0.50220   0.44609   0.00000  Uiso   1.00
C433   C     0.51291   0.49222   0.01315   0.00000  Uiso   1.00
C434   C     0.53369   0.45750   0.49044   0.00000  Uiso   1.00
C435   C     0.52693   0.44225   0.44880   0.00000  Uiso   1.00
C436   C     0.50227   0.46199   0.42956   0.00000  Uiso   1.00
C437   C     0.50570   0.49675   0.05970   0.00000  Uiso   1.00
C438   C     0.55289   0.44548   0.05794   0.00000  Uiso   1.00
C439   C     0.47581   0.52650   0.42010   0.00000  Uiso   1.00
H440   H     0.48326   0.51667   0.07961   0.00000  Uiso   1.00
H441   H     0.44667   0.58149   0.42005   0.00000  Uiso   1.00
H442   H     0.49251   0.44510   0.40125   0.00000  Uiso   1.00
C443   C     0.65944   0.51222   0.24010   0.00000  Uiso   1.00
C444   C     0.34135   0.48811   0.26452   0.00000  Uiso   1.00
C445   C     0.51157   0.65543   0.23653   0.00000  Uiso   1.00
H446   H     0.53425   0.33553   0.20787   0.00000  Uiso   1.00
C447   C     0.48525   0.34600   0.26606   0.00000  Uiso   1.00
C448   C     0.64791   0.45320   0.29273   0.00000  Uiso   1.00
C449   C     0.33951   0.42771   0.31390   0.00000  Uiso   1.00
C450   C     0.64291   0.39488   0.34209   0.00000  Uiso   1.00
H451   H     0.61886   0.40985   0.36907   0.00000  Uiso   1.00
H452   H     0.62626   0.37240   0.32078   0.00000  Uiso   1.00
H453   H     0.66156   0.37759   0.35763   0.00000  Uiso   1.00
H454   H     0.36290   0.41150   0.28729   0.00000  Uiso   1.00
H455   H     0.35689   0.44872   0.33574   0.00000  Uiso   1.00
H456   H     0.62427   0.46744   0.32088   0.00000  Uiso   1.00
H457   H     0.63122   0.43095   0.27119   0.00000  Uiso   1.00
N458   N     0.45810   0.66567   0.30760   0.00000  Uiso   1.00
O459   O     0.41925   0.34189   0.32022   0.00000  Uiso   1.00
O460   O     0.47495   0.65383   0.33715   0.00000  Uiso   1.00
C461   C     0.58750   0.40600   0.48697   0.00000  Uiso   1.00
C462   C     0.56601   0.36104   0.48878   0.00000  Uiso   1.00
C463   C     0.59613   0.66430   0.46052   0.00000  Uiso   1.00
H464   H     0.60617   0.33903   0.42514   0.00000  Uiso   1.00
H465   H     0.62478   0.66558   0.47376   0.00000  Uiso   1.00
H466   H     0.57971   0.63202   0.46132   0.00000  Uiso   1.00
H467   H     0.55654   0.35270   0.02408   0.00000  Uiso   1.00
H468   H     0.53688   0.35781   0.47603   0.00000  Uiso   1.00
H469   H     0.60065   0.41382   0.45172   0.00000  Uiso   1.00
H470   H     0.61538   0.40912   0.00187   0.00000  Uiso   1.00
C471   C     0.50788   0.58598   0.04017   0.00000  Uiso   1.00
C472   C     0.47557   0.59701   0.08462   0.00000  Uiso   1.00
C473   C     0.49727   0.60630   0.12321   0.00000  Uiso   1.00
H474   H     0.50997   0.57816   0.12908   0.00000  Uiso   1.00
H475   H     0.52379   0.63192   0.11566   0.00000  Uiso   1.00
H476   H     0.47390   0.61602   0.15419   0.00000  Uiso   1.00
H477   H     0.46110   0.62517   0.08235   0.00000  Uiso   1.00
H478   H     0.44896   0.57162   0.09282   0.00000  Uiso   1.00
H479   H     0.53375   0.57056   0.04616   0.00000  Uiso   1.00
H480   H     0.52561   0.61514   0.02654   0.00000  Uiso   1.00
C481   C     0.45338   0.62509   0.49443   0.00000  Uiso   1.00
C482   C     0.40632   0.62248   0.02000   0.00000  Uiso   1.00
C483   C     0.39300   0.66570   0.03650   0.00000  Uiso   1.00
H484   H     0.41171   0.34798   0.06019   0.00000  Uiso   1.00
H485   H     0.39817   0.35173   0.00782   0.00000  Uiso   1.00
H486   H     0.35864   0.66287   0.05412   0.00000  Uiso   1.00
H487   H     0.38614   0.60696   0.49764   0.00000  Uiso   1.00
H488   H     0.40054   0.60366   0.04922   0.00000  Uiso   1.00
H489   H     0.47361   0.64452   0.01418   0.00000  Uiso   1.00
H490   H     0.45793   0.64242   0.46424   0.00000  Uiso   1.00
C491   C     0.35454   0.54709   0.21364   0.00000  Uiso   1.00
C492   C     0.35076   0.58894   0.24172   0.00000  Uiso   1.00
C493   C     0.38330   0.62342   0.21928   0.00000  Uiso   1.00
H494   H     0.41599   0.61701   0.21816   0.00000  Uiso   1.00
H495   H     0.38045   0.62576   0.18475   0.00000  Uiso   1.00
H496   H     0.37774   0.65368   0.23893   0.00000  Uiso   1.00
H497   H     0.65150   0.59777   0.24659   0.00000  Uiso   1.00
H498   H     0.35602   0.58617   0.27523   0.00000  Uiso   1.00
H499   H     0.38844   0.54116   0.20276   0.00000  Uiso   1.00
H500   H     0.34497   0.54888   0.18210   0.00000  Uiso   1.00
Zn501  Zn    0.86005   0.47327   0.28734   0.00000  Uiso   1.00
Zn502  Zn    0.80046   0.45791   0.21875   0.00000  Uiso   1.00
Zn503  Zn    0.87723   0.53109   0.20657   0.00000  Uiso   1.00
Zn504  Zn    0.79560   0.53773   0.28733   0.00000  Uiso   1.00
O505   O     0.83333   0.50000   0.25000   0.00000  Uiso   1.00
O506   O     0.73738   0.52211   0.28213   0.00000  Uiso   1.00
O507   O     0.92158   0.48559   0.27013   0.00000  Uiso   1.00
O508   O     0.80426   0.40277   0.23413   0.00000  Uiso   1.00
O509   O     0.87012   0.58953   0.21360   0.00000  Uiso   1.00
O510   O     0.82118   0.45970   0.15458   0.00000  Uiso   1.00
O511   O     0.79607   0.53724   0.34968   0.00000  Uiso   1.00
O512   O     0.87491   0.51092   0.14606   0.00000  Uiso   1.00
O513   O     0.84118   0.49213   0.34968   0.00000  Uiso   1.00
O514   O     0.84597   0.41352   0.28213   0.00000  Uiso   1.00
O515   O     0.81298   0.59418   0.27013   0.00000  Uiso   1.00
O516   O     0.74078   0.46625   0.23413   0.00000  Uiso   1.00
O517   O     0.93360   0.52605   0.21360   0.00000  Uiso   1.00
C518   C     0.71975   0.49261   0.26027   0.00000  Uiso   1.00
C519   C     0.94733   0.50732   0.24069   0.00000  Uiso   1.00
C520   C     0.82338   0.38941   0.25992   0.00000  Uiso   1.00
C521   C     0.84303   0.61116   0.24046   0.00000  Uiso   1.00
C522   C     0.85197   0.48141   0.12961   0.00000  Uiso   1.00
C523   C     0.81446   0.51708   0.37121   0.00000  Uiso   1.00
C524   C     0.89028   0.43645   0.01202   0.00000  Uiso   1.00
H525   H     0.90302   0.42929   0.07543   0.00000  Uiso   1.00
H526   H     0.87087   0.41318   0.43240   0.00000  Uiso   1.00
C527   C     0.85921   0.47420   0.08165   0.00000  Uiso   1.00
C528   C     0.79379   0.56388   0.43924   0.00000  Uiso   1.00
C529   C     0.80012   0.58176   0.48035   0.00000  Uiso   1.00
C530   C     0.82106   0.56063   0.00469   0.00000  Uiso   1.00
C531   C     0.83000   0.51851   0.48908   0.00000  Uiso   1.00
C532   C     0.82458   0.50220   0.44609   0.00000  Uiso   1.00
C533   C     0.84624   0.49222   0.01315   0.00000  Uiso   1.00
C534   C     0.86702   0.45750   0.49044   0.00000  Uiso   1.00
C535   C     0.86026   0.44225   0.44880   0.00000  Uiso   1.00
C536   C     0.83560   0.46199   0.42956   0.00000  Uiso   1.00
C537   C     0.83904   0.49675   0.05970   0.00000  Uiso   1.00
C538   C     0.88622   0.44548   0.05794   0.00000  Uiso   1.00
C539   C     0.80914   0.52650   0.42010   0.00000  Uiso   1.00
H540   H     0.81659   0.51667   0.07961   0.00000  Uiso   1.00
H541   H     0.78000   0.58149   0.42005   0.00000  Uiso   1.00
H542   H     0.82584   0.44510   0.40125   0.00000  Uiso   1.00
C543   C     0.99277   0.51222   0.24010   0.00000  Uiso   1.00
C544   C     0.67468   0.48811   0.26452   0.00000  Uiso   1.00
C545   C     0.84490   0.65543   0.23653   0.00000  Uiso   1.00
H546   H     0.86758   0.33553   0.20787   0.00000  Uiso   1.00
C547   C     0.81858   0.34600   0.26606   0.00000  Uiso   1.00
C548   C     0.98124   0.45320   0.29273   0.00000  Uiso   1.00
C549   C     0.67284   0.42771   0.31390   0.00000  Uiso   1.00
C550   C     0.97624   0.39488   0.34209   0.00000  Uiso   1.00
H551   H     0.95220   0.40985   0.36907   0.00000  Uiso   1.00
H552   H     0.95960   0.37240   0.32078   0.00000  Uiso   1.00
H553   H     0.99490   0.37759   0.35763   0.00000  Uiso   1.00
H554   H     0.69623   0.41150   0.28729   0.00000  Uiso   1.00
H555   H     0.69023   0.44872   0.33574   0.00000  Uiso   1.00
H556   H     0.95761   0.46744   0.32088   0.00000  Uiso   1.00
H557   H     0.96455   0.43095   0.27119   0.00000  Uiso   1.00
N558   N     0.79144   0.66567   0.30760   0.00000  Uiso   1.00
O559   O     0.75259   0.34189   0.32022   0.00000  Uiso   1.00
O560   O     0.80829   0.65383   0.33715   0.00000  Uiso   1.00
C561   C     0.92083   0.40600   0.48697   0.00000  Uiso   1.00
C562   C     0.89934   0.36104   0.48878   0.00000  Uiso   1.00
C563   C     0.92946   0.66430   0.46052   0.00000  Uiso   1.00
H564   H     0.93950   0.33903   0.42514   0.00000  Uiso   1.00
H565   H     0.95811   0.66558   0.47376   0.00000  Uiso   1.00
H566   H     0.91305   0.63202   0.46132   0.00000  Uiso   1.00
H567   H     0.88987   0.35270   0.02408   0.00000  Uiso   1.00
H568   H     0.87022   0.35781   0.47603   0.00000  Uiso   1.00
H569   H     0.93398   0.41382   0.45172   0.00000  Uiso   1.00
H570   H     0.94871   0.40912   0.00187   0.00000  Uiso   1.00
C571   C     0.84121   0.58598   0.04017   0.00000  Uiso   1.00
C572   C     0.80890   0.59701   0.08462   0.00000  Uiso   1.00
C573   C     0.83061   0.60630   0.12321   0.00000  Uiso   1.00
H574   H     0.84331   0.57816   0.12908   0.00000  Uiso   1.00
H575   H     0.85712   0.63192   0.11566   0.00000  Uiso   1.00
H576   H     0.80724   0.61602   0.15419   0.00000  Uiso   1.00
H577   H     0.79443   0.62517   0.08235   0.00000  Uiso   1.00
H578   H     0.78229   0.57162   0.09282   0.00000  Uiso   1.00
H579   H     0.86709   0.57056   0.04616   0.00000  Uiso   1.00
H580   H     0.85894   0.61514   0.02654   0.00000  Uiso   1.00
C581   C     0.78672   0.62509   0.49443   0.00000  Uiso   1.00
C582   C     0.73965   0.62248   0.02000   0.00000  Uiso   1.00
C583   C     0.72633   0.66570   0.03650   0.00000  Uiso   1.00
H584   H     0.74505   0.34798   0.06019   0.00000  Uiso   1.00
H585   H     0.73150   0.35173   0.00782   0.00000  Uiso   1.00
H586   H     0.69197   0.66287   0.05412   0.00000  Uiso   1.00
H587   H     0.71948   0.60696   0.49764   0.00000  Uiso   1.00
H588   H     0.73388   0.60366   0.04922   0.00000  Uiso   1.00
H589   H     0.80694   0.64452   0.01418   0.00000  Uiso   1.00
H590   H     0.79127   0.64242   0.46424   0.00000  Uiso   1.00
C591   C     0.68787   0.54709   0.21364   0.00000  Uiso   1.00
C592   C     0.68409   0.58894   0.24172   0.00000  Uiso   1.00
C593   C     0.71663   0.62342   0.21928   0.00000  Uiso   1.00
H594   H     0.74932   0.61701   0.21816   0.00000  Uiso   1.00
H595   H     0.71378   0.62576   0.18475   0.00000  Uiso   1.00
H596   H     0.71108   0.65368   0.23893   0.00000  Uiso   1.00
H597   H     0.98483   0.59777   0.24659   0.00000  Uiso   1.00
H598   H     0.68936   0.58617   0.27523   0.00000  Uiso   1.00
H599   H     0.72177   0.54116   0.20276   0.00000  Uiso   1.00
H600   H     0.67831   0.54888   0.18210   0.00000  Uiso   1.00
Zn601  Zn    0.19338   0.80661   0.28734   0.00000  Uiso   1.00
Zn602  Zn    0.13379   0.79124   0.21875   0.00000  Uiso   1.00
Zn603  Zn    0.21056   0.86442   0.20657   0.00000  Uiso   1.00
Zn604  Zn    0.12893   0.87106   0.28733   0.00000  Uiso   1.00
O605   O     0.16667   0.83333   0.25000   0.00000  Uiso   1.00
O606   O     0.07071   0.85544   0.28213   0.00000  Uiso   1.00
O607   O     0.25491   0.81892   0.27013   0.00000  Uiso   1.00
O608   O     0.13760   0.73610   0.23413   0.00000  Uiso   1.00
O609   O     0.20345   0.92286   0.21360   0.00000  Uiso   1.00
O610   O     0.15451   0.79304   0.15458   0.00000  Uiso   1.00
O611   O     0.12940   0.87058   0.34968   0.00000  Uiso   1.00
O612   O     0.20824   0.84425   0.14606   0.00000  Uiso   1.00
O613   O     0.17451   0.82546   0.34968   0.00000  Uiso   1.00
O614   O     0.17930   0.74686   0.28213   0.00000  Uiso   1.00
O615   O     0.14632   0.92751   0.27013   0.00000  Uiso   1.00
O616   O     0.07412   0.79958   0.23413   0.00000  Uiso   1.00
O617   O     0.26693   0.85939   0.21360   0.00000  Uiso   1.00
C618   C     0.05308   0.82594   0.26027   0.00000  Uiso   1.00
C619   C     0.28067   0.84065   0.24069   0.00000  Uiso   1.00
C620   C     0.15671   0.72275   0.25992   0.00000  Uiso   1.00
C621   C     0.17636   0.94450   0.24046   0.00000  Uiso   1.00
C622   C     0.18530   0.81474   0.12961   0.00000  Uiso   1.00
C623   C     0.14779   0.85041   0.37121   0.00000  Uiso   1.00
C624   C     0.22362   0.76979   0.01202   0.00000  Uiso   1.00
H625   H     0.23635   0.76262   0.07543   0.00000  Uiso   1.00
H626   H     0.20421   0.74651   0.43240   0.00000  Uiso   1.00
C627   C     0.19254   0.80753   0.08165   0.00000  Uiso   1.00
C628   C     0.12712   0.89721   0.43924   0.00000  Uiso   1.00
C629   C     0.13345   0.91510   0.48035   0.00000  Uiso   1.00
C630   C     0.15440   0.89396   0.00469   0.00000  Uiso   1.00
C631   C     0.16333   0.85184   0.48908   0.00000  Uiso   1.00
C632   C     0.15792   0.83554   0.44609   0.00000  Uiso   1.00
C633   C     0.17958   0.82555   0.01315   0.00000  Uiso   1.00
C634   C     0.20035   0.79084   0.49044   0.00000  Uiso   1.00
C635   C     0.19359   0.77558   0.44880   0.00000  Uiso   1.00
C636   C     0.16894   0.79533   0.42956   0.00000  Uiso   1.00
C637   C     0.17237   0.83008   0.05970   0.00000  Uiso   1.00
C638   C     0.21956   0.77882   0.05794   0.00000  Uiso   1.00
C639   C     0.14247   0.85984   0.42010   0.00000  Uiso   1.00
H640   H     0.14992   0.85000   0.07961   0.00000  Uiso   1.00
H641   H     0.11333   0.91482   0.42005   0.00000  Uiso   1.00
H642   H     0.15918   0.77843   0.40125   0.00000  Uiso   1.00
C643   C     0.32610   0.84555   0.24010   0.00000  Uiso   1.00
C644   C     0.00801   0.82145   0.26452   0.00000  Uiso   1.00
C645   C     0.17823   0.98876   0.23653   0.00000  Uiso   1.00
H646   H     0.20091   0.66886   0.20787   0.00000  Uiso   1.00
C647   C     0.15192   0.67934   0.26606   0.00000  Uiso   1.00
C648   C     0.31457   0.78653   0.29273   0.00000  Uiso   1.00
C649   C     0.00618   0.76104   0.31390   0.00000  Uiso   1.00
C650   C     0.30957   0.72821   0.34209   0.00000  Uiso   1.00
H651   H     0.28553   0.74318   0.36907   0.00000  Uiso   1.00
H652   H     0.29293   0.70573   0.32078   0.00000  Uiso   1.00
H653   H     0.32823   0.71092   0.35763   0.00000  Uiso   1.00
H654   H     0.02956   0.74483   0.28729   0.00000  Uiso   1.00
H655   H     0.02356   0.78206   0.33574   0.00000  Uiso   1.00
H656   H     0.29094   0.80077   0.32088   0.00000  Uiso   1.00
H657   H     0.29789   0.76428   0.27119   0.00000  Uiso   1.00
N658   N     0.12477   0.99900   0.30760   0.00000  Uiso   1.00
O659   O     0.08592   0.67522   0.32022   0.00000  Uiso   1.00
O660   O     0.14162   0.98716   0.33715   0.00000  Uiso   1.00
C661   C     0.25417   0.73933   0.48697   0.00000  Uiso   1.00
C662   C     0.23267   0.69437   0.48878   0.00000  Uiso   1.00
C663   C     0.26279   0.99764   0.46052   0.00000  Uiso   1.00
H664   H     0.27284   0.67236   0.42514   0.00000  Uiso   1.00
H665   H     0.29144   0.99892   0.47376   0.00000  Uiso   1.00
H666   H     0.24638   0.96535   0.46132   0.00000  Uiso   1.00
H667   H     0.22321   0.68603   0.02408   0.00000  Uiso   1.00
H668   H     0.20355   0.69114   0.47603   0.00000  Uiso   1.00
H669   H     0.26731   0.74715   0.45172   0.00000  Uiso   1.00
H670   H     0.28205   0.74245   0.00187   0.00000  Uiso   1.00
C671   C     0.17455   0.91931   0.04017   0.00000  Uiso   1.00
C672   C     0.14223   0.93034   0.08462   0.00000  Uiso   1.00
C673   C     0.16394   0.93963   0.12321   0.00000  Uiso   1.00
H674   H     0.17664   0.91149   0.12908   0.00000  Uiso   1.00
H675   H     0.19045   0.96525   0.11566   0.00000  Uiso   1.00
H676   H     0.14057   0.94935   0.15419   0.00000  Uiso   1.00
H677   H     0.12776   0.95851   0.08235   0.00000  Uiso   1.00
H678   H     0.11563   0.90495   0.09282   0.00000  Uiso   1.00
H679   H     0.20042   0.90389   0.04616   0.00000  Uiso   1.00
H680   H     0.19228   0.94848   0.02654   0.00000  Uiso   1.00
C681   C     0.12005   0.95842   0.49443   0.00000  Uiso   1.00
C682   C     0.07298   0.95582   0.02000   0.00000  Uiso   1.00
C683   C     0.05967   0.99903   0.03650   0.00000  Uiso   1.00
H684   H     0.07838   0.68132   0.06019   0.00000  Uiso   1.00
H685   H     0.06483   0.68507   0.00782   0.00000  Uiso   1.00
H686   H     0.02531   0.99620   0.05412   0.00000  Uiso   1.00
H687   H     0.05281   0.94030   0.49764   0.00000  Uiso   1.00
H688   H     0.06721   0.93699   0.04922   0.00000  Uiso   1.00
H689   H     0.14027   0.97785   0.01418   0.00000  Uiso   1.00
H690   H     0.12460   0.97576   0.46424   0.00000  Uiso   1.00
C691   C     0.02121   0.88042   0.21364   0.00000  Uiso   1.00
C692   C     0.01743   0.92228   0.24172   0.00000  Uiso   1.00
C693   C     0.04996   0.95676   0.21928   0.00000  Uiso   1.00
H694   H     0.08265   0.95034   0.21816   0.00000  Uiso   1.00
H695   H     0.04712   0.95909   0.18475   0.00000  Uiso   1.00
H696   H     0.04441   0.98701   0.23893   0.00000  Uiso   1.00
H697   H     0.31817   0.93110   0.24659   0.00000  Uiso   1.00
H698   H     0.02269   0.91951   0.27523   0.00000  Uiso   1.00
H699   H     0.05510   0.87449   0.20276   0.00000  Uiso   1.00
H700   H     0.01164   0.88222   0.18210   0.00000  Uiso   1.00
Zn701  Zn    0.52672   0.80661   0.28734   0.00000  Uiso   1.00
Zn702  Zn    0.46713   0.79124   0.21875   0.00000  Uiso   1.00
Zn703  Zn    0.54389   0.86442   0.20657   0.00000  Uiso   1.00
Zn704  Zn    0.46226   0.87106   0.28733   0.00000  Uiso   1.00
O705   O     0.50000   0.83333   0.25000   0.00000  Uiso   1.00
O706   O     0.40405   0.85544   0.28213   0.00000  Uiso   1.00
O707   O     0.58824   0.81892   0.27013   0.00000  Uiso   1.00
O708   O     0.47093   0.73610   0.23413   0.00000  Uiso   1.00
O709   O     0.53678   0.92286   0.21360   0.00000  Uiso   1.00
O710   O     0.48784   0.79304   0.15458   0.00000  Uiso   1.00
O711   O     0.46274   0.87058   0.34968   0.00000  Uiso   1.00
O712   O     0.54157   0.84425   0.14606   0.00000  Uiso   1.00
O713   O     0.50785   0.82546   0.34968   0.00000  Uiso   1.00
O714   O     0.51264   0.74686   0.28213   0.00000  Uiso   1.00
O715   O     0.47965   0.92751   0.27013   0.00000  Uiso   1.00
O716   O     0.40745   0.79958   0.23413   0.00000  Uiso   1.00
O717   O     0.60026   0.85939   0.21360   0.00000  Uiso   1.00
C718   C     0.38642   0.82594   0.26027   0.00000  Uiso   1.00
C719   C     0.61400   0.84065   0.24069   0.00000  Uiso   1.00
C720   C     0.49004   0.72275   0.25992   0.00000  Uiso   1.00
C721   C     0.50970   0.94450   0.24046   0.00000  Uiso   1.00
C722   C     0.51864   0.81474   0.12961   0.00000  Uiso   1.00
C723   C     0.48112   0.85041   0.37121   0.00000  Uiso   1.00
C724   C     0.55695   0.76979   0.01202   0.00000  Uiso   1.00
H725   H     0.56969   0.76262   0.07543   0.00000  Uiso   1.00
H726   H     0.53754   0.74651   0.43240   0.00000  Uiso   1.00
C727   C     0.52588   0.80753   0.08165   0.00000  Uiso   1.00
C728   C     0.46046   0.89721   0.43924   0.00000  Uiso   1.00
C729   C     0.46679   0.91510   0.48035   0.00000  Uiso   1.00
C730   C     0.48773   0.89396   0.00469   0.00000  Uiso   1.00
C731   C     0.49667   0.85184   0.48908   0.00000  Uiso   1.00
C732   C     0.49125   0.83554   0.44609   0.00000  Uiso   1.00
C733   C     0.51291   0.82555   0.01315   0.00000  Uiso   1.00
C734   C     0.53369   0.79084   0.49044   0.00000  Uiso   1.00
C735   C     0.52693   0.77558   0.44880   0.00000  Uiso   1.00
C736   C     0.50227   0.79533   0.42956   0.00000  Uiso   1.00
C737   C     0.50570   0.83008   0.05970   0.00000  Uiso   1.00
C738   C     0.55289   0.77882   0.05794   0.00000  Uiso   1.00
C739   C     0.47581   0.85984   0.42010   0.00000  Uiso   1.00
H740   H     0.48326   0.85000   0.07961   0.00000  Uiso   1.00
H741   H     0.44667   0.91482   0.42005   0.00000  Uiso   1.00
H742   H     0.49251   0.77843   0.40125   0.00000  Uiso   1.00
C743   C     0.65944   0.84555   0.24010   0.00000  Uiso   1.00
C744   C     0.34135   0.82145   0.26452   0.00000  Uiso   1.00
C745   C     0.51157   0.98876   0.23653   0.00000  Uiso   1.00
H746   H     0.53425   0.66886   0.20787   0.00000  Uiso   1.00
C747   C     0.48525   0.67934   0.26606   0.00000  Uiso   1.00
C748   C     0.64791   0.78653   0.29273   0.00000  Uiso   1.00
C749   C     0.33951   0.76104   0.31390   0.00000  Uiso   1.00
C750   C     0.64291   0.72821   0.34209   0.00000  Uiso   1.00
H751   H     0.61886   0.74318   0.36907   0.00000  Uiso   1.00
H752   H     0.62626   0.70573   0.32078   0.00000  Uiso   1.00
H753   H     0.66156   0.71092   0.35763   0.00000  Uiso   1.00
H754   H     0.36290   0.74483   0.28729   0.00000  Uiso   1.00
H755   H     0.35689   0.78206   0.33574   0.00000  Uiso   1.00
H756   H     0.62427   0.80077   0.32088   0.00000  Uiso   1.00
H757   H     0.63122   0.76428   0.27119   0.00000  Uiso   1.00
N758   N     0.45810   0.99900   0.30760   0.00000  Uiso   1.00
O759   O     0.41925   0.67522   0.32022   0.00000  Uiso   1.00
O760   O     0.47495   0.98716   0.33715   0.00000  Uiso   1.00
C761   C     0.58750   0.73933   0.48697   0.00000  Uiso   1.00
C762   C     0.56601   0.69437   0.48878   0.00000  Uiso   1.00
C763   C     0.59613   0.99764   0.46052   0.00000  Uiso   1.00
H764   H     0.60617   0.67236   0.42514   0.00000  Uiso   1.00
H765   H     0.62478   0.99892   0.47376   0.00000  Uiso   1.00
H766   H     0.57971   0.96535   0.46132   0.00000  Uiso   1.00
H767   H     0.55654   0.68603   0.02408   0.00000  Uiso   1.00
H768   H     0.53688   0.69114   0.47603   0.00000  Uiso   1.00
H769   H     0.60065   0.74715   0.45172   0.00000  Uiso   1.00
H770   H     0.61538   0.74245   0.00187   0.00000  Uiso   1.00
C771   C     0.50788   0.91931   0.04017   0.00000  Uiso   1.00
C772   C     0.47557   0.93034   0.08462   0.00000  Uiso   1.00
C773   C     0.49727   0.93963   0.12321   0.00000  Uiso   1.00
H774   H     0.50997   0.91149   0.12908   0.00000  Uiso   1.00
H775   H     0.52379   0.96525   0.11566   0.00000  Uiso   1.00
H776   H     0.47390   0.94935   0.15419   0.00000  Uiso   1.00
H777   H     0.46110   0.95851   0.08235   0.00000  Uiso   1.00
H778   H     0.44896   0.90495   0.09282   0.00000  Uiso   1.00
H779   H     0.53375   0.90389   0.04616   0.00000  Uiso   1.00
H780   H     0.52561   0.94848   0.02654   0.00000  Uiso   1.00
C781   C     0.45338   0.95842   0.49443   0.00000  Uiso   1.00
C782   C     0.40632   0.95582   0.02000   0.00000  Uiso   1.00
C783   C     0.39300   0.99903   0.03650   0.00000  Uiso   1.00
H784   H     0.41171   0.68132   0.06019   0.00000  Uiso   1.00
H785   H     0.39817   0.68507   0.00782   0.00000  Uiso   1.00
H786   H     0.35864   0.99620   0.05412   0.00000  Uiso   1.00
H787   H     0.38614   0.94030   0.49764   0.00000  Uiso   1.00
H788   H     0.40054   0.93699   0.04922   0.00000  Uiso   1.00
H789   H     0.47361   0.97785   0.01418   0.00000  Uiso   1.00
H790   H     0.45793   0.97576   0.46424   0.00000  Uiso   1.00
C791   C     0.35454   0.88042   0.21364   0.00000  Uiso   1.00
C792   C     0.35076   0.92228   0.24172   0.00000  Uiso   1.00
C793   C     0.38330   0.95676   0.21928   0.00000  Uiso   1.00
H794   H     0.41599   0.95034   0.21816   0.00000  Uiso   1.00
H795   H     0.38045   0.95909   0.18475   0.00000  Uiso   1.00
H796   H     0.37774   0.98701   0.23893   0.00000  Uiso   1.00
H797   H     0.65150   0.93110   0.24659   0.00000  Uiso   1.00
H798   H     0.35602   0.91951   0.27523   0.00000  Uiso   1.00
H799   H     0.38844   0.87449   0.20276   0.00000  Uiso   1.00
H800   H     0.34497   0.88222   0.18210   0.00000  Uiso   1.00
Zn801  Zn    0.86005   0.80661   0.28734   0.00000  Uiso   1.00
Zn802  Zn    0.80046   0.79124   0.21875   0.00000  Uiso   1.00
Zn803  Zn    0.87723   0.86442   0.20657   0.00000  Uiso   1.00
Zn804  Zn    0.79560   0.87106   0.28733   0.00000  Uiso   1.00
O805   O     0.83333   0.83333   0.25000   0.00000  Uiso   1.00
O806   O     0.73738   0.85544   0.28213   0.00000  Uiso   1.00
O807   O     0.92158   0.81892   0.27013   0.00000  Uiso   1.00
O808   O     0.80426   0.73610   0.23413   0.00000  Uiso   1.00
O809   O     0.87012   0.92286   0.21360   0.00000  Uiso   1.00
O810   O     0.82118   0.79304   0.15458   0.00000  Uiso   1.00
O811   O     0.79607   0.87058   0.34968   0.00000  Uiso   1.00
O812   O     0.87491   0.84425   0.14606   0.00000  Uiso   1.00
O813   O     0.84118   0.82546   0.34968   0.00000  Uiso   1.00
O814   O     0.84597   0.74686   0.28213   0.00000  Uiso   1.00
O815   O     0.81298   0.92751   0.27013   0.00000  Uiso   1.00
O816   O     0.74078   0.79958   0.23413   0.00000  Uiso   1.00
O817   O     0.93360   0.85939   0.21360   0.00000  Uiso   1.00
C818   C     0.71975   0.82594   0.26027   0.00000  Uiso   1.00
C819   C     0.94733   0.84065   0.24069   0.00000  Uiso   1.00
C820   C     0.82338   0.72275   0.25992   0.00000  Uiso   1.00
C821   C     0.84303   0.94450   0.24046   0.00000  Uiso   1.00
C822   C     0.85197   0.81474   0.12961   0.00000  Uiso   1.00
C823   C     0.81446   0.85041   0.37121   0.00000  Uiso   1.00
C824   C     0.89028   0.76979   0.01202   0.00000  Uiso   1.00
H825   H     0.90302   0.76262   0.07543   0.00000  Uiso   1.00
H826   H     0.87087   0.74651   0.43240   0.00000  Uiso   1.00
C827   C     0.85921   0.80753   0.08165   0.00000  Uiso   1.00
C828   C     0.79379   0.89721   0.43924   0.00000  Uiso   1.00
C829   C     0.80012   0.91510   0.48035   0.00000  Uiso   1.00
C830   C     0.82106   0.89396   0.00469   0.00000  Uiso   1.00
C831   C     0.83000   0.85184   0.48908   0.00000  Uiso   1.00
C832   C     0.82458   0.83554   0.44609   0.00000  Uiso   1.00
C833   C     0.84624   0.82555   0.01315   0.00000  Uiso   1.00
C834   C     0.86702   0.79084   0.49044   0.00000  Uiso   1.00
C835   C     0.86026   0.77558   0.44880   0.00000  Uiso   1.00
C836   C     0.83560   0.79533   0.42956   0.00000  Uiso   1.00
C837   C     0.83904   0.83008   0.05970   0.00000  Uiso   1.00
C838   C     0.88622   0.77882   0.05794   0.00000  Uiso   1.00
C839   C     0.80914   0.85984   0.42010   0.00000  Uiso   1.00
H840   H     0.81659   0.85000   0.07961   0.00000  Uiso   1.00
H841   H     0.78000   0.91482   0.42005   0.00000  Uiso   1.00
H842   H     0.82584   0.77843   0.40125   0.00000  Uiso   1.00
C843   C     0.99277   0.84555   0.24010   0.00000  Uiso   1.00
C844   C     0.67468   0.82145   0.26452   0.00000  Uiso   1.00
C845   C     0.84490   0.98876   0.23653   0.00000  Uiso   1.00
H846   H     0.86758   0.66886   0.20787   0.00000  Uiso   1.00
C847   C     0.81858   0.67934   0.26606   0.00000  Uiso   1.00
C848   C     0.98124   0.78653   0.29273   0.00000  Uiso   1.00
C849   C     0.67284   0.76104   0.31390   0.00000  Uiso   1.00
C850   C     0.97624   0.72821   0.34209   0.00000  Uiso   1.00
H851   H     0.95220   0.74318   0.36907   0.00000  Uiso   1.00
H852   H     0.95960   0.70573   0.32078   0.00000  Uiso   1.00
H853   H     0.99490   0.71092   0.35763   0.00000  Uiso   1.00
H854   H     0.69623   0.74483   0.28729   0.00000  Uiso   1.00
H855   H     0.69023   0.78206   0.33574   0.00000  Uiso   1.00
H856   H     0.95761   0.80077   0.32088   0.00000  Uiso   1.00
H857   H     0.96455   0.76428   0.27119   0.00000  Uiso   1.00
N858   N     0.79144   0.99900   0.30760   0.00000  Uiso   1.00
O859   O     0.75259   0.67522   0.32022   0.00000  Uiso   1.00
O860   O     0.80829   0.98716   0.33715   0.00000  Uiso   1.00
C861   C     0.92083   0.73933   0.48697   0.00000  Uiso   1.00
C862   C     0.89934   0.69437   0.48878   0.00000  Uiso   1.00
C863   C     0.92946   0.99764   0.46052   0.00000  Uiso   1.00
H864   H     0.93950   0.67236   0.42514   0.00000  Uiso   1.00
H865   H     0.95811   0.99892   0.47376   0.00000  Uiso   1.00
H866   H     0.91305   0.96535   0.46132   0.00000  Uiso   1.00
H867   H     0.88987   0.68603   0.02408   0.00000  Uiso   1.00
H868   H     0.87022   0.69114   0.47603   0.00000  Uiso   1.00
H869   H     0.93398   0.74715   0.45172   0.00000  Uiso   1.00
H870   H     0.94871   0.74245   0.00187   0.00000  Uiso   1.00
C871   C     0.84121   0.91931   0.04017   0.00000  Uiso   1.00
C872   C     0.80890   0.93034   0.08462   0.00000  Uiso   1.00
C873   C     0.83061   0.93963   0.12321   0.00000  Uiso   1.00
H874   H     0.84331   0.91149   0.12908   0.00000  Uiso   1.00
H875   H     0.85712   0.96525   0.11566   0.00000  Uiso   1.00
H876   H     0.80724   0.94935   0.15419   0.00000  Uiso   1.00
H877   H     0.79443   0.95851   0.08235   0.00000  Uiso   1.00
H878   H     0.78229   0.90495   0.09282   0.00000  Uiso   1.00
H879   H     0.86709   0.90389   0.04616   0.00000  Uiso   1.00
H880   H     0.85894   0.94848   0.02654   0.00000  Uiso   1.00
C881   C     0.78672   0.95842   0.49443   0.00000  Uiso   1.00
C882   C     0.73965   0.95582   0.02000   0.00000  Uiso   1.00
C883   C     0.72633   0.99903   0.03650   0.00000  Uiso   1.00
H884   H     0.74505   0.68132   0.06019   0.00000  Uiso   1.00
H885   H     0.73150   0.68507   0.00782   0.00000  Uiso   1.00
H886   H     0.69197   0.99620   0.05412   0.00000  Uiso   1.00
H887   H     0.71948   0.94030   0.49764   0.00000  Uiso   1.00
H888   H     0.73388   0.93699   0.04922   0.00000  Uiso   1.00
H889   H     0.80694   0.97785   0.01418   0.00000  Uiso   1.00
H890   H     0.79127   0.97576   0.46424   0.00000  Uiso   1.00
C891   C     0.68787   0.88042   0.21364   0.00000  Uiso   1.00
C892   C     0.68409   0.92228   0.24172   0.00000  Uiso   1.00
C893   C     0.71663   0.95676   0.21928   0.00000  Uiso   1.00
H894   H     0.74932   0.95034   0.21816   0.00000  Uiso   1.00
H895   H     0.71378   0.95909   0.18475   0.00000  Uiso   1.00
H896   H     0.71108   0.98701   0.23893   0.00000  Uiso   1.00
H897   H     0.98483   0.93110   0.24659   0.00000  Uiso   1.00
H898   H     0.68936   0.91951   0.27523   0.00000  Uiso   1.00
H899   H     0.72177   0.87449   0.20276   0.00000  Uiso   1.00
H900   H     0.67831   0.88222   0.18210   0.00000  Uiso   1.00
Zn901  Zn    0.19338   0.13994   0.78734   0.00000  Uiso   1.00
Zn902  Zn    0.13379   0.12458   0.71875   0.00000  Uiso   1.00
Zn903  Zn    0.21056   0.19775   0.70657   0.00000  Uiso   1.00
Zn904  Zn    0.12893   0.20439   0.78733   0.00000  Uiso   1.00
O905   O     0.16667   0.16667   0.75000   0.00000  Uiso   1.00
O906   O     0.07071   0.18878   0.78213   0.00000  Uiso   1.00
O907   O     0.25491   0.15226   0.77013   0.00000  Uiso   1.00
O908   O     0.13760   0.06944   0.73413   0.00000  Uiso   1.00
O909   O     0.20345   0.25620   0.71360   0.00000  Uiso   1.00
O910   O     0.15451   0.12637   0.65458   0.00000  Uiso   1.00
O911   O     0.12940   0.20391   0.84968   0.00000  Uiso   1.00
O912   O     0.20824   0.17759   0.64606   0.00000  Uiso   1.00
O913   O     0.17451   0.15880   0.84968   0.00000  Uiso   1.00
O914   O     0.17930   0.08019   0.78213   0.00000  Uiso   1.00
O915   O     0.14632   0.26085   0.77013   0.00000  Uiso   1.00
O916   O     0.07412   0.13291   0.73413   0.00000  Uiso   1.00
O917   O     0.26693   0.19272   0.71360   0.00000  Uiso   1.00
C918   C     0.05308   0.15927   0.76027   0.00000  Uiso   1.00
C919   C     0.28067   0.17398   0.74069   0.00000  Uiso   1.00
C920   C     0.15671   0.05608   0.75992   0.00000  Uiso   1.00
C921   C     0.17636   0.27783   0.74046   0.00000  Uiso   1.00
C922   C     0.18530   0.14808   0.62961   0.00000  Uiso   1.00
C923   C     0.14779   0.18375   0.87121   0.00000  Uiso   1.00
C924   C     0.22362   0.10312   0.51202   0.00000  Uiso   1.00
H925   H     0.23635   0.09595   0.57543   0.00000  Uiso   1.00
H926   H     0.20421   0.07985   0.93240   0.00000  Uiso   1.00
C927   C     0.19254   0.14087   0.58165   0.00000  Uiso   1.00
C928   C     0.12712   0.23054   0.93924   0.00000  Uiso   1.00
C929   C     0.13345   0.24843   0.98035   0.00000  Uiso   1.00
C930   C     0.15440   0.22729   0.50469   0.00000  Uiso   1.00
C931   C     0.16333   0.18517   0.98908   0.00000  Uiso   1.00
C932   C     0.15792   0.16887   0.94609   0.00000  Uiso   1.00
C933   C     0.17958   0.15889   0.51315   0.00000  Uiso   1.00
C934   C     0.20035   0.12417   0.99044   0.00000  Uiso   1.00
C935   C     0.19359   0.10892   0.94880   0.00000  Uiso   1.00
C936   C     0.16894   0.12866   0.92956   0.00000  Uiso   1.00
C937   C     0.17237   0.16342   0.55970   0.00000  Uiso   1.00
C938   C     0.21956   0.11215   0.55794   0.00000  Uiso   1.00
C939   C     0.14247   0.19317   0.92010   0.00000  Uiso   1.00
H940   H     0.14992   0.18333   0.57961   0.00000  Uiso   1.00
H941   H     0.11333   0.24815   0.92005   0.00000  Uiso   1.00
H942   H     0.15918   0.11176   0.90125   0.00000  Uiso   1.00
C943   C     0.32610   0.17888   0.74010   0.00000  Uiso   1.00
C944   C     0.00801   0.15478   0.76452   0.00000  Uiso   1.00
C945   C     0.17823   0.32210   0.73653   0.00000  Uiso   1.00
H946   H     0.20091   0.00220   0.70787   0.00000  Uiso   1.00
C947   C     0.15192   0.01267   0.76606   0.00000  Uiso   1.00
C948   C     0.31457   0.11986   0.79273   0.00000  Uiso   1.00
C949   C     0.00618   0.09437   0.81390   0.00000  Uiso   1.00
C950   C     0.30957   0.06154   0.84209   0.00000  Uiso   1.00
H951   H     0.28553   0.07651   0.86907   0.00000  Uiso   1.00
H952   H     0.29293   0.03906   0.82078   0.00000  Uiso   1.00
H953   H     0.32823   0.04426   0.85763   0.00000  Uiso   1.00
H954   H     0.02956   0.07817   0.78729   0.00000  Uiso   1.00
H955   H     0.02356   0.11539   0.83574   0.00000  Uiso   1.00
H956   H     0.29094   0.13411   0.82088   0.00000  Uiso   1.00
H957   H     0.29789   0.09762   0.77119   0.00000  Uiso   1.00
N958   N     0.12477   0.33234   0.80760   0.00000  Uiso   1.00
O959   O     0.08592   0.00856   0.82022   0.00000  Uiso   1.00
O960   O     0.14162   0.32050   0.83715   0.00000  Uiso   1.00
C961   C     0.25417   0.07267   0.98697   0.00000  Uiso   1.00
C962   C     0.23267   0.02770   0.98878   0.00000  Uiso   1.00
C963   C     0.26279   0.33097   0.96052   0.00000  Uiso   1.00
H964   H     0.27284   0.00570   0.92514   0.00000  Uiso   1.00
H965   H     0.29144   0.33225   0.97376   0.00000  Uiso   1.00
H966   H     0.24638   0.29869   0.96132   0.00000  Uiso   1.00
H967   H     0.22321   0.01936   0.52408   0.00000  Uiso   1.00
H968   H     0.20355   0.02447   0.97603   0.00000  Uiso   1.00
H969   H     0.26731   0.08048   0.95172   0.00000  Uiso   1.00
H970   H     0.28205   0.07579   0.50187   0.00000  Uiso   1.00
C971   C     0.17455   0.25264   0.54017   0.00000  Uiso   1.00
C972   C     0.14223   0.26367   0.58462   0.00000  Uiso   1.00
C973   C     0.16394   0.27297   0.62321   0.00000  Uiso   1.00
H974   H     0.17664   0.24483   0.62908   0.00000  Uiso   1.00
H975   H     0.19045   0.29859   0.61566   0.00000  Uiso   1.00
H976   H     0.14057   0.28269   0.65419   0.00000  Uiso   1.00
H977   H     0.12776   0.29184   0.58235   0.00000  Uiso   1.00
H978   H     0.11563   0.23828   0.59282   0.00000  Uiso   1.00
H979   H     0.20042   0.23722   0.54616   0.00000  Uiso   1.00
H980   H     0.19228   0.28181   0.52654   0.00000  Uiso   1.00
C981   C     0.12005   0.29176   0.99443   0.00000  Uiso   1.00
C982   C     0.07298   0.28915   0.52000   0.00000  Uiso   1.00
C983   C     0.05967   0.33236   0.53650   0.00000  Uiso   1.00
H984   H     0.07838   0.01465   0.56019   0.00000  Uiso   1.00
H985   H     0.06483   0.01840   0.50782   0.00000  Uiso   1.00
H986   H     0.02531   0.32954   0.55412   0.00000  Uiso   1.00
H987   H     0.05281   0.27363   0.99764   0.00000  Uiso   1.00
H988   H     0.06721   0.27032   0.54922   0.00000  Uiso   1.00
H989   H     0.14027   0.31119   0.51418   0.00000  Uiso   1.00
H990   H     0.12460   0.30909   0.96424   0.00000  Uiso   1.00
C991   C     0.02121   0.21375   0.71364   0.00000  Uiso   1.00
C992   C     0.01743   0.25561   0.74172   0.00000  Uiso   1.00
C993   C     0.04996   0.29009   0.71928   0.00000  Uiso   1.00
H994   H     0.08265   0.28368   0.71816   0.00000  Uiso   1.00
H995   H     0.04712   0.29242   0.68475   0.00000  Uiso   1.00
H996   H     0.04441   0.32034   0.73893   0.00000  Uiso   1.00
H997   H     0.31817   0.26443   0.74659   0.00000  Uiso   1.00
H998   H     0.02269   0.25284   0.77523   0.00000  Uiso   1.00
H999   H     0.05510   0.20783   0.70276   0.00000  Uiso   1.00
H1000  H     0.01164   0.21555   0.68210   0.00000  Uiso   1.00
Zn1001 Zn    0.52672   0.13994   0.78734   0.00000  Uiso   1.00
Zn1002 Zn    0.46713   0.12458   0.71875   0.00000  Uiso   1.00
Zn1003 Zn    0.54389   0.19775   0.70657   0.00000  Uiso   1.00
Zn1004 Zn    0.46226   0.20439   0.78733   0.00000  Uiso   1.00
O1005  O     0.50000   0.16667   0.75000   0.00000  Uiso   1.00
O1006  O     0.40405   0.18878   0.78213   0.00000  Uiso   1.00
O1007  O     0.58824   0.15226   0.77013   0.00000  Uiso   1.00
O1008  O     0.47093   0.06944   0.73413   0.00000  Uiso   1.00
O1009  O     0.53678   0.25620   0.71360   0.00000  Uiso   1.00
O1010  O     0.48784   0.12637   0.65458   0.00000  Uiso   1.00
O1011  O     0.46274   0.20391   0.84968   0.00000  Uiso   1.00
O1012  O     0.54157   0.17759   0.64606   0.00000  Uiso   1.00
O1013  O     0.50785   0.15880   0.84968   0.00000  Uiso   1.00
O1014  O     0.51264   0.08019   0.78213   0.00000  Uiso   1.00
O1015  O     0.47965   0.26085   0.77013   0.00000  Uiso   1.00
O1016  O     0.40745   0.13291   0.73413   0.00000  Uiso   1.00
O1017  O     0.60026   0.19272   0.71360   0.00000  Uiso   1.00
C1018  C     0.38642   0.15927   0.76027   0.00000  Uiso   1.00
C1019  C     0.61400   0.17398   0.74069   0.00000  Uiso   1.00
C1020  C     0.49004   0.05608   0.75992   0.00000  Uiso   1.00
C1021  C     0.50970   0.27783   0.74046   0.00000  Uiso   1.00
C1022  C     0.51864   0.14808   0.62961   0.00000  Uiso   1.00
C1023  C     0.48112   0.18375   0.87121   0.00000  Uiso   1.00
C1024  C     0.55695   0.10312   0.51202   0.00000  Uiso   1.00
H1025  H     0.56969   0.09595   0.57543   0.00000  Uiso   1.00
H1026  H     0.53754   0.07985   0.93240   0.00000  Uiso   1.00
C1027  C     0.52588   0.14087   0.58165   0.00000  Uiso   1.00
C1028  C     0.46046   0.23054   0.93924   0.00000  Uiso   1.00
C1029  C     0.46679   0.24843   0.98035   0.00000  Uiso   1.00
C1030  C     0.48773   0.22729   0.50469   0.00000  Uiso   1.00
C1031  C     0.49667   0.18517   0.98908   0.00000  Uiso   1.00
C1032  C     0.49125   0.16887   0.94609   0.00000  Uiso   1.00
C1033  C     0.51291   0.15889   0.51315   0.00000  Uiso   1.00
C1034  C     0.53369   0.12417   0.99044   0.00000  Uiso   1.00
C1035  C     0.52693   0.10892   0.94880   0.00000  Uiso   1.00
C1036  C     0.50227   0.12866   0.92956   0.00000  Uiso   1.00
C1037  C     0.50570   0.16342   0.55970   0.00000  Uiso   1.00
C1038  C     0.55289   0.11215   0.55794   0.00000  Uiso   1.00
C1039  C     0.47581   0.19317   0.92010   0.00000  Uiso   1.00
H1040  H     0.48326   0.18333   0.57961   0.00000  Uiso   1.00
H1041  H     0.44667   0.24815   0.92005   0.00000  Uiso   1.00
H1042  H     0.49251   0.11176   0.90125   0.00000  Uiso   1.00
C1043  C     0.65944   0.17888   0.74010   0.00000  Uiso   1.00
C1044  C     0.34135   0.15478   0.76452   0.00000  Uiso   1.00
C1045  C     0.51157   0.32210   0.73653   0.00000  Uiso   1.00
H1046  H     0.53425   0.00220   0.70787   0.00000  Uiso   1.00
C1047  C     0.48525   0.01267   0.76606   0.00000  Uiso   1.00
C1048  C     0.64791   0.11986   0.79273   0.00000  Uiso   1.00
C1049  C     0.33951   0.09437   0.81390   0.00000  Uiso   1.00
C1050  C     0.64291   0.06154   0.84209   0.00000  Uiso   1.00
H1051  H     0.61886   0.07651   0.86907   0.00000  Uiso   1.00
H1052  H     0.62626   0.03906   0.82078   0.00000  Uiso   1.00
H1053  H     0.66156   0.04426   0.85763   0.00000  Uiso   1.00
H1054  H     0.36290   0.07817   0.78729   0.00000  Uiso   1.00
H1055  H     0.35689   0.11539   0.83574   0.00000  Uiso   1.00
H1056  H     0.62427   0.13411   0.82088   0.00000  Uiso   1.00
H1057  H     0.63122   0.09762   0.77119   0.00000  Uiso   1.00
N1058  N     0.45810   0.33234   0.80760   0.00000  Uiso   1.00
O1059  O     0.41925   0.00856   0.82022   0.00000  Uiso   1.00
O1060  O     0.47495   0.32050   0.83715   0.00000  Uiso   1.00
C1061  C     0.58750   0.07267   0.98697   0.00000  Uiso   1.00
C1062  C     0.56601   0.02770   0.98878   0.00000  Uiso   1.00
C1063  C     0.59613   0.33097   0.96052   0.00000  Uiso   1.00
H1064  H     0.60617   0.00570   0.92514   0.00000  Uiso   1.00
H1065  H     0.62478   0.33225   0.97376   0.00000  Uiso   1.00
H1066  H     0.57971   0.29869   0.96132   0.00000  Uiso   1.00
H1067  H     0.55654   0.01936   0.52408   0.00000  Uiso   1.00
H1068  H     0.53688   0.02447   0.97603   0.00000  Uiso   1.00
H1069  H     0.60065   0.08048   0.95172   0.00000  Uiso   1.00
H1070  H     0.61538   0.07579   0.50187   0.00000  Uiso   1.00
C1071  C     0.50788   0.25264   0.54017   0.00000  Uiso   1.00
C1072  C     0.47557   0.26367   0.58462   0.00000  Uiso   1.00
C1073  C     0.49727   0.27297   0.62321   0.00000  Uiso   1.00
H1074  H     0.50997   0.24483   0.62908   0.00000  Uiso   1.00
H1075  H     0.52379   0.29859   0.61566   0.00000  Uiso   1.00
H1076  H     0.47390   0.28269   0.65419   0.00000  Uiso   1.00
H1077  H     0.46110   0.29184   0.58235   0.00000  Uiso   1.00
H1078  H     0.44896   0.23828   0.59282   0.00000  Uiso   1.00
H1079  H     0.53375   0.23722   0.54616   0.00000  Uiso   1.00
H1080  H     0.52561   0.28181   0.52654   0.00000  Uiso   1.00
C1081  C     0.45338   0.29176   0.99443   0.00000  Uiso   1.00
C1082  C     0.40632   0.28915   0.52000   0.00000  Uiso   1.00
C1083  C     0.39300   0.33236   0.53650   0.00000  Uiso   1.00
H1084  H     0.41171   0.01465   0.56019   0.00000  Uiso   1.00
H1085  H     0.39817   0.01840   0.50782   0.00000  Uiso   1.00
H1086  H     0.35864   0.32954   0.55412   0.00000  Uiso   1.00
H1087  H     0.38614   0.27363   0.99764   0.00000  Uiso   1.00
H1088  H     0.40054   0.27032   0.54922   0.00000  Uiso   1.00
H1089  H     0.47361   0.31119   0.51418   0.00000  Uiso   1.00
H1090  H     0.45793   0.30909   0.96424   0.00000  Uiso   1.00
C1091  C     0.35454   0.21375   0.71364   0.00000  Uiso   1.00
C1092  C     0.35076   0.25561   0.74172   0.00000  Uiso   1.00
C1093  C     0.38330   0.29009   0.71928   0.00000  Uiso   1.00
H1094  H     0.41599   0.28368   0.71816   0.00000  Uiso   1.00
H1095  H     0.38045   0.29242   0.68475   0.00000  Uiso   1.00
H1096  H     0.37774   0.32034   0.73893   0.00000  Uiso   1.00
H1097  H     0.65150   0.26443   0.74659   0.00000  Uiso   1.00
H1098  H     0.35602   0.25284   0.77523   0.00000  Uiso   1.00
H1099  H     0.38844   0.20783   0.70276   0.00000  Uiso   1.00
H1100  H     0.34497   0.21555   0.68210   0.00000  Uiso   1.00
Zn1101 Zn    0.86005   0.13994   0.78734   0.00000  Uiso   1.00
Zn1102 Zn    0.80046   0.12458   0.71875   0.00000  Uiso   1.00
Zn1103 Zn    0.87723   0.19775   0.70657   0.00000  Uiso   1.00
Zn1104 Zn    0.79560   0.20439   0.78733   0.00000  Uiso   1.00
O1105  O     0.83333   0.16667   0.75000   0.00000  Uiso   1.00
O1106  O     0.73738   0.18878   0.78213   0.00000  Uiso   1.00
O1107  O     0.92158   0.15226   0.77013   0.00000  Uiso   1.00
O1108  O     0.80426   0.06944   0.73413   0.00000  Uiso   1.00
O1109  O     0.87012   0.25620   0.71360   0.00000  Uiso   1.00
O1110  O     0.82118   0.12637   0.65458   0.00000  Uiso   1.00
O1111  O     0.79607   0.20391   0.84968   0.00000  Uiso   1.00
O1112  O     0.87491   0.17759   0.64606   0.00000  Uiso   1.00
O1113  O     0.84118   0.15880   0.84968   0.00000  Uiso   1.00
O1114  O     0.84597   0.08019   0.78213   0.00000  Uiso   1.00
O1115  O     0.81298   0.26085   0.77013   0.00000  Uiso   1.00
O1116  O     0.74078   0.13291   0.73413   0.00000  Uiso   1.00
O1117  O     0.93360   0.19272   0.71360   0.00000  Uiso   1.00
C1118  C     0.71975   0.15927   0.76027   0.00000  Uiso   1.00
C1119  C     0.94733   0.17398   0.74069   0.00000  Uiso   1.00
C1120  C     0.82338   0.05608   0.75992   0.00000  Uiso   1.00
C1121  C     0.84303   0.27783   0.74046   0.00000  Uiso   1.00
C1122  C     0.85197   0.14808   0.62961   0.00000  Uiso   1.00
C1123  C     0.81446   0.18375   0.87121   0.00000  Uiso   1.00
C1124  C     0.89028   0.10312   0.51202   0.00000  Uiso   1.00
H1125  H     0.90302   0.09595   0.57543   0.00000  Uiso   1.00
H1126  H     0.87087   0.07985   0.93240   0.00000  Uiso   1.00
C1127  C     0.85921   0.14087   0.58165   0.00000  Uiso   1.00
C1128  C     0.79379   0.23054   0.93924   0.00000  Uiso   1.00
C1129  C     0.80012   0.24843   0.98035   0.00000  Uiso   1.00
C1130  C     0.82106   0.22729   0.50469   0.00000  Uiso   1.00
C1131  C     0.83000   0.18517   0.98908   0.00000  Uiso   1.00
C1132  C     0.82458   0.16887   0.94609   0.00000  Uiso   1.00
C1133  C     0.84624   0.15889   0.51315   0.00000  Uiso   1.00
C1134  C     0.86702   0.12417   0.99044   0.00000  Uiso   1.00
C1135  C     0.86026   0.10892   0.94880   0.00000  Uiso   1.00
C1136  C     0.83560   0.12866   0.92956   0.00000  Uiso   1.00
C1137  C     0.83904   0.16342   0.55970   0.00000  Uiso   1.00
C1138  C     0.88622   0.11215   0.55794   0.00000  Uiso   1.00
C1139  C     0.80914   0.19317   0.92010   0.00000  Uiso   1.00
H1140  H     0.81659   0.18333   0.57961   0.00000  Uiso   1.00
H1141  H     0.78000   0.24815   0.92005   0.00000  Uiso   1.00
H1142  H     0.82584   0.11176   0.90125   0.00000  Uiso   1.00
C1143  C     0.99277   0.17888   0.74010   0.00000  Uiso   1.00
C1144  C     0.67468   0.15478   0.76452   0.00000  Uiso   1.00
C1145  C     0.84490   0.32210   0.73653   0.00000  Uiso   1.00
H1146  H     0.86758   0.00220   0.70787   0.00000  Uiso   1.00
C1147  C     0.81858   0.01267   0.76606   0.00000  Uiso   1.00
C1148  C     0.98124   0.11986   0.79273   0.00000  Uiso   1.00
C1149  C     0.67284   0.09437   0.81390   0.00000  Uiso   1.00
C1150  C     0.97624   0.06154   0.84209   0.00000  Uiso   1.00
H1151  H     0.95220   0.07651   0.86907   0.00000  Uiso   1.00
H1152  H     0.95960   0.03906   0.82078   0.00000  Uiso   1.00
H1153  H     0.99490   0.04426   0.85763   0.00000  Uiso   1.00
H1154  H     0.69623   0.07817   0.78729   0.00000  Uiso   1.00
H1155  H     0.69023   0.11539   0.83574   0.00000  Uiso   1.00
H1156  H     0.95761   0.13411   0.82088   0.00000  Uiso   1.00
H1157  H     0.96455   0.09762   0.77119   0.00000  Uiso   1.00
N1158  N     0.79144   0.33234   0.80760   0.00000  Uiso   1.00
O1159  O     0.75259   0.00856   0.82022   0.00000  Uiso   1.00
O1160  O     0.80829   0.32050   0.83715   0.00000  Uiso   1.00
C1161  C     0.92083   0.07267   0.98697   0.00000  Uiso   1.00
C1162  C     0.89934   0.02770   0.98878   0.00000  Uiso   1.00
C1163  C     0.92946   0.33097   0.96052   0.00000  Uiso   1.00
H1164  H     0.93950   0.00570   0.92514   0.00000  Uiso   1.00
H1165  H     0.95811   0.33225   0.97376   0.00000  Uiso   1.00
H1166  H     0.91305   0.29869   0.96132   0.00000  Uiso   1.00
H1167  H     0.88987   0.01936   0.52408   0.00000  Uiso   1.00
H1168  H     0.87022   0.02447   0.97603   0.00000  Uiso   1.00
H1169  H     0.93398   0.08048   0.95172   0.00000  Uiso   1.00
H1170  H     0.94871   0.07579   0.50187   0.00000  Uiso   1.00
C1171  C     0.84121   0.25264   0.54017   0.00000  Uiso   1.00
C1172  C     0.80890   0.26367   0.58462   0.00000  Uiso   1.00
C1173  C     0.83061   0.27297   0.62321   0.00000  Uiso   1.00
H1174  H     0.84331   0.24483   0.62908   0.00000  Uiso   1.00
H1175  H     0.85712   0.29859   0.61566   0.00000  Uiso   1.00
H1176  H     0.80724   0.28269   0.65419   0.00000  Uiso   1.00
H1177  H     0.79443   0.29184   0.58235   0.00000  Uiso   1.00
H1178  H     0.78229   0.23828   0.59282   0.00000  Uiso   1.00
H1179  H     0.86709   0.23722   0.54616   0.00000  Uiso   1.00
H1180  H     0.85894   0.28181   0.52654   0.00000  Uiso   1.00
C1181  C     0.78672   0.29176   0.99443   0.00000  Uiso   1.00
C1182  C     0.73965   0.28915   0.52000   0.00000  Uiso   1.00
C1183  C     0.72633   0.33236   0.53650   0.00000  Uiso   1.00
H1184  H     0.74505   0.01465   0.56019   0.00000  Uiso   1.00
H1185  H     0.73150   0.01840   0.50782   0.00000  Uiso   1.00
H1186  H     0.69197   0.32954   0.55412   0.00000  Uiso   1.00
H1187  H     0.71948   0.27363   0.99764   0.00000  Uiso   1.00
H1188  H     0.73388   0.27032   0.54922   0.00000  Uiso   1.00
H1189  H     0.80694   0.31119   0.51418   0.00000  Uiso   1.00
H1190  H     0.79127   0.30909   0.96424   0.00000  Uiso   1.00
C1191  C     0.68787   0.21375   0.71364   0.00000  Uiso   1.00
C1192  C     0.68409   0.25561   0.74172   0.00000  Uiso   1.00
C1193  C     0.71663   0.29009   0.71928   0.00000  Uiso   1.00
H1194  H     0.74932   0.28368   0.71816   0.00000  Uiso   1.00
H1195  H     0.71378   0.29242   0.68475   0.00000  Uiso   1.00
H1196  H     0.71108   0.32034   0.73893   0.00000  Uiso   1.00
H1197  H     0.98483   0.26443   0.74659   0.00000  Uiso   1.00
H1198  H     0.68936   0.25284   0.77523   0.00000  Uiso   1.00
H1199  H     0.72177   0.20783   0.70276   0.00000  Uiso   1.00
H1200  H     0.67831   0.21555   0.68210   0.00000  Uiso   1.00
Zn1201 Zn    0.19338   0.47327   0.78734   0.00000  Uiso   1.00
Zn1202 Zn    0.13379   0.45791   0.71875   0.00000  Uiso   1.00
Zn1203 Zn    0.21056   0.53109   0.70657   0.00000  Uiso   1.00
Zn1204 Zn    0.12893   0.53773   0.78733   0.00000  Uiso   1.00
O1205  O     0.16667   0.50000   0.75000   0.00000  Uiso   1.00
O1206  O     0.07071   0.52211   0.78213   0.00000  Uiso   1.00
O1207  O     0.25491   0.48559   0.77013   0.00000  Uiso   1.00
O1208  O     0.13760   0.40277   0.73413   0.00000  Uiso   1.00
O1209  O     0.20345   0.58953   0.71360   0.00000  Uiso   1.00
O1210  O     0.15451   0.45970   0.65458   0.00000  Uiso   1.00
O1211  O     0.12940   0.53724   0.84968   0.00000  Uiso   1.00
O1212  O     0.20824   0.51092   0.64606   0.00000  Uiso   1.00
O1213  O     0.17451   0.49213   0.84968   0.00000  Uiso   1.00
O1214  O     0.17930   0.41352   0.78213   0.00000  Uiso   1.00
O1215  O     0.14632   0.59418   0.77013   0.00000  Uiso   1.00
O1216  O     0.07412   0.46625   0.73413   0.00000  Uiso   1.00
O1217  O     0.26693   0.52605   0.71360   0.00000  Uiso   1.00
C1218  C     0.05308   0.49261   0.76027   0.00000  Uiso   1.00
C1219  C     0.28067   0.50732   0.74069   0.00000  Uiso   1.00
C1220  C     0.15671   0.38941   0.75992   0.00000  Uiso   1.00
C1221  C     0.17636   0.61116   0.74046   0.00000  Uiso   1.00
C1222  C     0.18530   0.48141   0.62961   0.00000  Uiso   1.00
C1223  C     0.14779   0.51708   0.87121   0.00000  Uiso   1.00
C1224  C     0.22362   0.43645   0.51202   0.00000  Uiso   1.00
H1225  H     0.23635   0.42929   0.57543   0.00000  Uiso   1.00
H1226  H     0.20421   0.41318   0.93240   0.00000  Uiso   1.00
C1227  C     0.19254   0.47420   0.58165   0.00000  Uiso   1.00
C1228  C     0.12712   0.56388   0.93924   0.00000  Uiso   1.00
C1229  C     0.13345   0.58176   0.98035   0.00000  Uiso   1.00
C1230  C     0.15440   0.56063   0.50469   0.00000  Uiso   1.00
C1231  C     0.16333   0.51851   0.98908   0.00000  Uiso   1.00
C1232  C     0.15792   0.50220   0.94609   0.00000  Uiso   1.00
C1233  C     0.17958   0.49222   0.51315   0.00000  Uiso   1.00
C1234  C     0.20035   0.45750   0.99044   0.00000  Uiso   1.00
C1235  C     0.19359   0.44225   0.94880   0.00000  Uiso   1.00
C1236  C     0.16894   0.46199   0.92956   0.00000  Uiso   1.00
C1237  C     0.17237   0.49675   0.55970   0.00000  Uiso   1.00
C1238  C     0.21956   0.44548   0.55794   0.00000  Uiso   1.00
C1239  C     0.14247   0.52650   0.92010   0.00000  Uiso   1.00
H1240  H     0.14992   0.51667   0.57961   0.00000  Uiso   1.00
H1241  H     0.11333   0.58149   0.92005   0.00000  Uiso   1.00
H1242  H     0.15918   0.44510   0.90125   0.00000  Uiso   1.00
C1243  C     0.32610   0.51222   0.74010   0.00000  Uiso   1.00
C1244  C     0.00801   0.48811   0.76452   0.00000  Uiso   1.00
C1245  C     0.17823   0.65543   0.73653   0.00000  Uiso   1.00
H1246  H     0.20091   0.33553   0.70787   0.00000  Uiso   1.00
C1247  C     0.15192   0.34600   0.76606   0.00000  Uiso   1.00
C1248  C     0.31457   0.45320   0.79273   0.00000  Uiso   1.00
C1249  C     0.00618   0.42771   0.81390   0.00000  Uiso   1.00
C1250  C     0.30957   0.39488   0.84209   0.00000  Uiso   1.00
H1251  H     0.28553   0.40985   0.86907   0.00000  Uiso   1.00
H1252  H     0.29293   0.37240   0.82078   0.00000  Uiso   1.00
H1253  H     0.32823   0.37759   0.85763   0.00000  Uiso   1.00
H1254  H     0.02956   0.41150   0.78729   0.00000  Uiso   1.00
H1255  H     0.02356   0.44872   0.83574   0.00000  Uiso   1.00
H1256  H     0.29094   0.46744   0.82088   0.00000  Uiso   1.00
H1257  H     0.29789   0.43095   0.77119   0.00000  Uiso   1.00
N1258  N     0.12477   0.66567   0.80760   0.00000  Uiso   1.00
O1259  O     0.08592   0.34189   0.82022   0.00000  Uiso   1.00
O1260  O     0.14162   0.65383   0.83715   0.00000  Uiso   1.00
C1261  C     0.25417   0.40600   0.98697   0.00000  Uiso   1.00
C1262  C     0.23267   0.36104   0.98878   0.00000  Uiso   1.00
C1263  C     0.26279   0.66430   0.96052   0.00000  Uiso   1.00
H1264  H     0.27284   0.33903   0.92514   0.00000  Uiso   1.00
H1265  H     0.29144   0.66558   0.97376   0.00000  Uiso   1.00
H1266  H     0.24638   0.63202   0.96132   0.00000  Uiso   1.00
H1267  H     0.22321   0.35270   0.52408   0.00000  Uiso   1.00
H1268  H     0.20355   0.35781   0.97603   0.00000  Uiso   1.00
H1269  H     0.26731   0.41382   0.95172   0.00000  Uiso   1.00
H1270  H     0.28205   0.40912   0.50187   0.00000  Uiso   1.00
C1271  C     0.17455   0.58598   0.54017   0.00000  Uiso   1.00
C1272  C     0.14223   0.59701   0.58462   0.00000  Uiso   1.00
C1273  C     0.16394   0.60630   0.62321   0.00000  Uiso   1.00
H1274  H     0.17664   0.57816   0.62908   0.00000  Uiso   1.00
H1275  H     0.19045   0.63192   0.61566   0.00000  Uiso   1.00
H1276  H     0.14057   0.61602   0.65419   0.00000  Uiso   1.00
H1277  H     0.12776   0.62517   0.58235   0.00000  Uiso   1.00
H1278  H     0.11563   0.57162   0.59282   0.00000  Uiso   1.00
H1279  H     0.20042   0.57056   0.54616   0.00000  Uiso   1.00
H1280  H     0.19228   0.61514   0.52654   0.00000  Uiso   1.00
C1281  C     0.12005   0.62509   0.99443   0.00000  Uiso   1.00
C1282  C     0.07298   0.62248   0.52000   0.00000  Uiso   1.00
C1283  C     0.05967   0.66570   0.53650   0.00000  Uiso   1.00
H1284  H     0.07838   0.34798   0.56019   0.00000  Uiso   1.00
H1285  H     0.06483   0.35173   0.50782   0.00000  Uiso   1.00
H1286  H     0.02531   0.66287   0.55412   0.00000  Uiso   1.00
H1287  H     0.05281   0.60696   0.99764   0.00000  Uiso   1.00
H1288  H     0.06721   0.60366   0.54922   0.00000  Uiso   1.00
H1289  H     0.14027   0.64452   0.51418   0.00000  Uiso   1.00
H1290  H     0.12460   0.64242   0.96424   0.00000  Uiso   1.00
C1291  C     0.02121   0.54709   0.71364   0.00000  Uiso   1.00
C1292  C     0.01743   0.58894   0.74172   0.00000  Uiso   1.00
C1293  C     0.04996   0.62342   0.71928   0.00000  Uiso   1.00
H1294  H     0.08265   0.61701   0.71816   0.00000  Uiso   1.00
H1295  H     0.04712   0.62576   0.68475   0.00000  Uiso   1.00
H1296  H     0.04441   0.65368   0.73893   0.00000  Uiso   1.00
H1297  H     0.31817   0.59777   0.74659   0.00000  Uiso   1.00
H1298  H     0.02269   0.58617   0.77523   0.00000  Uiso   1.00
H1299  H     0.05510   0.54116   0.70276   0.00000  Uiso   1.00
H1300  H     0.01164   0.54888   0.68210   0.00000  Uiso   1.00
Zn1301 Zn    0.52672   0.47327   0.78734   0.00000  Uiso   1.00
Zn1302 Zn    0.46713   0.45791   0.71875   0.00000  Uiso   1.00
Zn1303 Zn    0.54389   0.53109   0.70657   0.00000  Uiso   1.00
Zn1304 Zn    0.46226   0.53773   0.78733   0.00000  Uiso   1.00
O1305  O     0.50000   0.50000   0.75000   0.00000  Uiso   1.00
O1306  O     0.40405   0.52211   0.78213   0.00000  Uiso   1.00
O1307  O     0.58824   0.48559   0.77013   0.00000  Uiso   1.00
O1308  O     0.47093   0.40277   0.73413   0.00000  Uiso   1.00
O1309  O     0.53678   0.58953   0.71360   0.00000  Uiso   1.00
O1310  O     0.48784   0.45970   0.65458   0.00000  Uiso   1.00
O1311  O     0.46274   0.53724   0.84968   0.00000  Uiso   1.00
O1312  O     0.54157   0.51092   0.64606   0.00000  Uiso   1.00
O1313  O     0.50785   0.49213   0.84968   0.00000  Uiso   1.00
O1314  O     0.51264   0.41352   0.78213   0.00000  Uiso   1.00
O1315  O     0.47965   0.59418   0.77013   0.00000  Uiso   1.00
O1316  O     0.40745   0.46625   0.73413   0.00000  Uiso   1.00
O1317  O     0.60026   0.52605   0.71360   0.00000  Uiso   1.00
C1318  C     0.38642   0.49261   0.76027   0.00000  Uiso   1.00
C1319  C     0.61400   0.50732   0.74069   0.00000  Uiso   1.00
C1320  C     0.49004   0.38941   0.75992   0.00000  Uiso   1.00
C1321  C     0.50970   0.61116   0.74046   0.00000  Uiso   1.00
C1322  C     0.51864   0.48141   0.62961   0.00000  Uiso   1.00
C1323  C     0.48112   0.51708   0.87121   0.00000  Uiso   1.00
C1324  C     0.55695   0.43645   0.51202   0.00000  Uiso   1.00
H1325  H     0.56969   0.42929   0.57543   0.00000  Uiso   1.00
H1326  H     0.53754   0.41318   0.93240   0.00000  Uiso   1.00
C1327  C     0.52588   0.47420   0.58165   0.00000  Uiso   1.00
C1328  C     0.46046   0.56388   0.93924   0.00000  Uiso   1.00
C1329  C     0.46679   0.58176   0.98035   0.00000  Uiso   1.00
C1330  C     0.48773   0.56063   0.50469   0.00000  Uiso   1.00
C1331  C     0.49667   0.51851   0.98908   0.00000  Uiso   1.00
C1332  C     0.49125   0.50220   0.94609   0.00000  Uiso   1.00
C1333  C     0.51291   0.49222   0.51315   0.00000  Uiso   1.00
C1334  C     0.53369   0.45750   0.99044   0.00000  Uiso   1.00
C1335  C     0.52693   0.44225   0.94880   0.00000  Uiso   1.00
C1336  C     0.50227   0.46199   0.92956   0.00000  Uiso   1.00
C1337  C     0.50570   0.49675   0.55970   0.00000  Uiso   1.00
C1338  C     0.55289   0.44548   0.55794   0.00000  Uiso   1.00
C1339  C     0.47581   0.52650   0.92010   0.00000  Uiso   1.00
H1340  H     0.48326   0.51667   0.57961   0.00000  Uiso   1.00
H1341  H     0.44667   0.58149   0.92005   0.00000  Uiso   1.00
H1342  H     0.49251   0.44510   0.90125   0.00000  Uiso   1.00
C1343  C     0.65944   0.51222   0.74010   0.00000  Uiso   1.00
C1344  C     0.34135   0.48811   0.76452   0.00000  Uiso   1.00
C1345  C     0.51157   0.65543   0.73653   0.00000  Uiso   1.00
H1346  H     0.53425   0.33553   0.70787   0.00000  Uiso   1.00
C1347  C     0.48525   0.34600   0.76606   0.00000  Uiso   1.00
C1348  C     0.64791   0.45320   0.79273   0.00000  Uiso   1.00
C1349  C     0.33951   0.42771   0.81390   0.00000  Uiso   1.00
C1350  C     0.64291   0.39488   0.84209   0.00000  Uiso   1.00
H1351  H     0.61886   0.40985   0.86907   0.00000  Uiso   1.00
H1352  H     0.62626   0.37240   0.82078   0.00000  Uiso   1.00
H1353  H     0.66156   0.37759   0.85763   0.00000  Uiso   1.00
H1354  H     0.36290   0.41150   0.78729   0.00000  Uiso   1.00
H1355  H     0.35689   0.44872   0.83574   0.00000  Uiso   1.00
H1356  H     0.62427   0.46744   0.82088   0.00000  Uiso   1.00
H1357  H     0.63122   0.43095   0.77119   0.00000  Uiso   1.00
N1358  N     0.45810   0.66567   0.80760   0.00000  Uiso   1.00
O1359  O     0.41925   0.34189   0.82022   0.00000  Uiso   1.00
O1360  O     0.47495   0.65383   0.83715   0.00000  Uiso   1.00
C1361  C     0.58750   0.40600   0.98697   0.00000  Uiso   1.00
C1362  C     0.56601   0.36104   0.98878   0.00000  Uiso   1.00
C1363  C     0.59613   0.66430   0.96052   0.00000  Uiso   1.00
H1364  H     0.60617   0.33903   0.92514   0.00000  Uiso   1.00
H1365  H     0.62478   0.66558   0.97376   0.00000  Uiso   1.00
H1366  H     0.57971   0.63202   0.96132   0.00000  Uiso   1.00
H1367  H     0.55654   0.35270   0.52408   0.00000  Uiso   1.00
H1368  H     0.53688   0.35781   0.97603   0.00000  Uiso   1.00
H1369  H     0.60065   0.41382   0.95172   0.00000  Uiso   1.00
H1370  H     0.61538   0.40912   0.50187   0.00000  Uiso   1.00
C1371  C     0.50788   0.58598   0.54017   0.00000  Uiso   1.00
C1372  C     0.47557   0.59701   0.58462   0.00000  Uiso   1.00
C1373  C     0.49727   0.60630   0.62321   0.00000  Uiso   1.00
H1374  H     0.50997   0.57816   0.62908   0.00000  Uiso   1.00
H1375  H     0.52379   0.63192   0.61566   0.00000  Uiso   1.00
H1376  H     0.47390   0.61602   0.65419   0.00000  Uiso   1.00
H1377  H     0.46110   0.62517   0.58235   0.00000  Uiso   1.00
H1378  H     0.44896   0.57162   0.59282   0.00000  Uiso   1.00
H1379  H     0.53375   0.57056   0.54616   0.00000  Uiso   1.00
H1380  H     0.52561   0.61514   0.52654   0.00000  Uiso   1.00
C1381  C     0.45338   0.62509   0.99443   0.00000  Uiso   1.00
C1382  C     0.40632   0.62248   0.52000   0.00000  Uiso   1.00
C1383  C     0.39300   0.66570   0.53650   0.00000  Uiso   1.00
H1384  H     0.41171   0.34798   0.56019   0.00000  Uiso   1.00
H1385  H     0.39817   0.35173   0.50782   0.00000  Uiso   1.00
H1386  H     0.35864   0.66287   0.55412   0.00000  Uiso   1.00
H1387  H     0.38614   0.60696   0.99764   0.00000  Uiso   1.00
H1388  H     0.40054   0.60366   0.54922   0.00000  Uiso   1.00
H1389  H     0.47361   0.64452   0.51418   0.00000  Uiso   1.00
H1390  H     0.45793   0.64242   0.96424   0.00000  Uiso   1.00
C1391  C     0.35454   0.54709   0.71364   0.00000  Uiso   1.00
C1392  C     0.35076   0.58894   0.74172   0.00000  Uiso   1.00
C1393  C     0.38330   0.62342   0.71928   0.00000  Uiso   1.00
H1394  H     0.41599   0.61701   0.71816   0.00000  Uiso   1.00
H1395  H     0.38045   0.62576   0.68475   0.00000  Uiso   1.00
H1396  H     0.37774   0.65368   0.73893   0.00000  Uiso   1.00
H1397  H     0.65150   0.59777   0.74659   0.00000  Uiso   1.00
H1398  H     0.35602   0.58617   0.77523   0.00000  Uiso   1.00
H1399  H     0.38844   0.54116   0.70276   0.00000  Uiso   1.00
H1400  H     0.34497   0.54888   0.68210   0.00000  Uiso   1.00
Zn1401 Zn    0.86005   0.47327   0.78734   0.00000  Uiso   1.00
Zn1402 Zn    0.80046   0.45791   0.71875   0.00000  Uiso   1.00
Zn1403 Zn    0.87723   0.53109   0.70657   0.00000  Uiso   1.00
Zn1404 Zn    0.79560   0.53773   0.78733   0.00000  Uiso   1.00
O1405  O     0.83333   0.50000   0.75000   0.00000  Uiso   1.00
O1406  O     0.73738   0.52211   0.78213   0.00000  Uiso   1.00
O1407  O     0.92158   0.48559   0.77013   0.00000  Uiso   1.00
O1408  O     0.80426   0.40277   0.73413   0.00000  Uiso   1.00
O1409  O     0.87012   0.58953   0.71360   0.00000  Uiso   1.00
O1410  O     0.82118   0.45970   0.65458   0.00000  Uiso   1.00
O1411  O     0.79607   0.53724   0.84968   0.00000  Uiso   1.00
O1412  O     0.87491   0.51092   0.64606   0.00000  Uiso   1.00
O1413  O     0.84118   0.49213   0.84968   0.00000  Uiso   1.00
O1414  O     0.84597   0.41352   0.78213   0.00000  Uiso   1.00
O1415  O     0.81298   0.59418   0.77013   0.00000  Uiso   1.00
O1416  O     0.74078   0.46625   0.73413   0.00000  Uiso   1.00
O1417  O     0.93360   0.52605   0.71360   0.00000  Uiso   1.00
C1418  C     0.71975   0.49261   0.76027   0.00000  Uiso   1.00
C1419  C     0.94733   0.50732   0.74069   0.00000  Uiso   1.00
C1420  C     0.82338   0.38941   0.75992   0.00000  Uiso   1.00
C1421  C     0.84303   0.61116   0.74046   0.00000  Uiso   1.00
C1422  C     0.85197   0.48141   0.62961   0.00000  Uiso   1.00
C1423  C     0.81446   0.51708   0.87121   0.00000  Uiso   1.00
C1424  C     0.89028   0.43645   0.51202   0.00000  Uiso   1.00
H1425  H     0.90302   0.42929   0.57543   0.00000  Uiso   1.00
H1426  H     0.87087   0.41318   0.93240   0.00000  Uiso   1.00
C1427  C     0.85921   0.47420   0.58165   0.00000  Uiso   1.00
C1428  C     0.79379   0.56388   0.93924   0.00000  Uiso   1.00
C1429  C     0.80012   0.58176   0.98035   0.00000  Uiso   1.00
C1430  C     0.82106   0.56063   0.50469   0.00000  Uiso   1.00
C1431  C     0.83000   0.51851   0.98908   0.00000  Uiso   1.00
C1432  C     0.82458   0.50220   0.94609   0.00000  Uiso   1.00
C1433  C     0.84624   0.49222   0.51315   0.00000  Uiso   1.00
C1434  C     0.86702   0.45750   0.99044   0.00000  Uiso   1.00
C1435  C     0.86026   0.44225   0.94880   0.00000  Uiso   1.00
C1436  C     0.83560   0.46199   0.92956   0.00000  Uiso   1.00
C1437  C     0.83904   0.49675   0.55970   0.00000  Uiso   1.00
C1438  C     0.88622   0.44548   0.55794   0.00000  Uiso   1.00
C1439  C     0.80914   0.52650   0.92010   0.00000  Uiso   1.00
H1440  H     0.81659   0.51667   0.57961   0.00000  Uiso   1.00
H1441  H     0.78000   0.58149   0.92005   0.00000  Uiso   1.00
H1442  H     0.82584   0.44510   0.90125   0.00000  Uiso   1.00
C1443  C     0.99277   0.51222   0.74010   0.00000  Uiso   1.00
C1444  C     0.67468   0.48811   0.76452   0.00000  Uiso   1.00
C1445  C     0.84490   0.65543   0.73653   0.00000  Uiso   1.00
H1446  H     0.86758   0.33553   0.70787   0.00000  Uiso   1.00
C1447  C     0.81858   0.34600   0.76606   0.00000  Uiso   1.00
C1448  C     0.98124   0.45320   0.79273   0.00000  Uiso   1.00
C1449  C     0.67284   0.42771   0.81390   0.00000  Uiso   1.00
C1450  C     0.97624   0.39488   0.84209   0.00000  Uiso   1.00
H1451  H     0.95220   0.40985   0.86907   0.00000  Uiso   1.00
H1452  H     0.95960   0.37240   0.82078   0.00000  Uiso   1.00
H1453  H     0.99490   0.37759   0.85763   0.00000  Uiso   1.00
H1454  H     0.69623   0.41150   0.78729   0.00000  Uiso   1.00
H1455  H     0.69023   0.44872   0.83574   0.00000  Uiso   1.00
H1456  H     0.95761   0.46744   0.82088   0.00000  Uiso   1.00
H1457  H     0.96455   0.43095   0.77119   0.00000  Uiso   1.00
N1458  N     0.79144   0.66567   0.80760   0.00000  Uiso   1.00
O1459  O     0.75259   0.34189   0.82022   0.00000  Uiso   1.00
O1460  O     0.80829   0.65383   0.83715   0.00000  Uiso   1.00
C1461  C     0.92083   0.40600   0.98697   0.00000  Uiso   1.00
C1462  C     0.89934   0.36104   0.98878   0.00000  Uiso   1.00
C1463  C     0.92946   0.66430   0.96052   0.00000  Uiso   1.00
H1464  H     0.93950   0.33903   0.92514   0.00000  Uiso   1.00
H1465  H     0.95811   0.66558   0.97376   0.00000  Uiso   1.00
H1466  H     0.91305   0.63202   0.96132   0.00000  Uiso   1.00
H1467  H     0.88987   0.35270   0.52408   0.00000  Uiso   1.00
H1468  H     0.87022   0.35781   0.97603   0.00000  Uiso   1.00
H1469  H     0.93398   0.41382   0.95172   0.00000  Uiso   1.00
H1470  H     0.94871   0.40912   0.50187   0.00000  Uiso   1.00
C1471  C     0.84121   0.58598   0.54017   0.00000  Uiso   1.00
C1472  C     0.80890   0.59701   0.58462   0.00000  Uiso   1.00
C1473  C     0.83061   0.60630   0.62321   0.00000  Uiso   1.00
H1474  H     0.84331   0.57816   0.62908   0.00000  Uiso   1.00
H1475  H     0.85712   0.63192   0.61566   0.00000  Uiso   1.00
H1476  H     0.80724   0.61602   0.65419   0.00000  Uiso   1.00
H1477  H     0.79443   0.62517   0.58235   0.00000  Uiso   1.00
H1478  H     0.78229   0.57162   0.59282   0.00000  Uiso   1.00
H1479  H     0.86709   0.57056   0.54616   0.00000  Uiso   1.00
H1480  H     0.85894   0.61514   0.52654   0.00000  Uiso   1.00
C1481  C     0.78672   0.62509   0.99443   0.00000  Uiso   1.00
C1482  C     0.73965   0.62248   0.52000   0.00000  Uiso   1.00
C1483  C     0.72633   0.66570   0.53650   0.00000  Uiso   1.00
H1484  H     0.74505   0.34798   0.56019   0.00000  Uiso   1.00
H1485  H     0.73150   0.35173   0.50782   0.00000  Uiso   1.00
H1486  H     0.69197   0.66287   0.55412   0.00000  Uiso   1.00
H1487  H     0.71948   0.60696   0.99764   0.00000  Uiso   1.00
H1488  H     0.73388   0.60366   0.54922   0.00000  Uiso   1.00
H1489  H     0.80694   0.64452   0.51418   0.00000  Uiso   1.00
H1490  H     0.79127   0.64242   0.96424   0.00000  Uiso   1.00
C1491  C     0.68787   0.54709   0.71364   0.00000  Uiso   1.00
C1492  C     0.68409   0.58894   0.74172   0.00000  Uiso   1.00
C1493  C     0.71663   0.62342   0.71928   0.00000  Uiso   1.00
H1494  H     0.74932   0.61701   0.71816   0.00000  Uiso   1.00
H1495  H     0.71378   0.62576   0.68475   0.00000  Uiso   1.00
H1496  H     0.71108   0.65368   0.73893   0.00000  Uiso   1.00
H1497  H     0.98483   0.59777   0.74659   0.00000  Uiso   1.00
H1498  H     0.68936   0.58617   0.77523   0.00000  Uiso   1.00
H1499  H     0.72177   0.54116   0.70276   0.00000  Uiso   1.00
H1500  H     0.67831   0.54888   0.68210   0.00000  Uiso   1.00
Zn1501 Zn    0.19338   0.80661   0.78734   0.00000  Uiso   1.00
Zn1502 Zn    0.13379   0.79124   0.71875   0.00000  Uiso   1.00
Zn1503 Zn    0.21056   0.86442   0.70657   0.00000  Uiso   1.00
Zn1504 Zn    0.12893   0.87106   0.78733   0.00000  Uiso   1.00
O1505  O     0.16667   0.83333   0.75000   0.00000  Uiso   1.00
O1506  O     0.07071   0.85544   0.78213   0.00000  Uiso   1.00
O1507  O     0.25491   0.81892   0.77013   0.00000  Uiso   1.00
O1508  O     0.13760   0.73610   0.73413   0.00000  Uiso   1.00
O1509  O     0.20345   0.92286   0.71360   0.00000  Uiso   1.00
O1510  O     0.15451   0.79304   0.65458   0.00000  Uiso   1.00
O1511  O     0.12940   0.87058   0.84968   0.00000  Uiso   1.00
O1512  O     0.20824   0.84425   0.64606   0.00000  Uiso   1.00
O1513  O     0.17451   0.82546   0.84968   0.00000  Uiso   1.00
O1514  O     0.17930   0.74686   0.78213   0.00000  Uiso   1.00
O1515  O     0.14632   0.92751   0.77013   0.00000  Uiso   1.00
O1516  O     0.07412   0.79958   0.73413   0.00000  Uiso   1.00
O1517  O     0.26693   0.85939   0.71360   0.00000  Uiso   1.00
C1518  C     0.05308   0.82594   0.76027   0.00000  Uiso   1.00
C1519  C     0.28067   0.84065   0.74069   0.00000  Uiso   1.00
C1520  C     0.15671   0.72275   0.75992   0.00000  Uiso   1.00
C1521  C     0.17636   0.94450   0.74046   0.00000  Uiso   1.00
C1522  C     0.18530   0.81474   0.62961   0.00000  Uiso   1.00
C1523  C     0.14779   0.85041   0.87121   0.00000  Uiso   1.00
C1524  C     0.22362   0.76979   0.51202   0.00000  Uiso   1.00
H1525  H     0.23635   0.76262   0.57543   0.00000  Uiso   1.00
H1526  H     0.20421   0.74651   0.93240   0.00000  Uiso   1.00
C1527  C     0.19254   0.80753   0.58165   0.00000  Uiso   1.00
C1528  C     0.12712   0.89721   0.93924   0.00000  Uiso   1.00
C1529  C     0.13345   0.91510   0.98035   0.00000  Uiso   1.00
C1530  C     0.15440   0.89396   0.50469   0.00000  Uiso   1.00
C1531  C     0.16333   0.85184   0.98908   0.00000  Uiso   1.00
C1532  C     0.15792   0.83554   0.94609   0.00000  Uiso   1.00
C1533  C     0.17958   0.82555   0.51315   0.00000  Uiso   1.00
C1534  C     0.20035   0.79084   0.99044   0.00000  Uiso   1.00
C1535  C     0.19359   0.77558   0.94880   0.00000  Uiso   1.00
C1536  C     0.16894   0.79533   0.92956   0.00000  Uiso   1.00
C1537  C     0.17237   0.83008   0.55970   0.00000  Uiso   1.00
C1538  C     0.21956   0.77882   0.55794   0.00000  Uiso   1.00
C1539  C     0.14247   0.85984   0.92010   0.00000  Uiso   1.00
H1540  H     0.14992   0.85000   0.57961   0.00000  Uiso   1.00
H1541  H     0.11333   0.91482   0.92005   0.00000  Uiso   1.00
H1542  H     0.15918   0.77843   0.90125   0.00000  Uiso   1.00
C1543  C     0.32610   0.84555   0.74010   0.00000  Uiso   1.00
C1544  C     0.00801   0.82145   0.76452   0.00000  Uiso   1.00
C1545  C     0.17823   0.98876   0.73653   0.00000  Uiso   1.00
H1546  H     0.20091   0.66886   0.70787   0.00000  Uiso   1.00
C1547  C     0.15192   0.67934   0.76606   0.00000  Uiso   1.00
C1548  C     0.31457   0.78653   0.79273   0.00000  Uiso   1.00
C1549  C     0.00618   0.76104   0.81390   0.00000  Uiso   1.00
C1550  C     0.30957   0.72821   0.84209   0.00000  Uiso   1.00
H1551  H     0.28553   0.74318   0.86907   0.00000  Uiso   1.00
H1552  H     0.29293   0.70573   0.82078   0.00000  Uiso   1.00
H1553  H     0.32823   0.71092   0.85763   0.00000  Uiso   1.00
H1554  H     0.02956   0.74483   0.78729   0.00000  Uiso   1.00
H1555  H     0.02356   0.78206   0.83574   0.00000  Uiso   1.00
H1556  H     0.29094   0.80077   0.82088   0.00000  Uiso   1.00
H1557  H     0.29789   0.76428   0.77119   0.00000  Uiso   1.00
N1558  N     0.12477   0.99900   0.80760   0.00000  Uiso   1.00
O1559  O     0.08592   0.67522   0.82022   0.00000  Uiso   1.00
O1560  O     0.14162   0.98716   0.83715   0.00000  Uiso   1.00
C1561  C     0.25417   0.73933   0.98697   0.00000  Uiso   1.00
C1562  C     0.23267   0.69437   0.98878   0.00000  Uiso   1.00
C1563  C     0.26279   0.99764   0.96052   0.00000  Uiso   1.00
H1564  H     0.27284   0.67236   0.92514   0.00000  Uiso   1.00
H1565  H     0.29144   0.99892   0.97376   0.00000  Uiso   1.00
H1566  H     0.24638   0.96535   0.96132   0.00000  Uiso   1.00
H1567  H     0.22321   0.68603   0.52408   0.00000  Uiso   1.00
H1568  H     0.20355   0.69114   0.97603   0.00000  Uiso   1.00
H1569  H     0.26731   0.74715   0.95172   0.00000  Uiso   1.00
H1570  H     0.28205   0.74245   0.50187   0.00000  Uiso   1.00
C1571  C     0.17455   0.91931   0.54017   0.00000  Uiso   1.00
C1572  C     0.14223   0.93034   0.58462   0.00000  Uiso   1.00
C1573  C     0.16394   0.93963   0.62321   0.00000  Uiso   1.00
H1574  H     0.17664   0.91149   0.62908   0.00000  Uiso   1.00
H1575  H     0.19045   0.96525   0.61566   0.00000  Uiso   1.00
H1576  H     0.14057   0.94935   0.65419   0.00000  Uiso   1.00
H1577  H     0.12776   0.95851   0.58235   0.00000  Uiso   1.00
H1578  H     0.11563   0.90495   0.59282   0.00000  Uiso   1.00
H1579  H     0.20042   0.90389   0.54616   0.00000  Uiso   1.00
H1580  H     0.19228   0.94848   0.52654   0.00000  Uiso   1.00
C1581  C     0.12005   0.95842   0.99443   0.00000  Uiso   1.00
C1582  C     0.07298   0.95582   0.52000   0.00000  Uiso   1.00
C1583  C     0.05967   0.99903   0.53650   0.00000  Uiso   1.00
H1584  H     0.07838   0.68132   0.56019   0.00000  Uiso   1.00
H1585  H     0.06483   0.68507   0.50782   0.00000  Uiso   1.00
H1586  H     0.02531   0.99620   0.55412   0.00000  Uiso   1.00
H1587  H     0.05281   0.94030   0.99764   0.00000  Uiso   1.00
H1588  H     0.06721   0.93699   0.54922   0.00000  Uiso   1.00
H1589  H     0.14027   0.97785   0.51418   0.00000  Uiso   1.00
H1590  H     0.12460   0.97576   0.96424   0.00000  Uiso   1.00
C1591  C     0.02121   0.88042   0.71364   0.00000  Uiso   1.00
C1592  C     0.01743   0.92228   0.74172   0.00000  Uiso   1.00
C1593  C     0.04996   0.95676   0.71928   0.00000  Uiso   1.00
H1594  H     0.08265   0.95034   0.71816   0.00000  Uiso   1.00
H1595  H     0.04712   0.95909   0.68475   0.00000  Uiso   1.00
H1596  H     0.04441   0.98701   0.73893   0.00000  Uiso   1.00
H1597  H     0.31817   0.93110   0.74659   0.00000  Uiso   1.00
H1598  H     0.02269   0.91951   0.77523   0.00000  Uiso   1.00
H1599  H     0.05510   0.87449   0.70276   0.00000  Uiso   1.00
H1600  H     0.01164   0.88222   0.68210   0.00000  Uiso   1.00
Zn1601 Zn    0.52672   0.80661   0.78734   0.00000  Uiso   1.00
Zn1602 Zn    0.46713   0.79124   0.71875   0.00000  Uiso   1.00
Zn1603 Zn    0.54389   0.86442   0.70657   0.00000  Uiso   1.00
Zn1604 Zn    0.46226   0.87106   0.78733   0.00000  Uiso   1.00
O1605  O     0.50000   0.83333   0.75000   0.00000  Uiso   1.00
O1606  O     0.40405   0.85544   0.78213   0.00000  Uiso   1.00
O1607  O     0.58824   0.81892   0.77013   0.00000  Uiso   1.00
O1608  O     0.47093   0.73610   0.73413   0.00000  Uiso   1.00
O1609  O     0.53678   0.92286   0.71360   0.00000  Uiso   1.00
O1610  O     0.48784   0.79304   0.65458   0.00000  Uiso   1.00
O1611  O     0.46274   0.87058   0.84968   0.00000  Uiso   1.00
O1612  O     0.54157   0.84425   0.64606   0.00000  Uiso   1.00
O1613  O     0.50785   0.82546   0.84968   0.00000  Uiso   1.00
O1614  O     0.51264   0.74686   0.78213   0.00000  Uiso   1.00
O1615  O     0.47965   0.92751   0.77013   0.00000  Uiso   1.00
O1616  O     0.40745   0.79958   0.73413   0.00000  Uiso   1.00
O1617  O     0.60026   0.85939   0.71360   0.00000  Uiso   1.00
C1618  C     0.38642   0.82594   0.76027   0.00000  Uiso   1.00
C1619  C     0.61400   0.84065   0.74069   0.00000  Uiso   1.00
C1620  C     0.49004   0.72275   0.75992   0.00000  Uiso   1.00
C1621  C     0.50970   0.94450   0.74046   0.00000  Uiso   1.00
C1622  C     0.51864   0.81474   0.62961   0.00000  Uiso   1.00
C1623  C     0.48112   0.85041   0.87121   0.00000  Uiso   1.00
C1624  C     0.55695   0.76979   0.51202   0.00000  Uiso   1.00
H1625  H     0.56969   0.76262   0.57543   0.00000  Uiso   1.00
H1626  H     0.53754   0.74651   0.93240   0.00000  Uiso   1.00
C1627  C     0.52588   0.80753   0.58165   0.00000  Uiso   1.00
C1628  C     0.46046   0.89721   0.93924   0.00000  Uiso   1.00
C1629  C     0.46679   0.91510   0.98035   0.00000  Uiso   1.00
C1630  C     0.48773   0.89396   0.50469   0.00000  Uiso   1.00
C1631  C     0.49667   0.85184   0.98908   0.00000  Uiso   1.00
C1632  C     0.49125   0.83554   0.94609   0.00000  Uiso   1.00
C1633  C     0.51291   0.82555   0.51315   0.00000  Uiso   1.00
C1634  C     0.53369   0.79084   0.99044   0.00000  Uiso   1.00
C1635  C     0.52693   0.77558   0.94880   0.00000  Uiso   1.00
C1636  C     0.50227   0.79533   0.92956   0.00000  Uiso   1.00
C1637  C     0.50570   0.83008   0.55970   0.00000  Uiso   1.00
C1638  C     0.55289   0.77882   0.55794   0.00000  Uiso   1.00
C1639  C     0.47581   0.85984   0.92010   0.00000  Uiso   1.00
H1640  H     0.48326   0.85000   0.57961   0.00000  Uiso   1.00
H1641  H     0.44667   0.91482   0.92005   0.00000  Uiso   1.00
H1642  H     0.49251   0.77843   0.90125   0.00000  Uiso   1.00
C1643  C     0.65944   0.84555   0.74010   0.00000  Uiso   1.00
C1644  C     0.34135   0.82145   0.76452   0.00000  Uiso   1.00
C1645  C     0.51157   0.98876   0.73653   0.00000  Uiso   1.00
H1646  H     0.53425   0.66886   0.70787   0.00000  Uiso   1.00
C1647  C     0.48525   0.67934   0.76606   0.00000  Uiso   1.00
C1648  C     0.64791   0.78653   0.79273   0.00000  Uiso   1.00
C1649  C     0.33951   0.76104   0.81390   0.00000  Uiso   1.00
C1650  C     0.64291   0.72821   0.84209   0.00000  Uiso   1.00
H1651  H     0.61886   0.74318   0.86907   0.00000  Uiso   1.00
H1652  H     0.62626   0.70573   0.82078   0.00000  Uiso   1.00
H1653  H     0.66156   0.71092   0.85763   0.00000  Uiso   1.00
H1654  H     0.36290   0.74483   0.78729   0.00000  Uiso   1.00
H1655  H     0.35689   0.78206   0.83574   0.00000  Uiso   1.00
H1656  H     0.62427   0.80077   0.82088   0.00000  Uiso   1.00
H1657  H     0.63122   0.76428   0.77119   0.00000  Uiso   1.00
N1658  N     0.45810   0.99900   0.80760   0.00000  Uiso   1.00
O1659  O     0.41925   0.67522   0.82022   0.00000  Uiso   1.00
O1660  O     0.47495   0.98716   0.83715   0.00000  Uiso   1.00
C1661  C     0.58750   0.73933   0.98697   0.00000  Uiso   1.00
C1662  C     0.56601   0.69437   0.98878   0.00000  Uiso   1.00
C1663  C     0.59613   0.99764   0.96052   0.00000  Uiso   1.00
H1664  H     0.60617   0.67236   0.92514   0.00000  Uiso   1.00
H1665  H     0.62478   0.99892   0.97376   0.00000  Uiso   1.00
H1666  H     0.57971   0.96535   0.96132   0.00000  Uiso   1.00
H1667  H     0.55654   0.68603   0.52408   0.00000  Uiso   1.00
H1668  H     0.53688   0.69114   0.97603   0.00000  Uiso   1.00
H1669  H     0.60065   0.74715   0.95172   0.00000  Uiso   1.00
H1670  H     0.61538   0.74245   0.50187   0.00000  Uiso   1.00
C1671  C     0.50788   0.91931   0.54017   0.00000  Uiso   1.00
C1672  C     0.47557   0.93034   0.58462   0.00000  Uiso   1.00
C1673  C     0.49727   0.93963   0.62321   0.00000  Uiso   1.00
H1674  H     0.50997   0.91149   0.62908   0.00000  Uiso   1.00
H1675  H     0.52379   0.96525   0.61566   0.00000  Uiso   1.00
H1676  H     0.47390   0.94935   0.65419   0.00000  Uiso   1.00
H1677  H     0.46110   0.95851   0.58235   0.00000  Uiso   1.00
H1678  H     0.44896   0.90495   0.59282   0.00000  Uiso   1.00
H1679  H     0.53375   0.90389   0.54616   0.00000  Uiso   1.00
H1680  H     0.52561   0.94848   0.52654   0.00000  Uiso   1.00
C1681  C     0.45338   0.95842   0.99443   0.00000  Uiso   1.00
C1682  C     0.40632   0.95582   0.52000   0.00000  Uiso   1.00
C1683  C     0.39300   0.99903   0.53650   0.00000  Uiso   1.00
H1684  H     0.41171   0.68132   0.56019   0.00000  Uiso   1.00
H1685  H     0.39817   0.68507   0.50782   0.00000  Uiso   1.00
H1686  H     0.35864   0.99620   0.55412   0.00000  Uiso   1.00
H1687  H     0.38614   0.94030   0.99764   0.00000  Uiso   1.00
H1688  H     0.40054   0.93699   0.54922   0.00000  Uiso   1.00
H1689  H     0.47361   0.97785   0.51418   0.00000  Uiso   1.00
H1690  H     0.45793   0.97576   0.96424   0.00000  Uiso   1.00
C1691  C     0.35454   0.88042   0.71364   0.00000  Uiso   1.00
C1692  C     0.35076   0.92228   0.74172   0.00000  Uiso   1.00
C1693  C     0.38330   0.95676   0.71928   0.00000  Uiso   1.00
H1694  H     0.41599   0.95034   0.71816   0.00000  Uiso   1.00
H1695  H     0.38045   0.95909   0.68475   0.00000  Uiso   1.00
H1696  H     0.37774   0.98701   0.73893   0.00000  Uiso   1.00
H1697  H     0.65150   0.93110   0.74659   0.00000  Uiso   1.00
H1698  H     0.35602   0.91951   0.77523   0.00000  Uiso   1.00
H1699  H     0.38844   0.87449   0.70276   0.00000  Uiso   1.00
H1700  H     0.34497   0.88222   0.68210   0.00000  Uiso   1.00
Zn1701 Zn    0.86005   0.80661   0.78734   0.00000  Uiso   1.00
Zn1702 Zn    0.80046   0.79124   0.71875   0.00000  Uiso   1.00
Zn1703 Zn    0.87723   0.86442   0.70657   0.00000  Uiso   1.00
Zn1704 Zn    0.79560   0.87106   0.78733   0.00000  Uiso   1.00
O1705  O     0.83333   0.83333   0.75000   0.00000  Uiso   1.00
O1706  O     0.73738   0.85544   0.78213   0.00000  Uiso   1.00
O1707  O     0.92158   0.81892   0.77013   0.00000  Uiso   1.00
O1708  O     0.80426   0.73610   0.73413   0.00000  Uiso   1.00
O1709  O     0.87012   0.92286   0.71360   0.00000  Uiso   1.00
O1710  O     0.82118   0.79304   0.65458   0.00000  Uiso   1.00
O1711  O     0.79607   0.87058   0.84968   0.00000  Uiso   1.00
O1712  O     0.87491   0.84425   0.64606   0.00000  Uiso   1.00
O1713  O     0.84118   0.82546   0.84968   0.00000  Uiso   1.00
O1714  O     0.84597   0.74686   0.78213   0.00000  Uiso   1.00
O1715  O     0.81298   0.92751   0.77013   0.00000  Uiso   1.00
O1716  O     0.74078   0.79958   0.73413   0.00000  Uiso   1.00
O1717  O     0.93360   0.85939   0.71360   0.00000  Uiso   1.00
C1718  C     0.71975   0.82594   0.76027   0.00000  Uiso   1.00
C1719  C     0.94733   0.84065   0.74069   0.00000  Uiso   1.00
C1720  C     0.82338   0.72275   0.75992   0.00000  Uiso   1.00
C1721  C     0.84303   0.94450   0.74046   0.00000  Uiso   1.00
C1722  C     0.85197   0.81474   0.62961   0.00000  Uiso   1.00
C1723  C     0.81446   0.85041   0.87121   0.00000  Uiso   1.00
C1724  C     0.89028   0.76979   0.51202   0.00000  Uiso   1.00
H1725  H     0.90302   0.76262   0.57543   0.00000  Uiso   1.00
H1726  H     0.87087   0.74651   0.93240   0.00000  Uiso   1.00
C1727  C     0.85921   0.80753   0.58165   0.00000  Uiso   1.00
C1728  C     0.79379   0.89721   0.93924   0.00000  Uiso   1.00
C1729  C     0.80012   0.91510   0.98035   0.00000  Uiso   1.00
C1730  C     0.82106   0.89396   0.50469   0.00000  Uiso   1.00
C1731  C     0.83000   0.85184   0.98908   0.00000  Uiso   1.00
C1732  C     0.82458   0.83554   0.94609   0.00000  Uiso   1.00
C1733  C     0.84624   0.82555   0.51315   0.00000  Uiso   1.00
C1734  C     0.86702   0.79084   0.99044   0.00000  Uiso   1.00
C1735  C     0.86026   0.77558   0.94880   0.00000  Uiso   1.00
C1736  C     0.83560   0.79533   0.92956   0.00000  Uiso   1.00
C1737  C     0.83904   0.83008   0.55970   0.00000  Uiso   1.00
C1738  C     0.88622   0.77882   0.55794   0.00000  Uiso   1.00
C1739  C     0.80914   0.85984   0.92010   0.00000  Uiso   1.00
H1740  H     0.81659   0.85000   0.57961   0.00000  Uiso   1.00
H1741  H     0.78000   0.91482   0.92005   0.00000  Uiso   1.00
H1742  H     0.82584   0.77843   0.90125   0.00000  Uiso   1.00
C1743  C     0.99277   0.84555   0.74010   0.00000  Uiso   1.00
C1744  C     0.67468   0.82145   0.76452   0.00000  Uiso   1.00
C1745  C     0.84490   0.98876   0.73653   0.00000  Uiso   1.00
H1746  H     0.86758   0.66886   0.70787   0.00000  Uiso   1.00
C1747  C     0.81858   0.67934   0.76606   0.00000  Uiso   1.00
C1748  C     0.98124   0.78653   0.79273   0.00000  Uiso   1.00
C1749  C     0.67284   0.76104   0.81390   0.00000  Uiso   1.00
C1750  C     0.97624   0.72821   0.84209   0.00000  Uiso   1.00
H1751  H     0.95220   0.74318   0.86907   0.00000  Uiso   1.00
H1752  H     0.95960   0.70573   0.82078   0.00000  Uiso   1.00
H1753  H     0.99490   0.71092   0.85763   0.00000  Uiso   1.00
H1754  H     0.69623   0.74483   0.78729   0.00000  Uiso   1.00
H1755  H     0.69023   0.78206   0.83574   0.00000  Uiso   1.00
H1756  H     0.95761   0.80077   0.82088   0.00000  Uiso   1.00
H1757  H     0.96455   0.76428   0.77119   0.00000  Uiso   1.00
N1758  N     0.79144   0.99900   0.80760   0.00000  Uiso   1.00
O1759  O     0.75259   0.67522   0.82022   0.00000  Uiso   1.00
O1760  O     0.80829   0.98716   0.83715   0.00000  Uiso   1.00
C1761  C     0.92083   0.73933   0.98697   0.00000  Uiso   1.00
C1762  C     0.89934   0.69437   0.98878   0.00000  Uiso   1.00
C1763  C     0.92946   0.99764   0.96052   0.00000  Uiso   1.00
H1764  H     0.93950   0.67236   0.92514   0.00000  Uiso   1.00
H1765  H     0.95811   0.99892   0.97376   0.00000  Uiso   1.00
H1766  H     0.91305   0.96535   0.96132   0.00000  Uiso   1.00
H1767  H     0.88987   0.68603   0.52408   0.00000  Uiso   1.00
H1768  H     0.87022   0.69114   0.97603   0.00000  Uiso   1.00
H1769  H     0.93398   0.74715   0.95172   0.00000  Uiso   1.00
H1770  H     0.94871   0.74245   0.50187   0.00000  Uiso   1.00
C1771  C     0.84121   0.91931   0.54017   0.00000  Uiso   1.00
C1772  C     0.80890   0.93034   0.58462   0.00000  Uiso   1.00
C1773  C     0.83061   0.93963   0.62321   0.00000  Uiso   1.00
H1774  H     0.84331   0.91149   0.62908   0.00000  Uiso   1.00
H1775  H     0.85712   0.96525   0.61566   0.00000  Uiso   1.00
H1776  H     0.80724   0.94935   0.65419   0.00000  Uiso   1.00
H1777  H     0.79443   0.95851   0.58235   0.00000  Uiso   1.00
H1778  H     0.78229   0.90495   0.59282   0.00000  Uiso   1.00
H1779  H     0.86709   0.90389   0.54616   0.00000  Uiso   1.00
H1780  H     0.85894   0.94848   0.52654   0.00000  Uiso   1.00
C1781  C     0.78672   0.95842   0.99443   0.00000  Uiso   1.00
C1782  C     0.73965   0.95582   0.52000   0.00000  Uiso   1.00
C1783  C     0.72633   0.99903   0.53650   0.00000  Uiso   1.00
H1784  H     0.74505   0.68132   0.56019   0.00000  Uiso   1.00
H1785  H     0.73150   0.68507   0.50782   0.00000  Uiso   1.00
H1786  H     0.69197   0.99620   0.55412   0.00000  Uiso   1.00
H1787  H     0.71948   0.94030   0.99764   0.00000  Uiso   1.00
H1788  H     0.73388   0.93699   0.54922   0.00000  Uiso   1.00
H1789  H     0.80694   0.97785   0.51418   0.00000  Uiso   1.00
H1790  H     0.79127   0.97576   0.96424   0.00000  Uiso   1.00
C1791  C     0.68787   0.88042   0.71364   0.00000  Uiso   1.00
C1792  C     0.68409   0.92228   0.74172   0.00000  Uiso   1.00
C1793  C     0.71663   0.95676   0.71928   0.00000  Uiso   1.00
H1794  H     0.74932   0.95034   0.71816   0.00000  Uiso   1.00
H1795  H     0.71378   0.95909   0.68475   0.00000  Uiso   1.00
H1796  H     0.71108   0.98701   0.73893   0.00000  Uiso   1.00
H1797  H     0.98483   0.93110   0.74659   0.00000  Uiso   1.00
H1798  H     0.68936   0.91951   0.77523   0.00000  Uiso   1.00
H1799  H     0.72177   0.87449   0.70276   0.00000  Uiso   1.00
H1800  H     0.67831   0.88222   0.68210   0.00000  Uiso   1.00
loop_
_geom_bond_atom_site_label_1
_geom_bond_atom_site_label_2
_geom_bond_distance
_geom_bond_site_symmetry_2
_ccdc_geom_bond_type
Zn1    O5      1.957   .     S
Zn1    O13     1.929   .     S
Zn1    O7      1.938   .     S
Zn1    O14     1.932   .     S
Zn2    O16     1.937   .     S
Zn2    O5      1.949   .     S
Zn2    O10     1.934   .     S
Zn2    O8      1.937   .     S
Zn3    O12     1.935   .     S
Zn3    O9      1.931   .     S
Zn3    O5      1.946   .     S
Zn3    O17     1.944   .     S
Zn4    O6      1.943   .     S
Zn4    O11     1.940   .     S
Zn4    O5      1.935   .     S
Zn4    O15     1.936   .     S
O6     C18     1.271   .     A
O7     C19     1.273   .     A
O8     C20     1.279   .     A
O9     C21     1.280   .     A
O10    C22     1.276   .     A
O11    C23     1.288   .     A
O12    C22     1.277   .     A
O13    C23     1.284   .     A
O14    C20     1.271   .     A
O15    C21     1.268   .     A
O16    C18     1.261   .     A
O17    C19     1.292   .     A
C18    C44     1.433   .     S
C19    C43     1.468   .     S
C20    C47     1.428   .     S
C21    C45     1.451   .     S
C22    C27     1.442   .     S
C23    C39     1.483   .     S
C24    C38     1.398   .     A
C24    C934    1.419   1_554 S
C24    C961    1.514   1_554 S
H25    C38     1.084   .     S
H26    C35     1.081   .     S
C27    C38     1.393   .     A
C27    C37     1.386   .     A
C28    C29     1.395   .     A
C28    H41     1.084   .     S
C28    C39     1.394   .     A
C29    C81     1.520   .     S
C29    C930    1.426   .     S
C30    C71     1.532   .     S
C30    C929    1.426   1_554 S
C30    C931    1.446   1_554 S
C31    C32     1.425   .     A
C31    C930    1.446   .     S
C31    C933    1.432   .     S
C32    C36     1.412   .     A
C32    C39     1.414   .     A
C33    C37     1.396   .     A
C33    C931    1.432   1_554 S
C33    C934    1.424   1_554 S
C34    C35     1.392   .     A
C34    C933    1.424   .     S
C34    C924    1.419   .     S
C35    C36     1.380   .     A
C36    H42     1.079   .     S
C37    H40     1.073   .     S
C43    C144    1.371   .     S
C43    C191    1.529   .     S
C44    C243    1.371   1_455 S
C44    C248    1.538   1_455 S
C45    H346    1.088   .     S
C45    C347    1.345   .     S
H46    C645    1.088   1_545 S
C47    C645    1.345   1_545 S
C47    N658    1.438   1_545 S
C48    H57     1.112   .     S
C48    H56     1.112   .     S
C48    C144    1.538   .     S
C48    C149    1.542   .     S
C49    H54     1.111   .     S
C49    H55     1.112   .     S
C49    C248    1.542   1_455 S
C49    C250    1.527   1_455 S
C50    H52     1.111   .     S
C50    H53     1.110   .     S
C50    H51     1.110   .     S
C50    C149    1.527   .     S
N58    O60     1.302   .     A
N58    C347    1.438   .     S
N58    O359    1.301   .     S
O59    N658    1.301   1_545 S
C61    H69     1.110   .     S
C61    C62     1.531   .     S
C61    C924    1.514   .     S
C61    H970    1.113   .     S
C62    H68     1.110   .     S
C62    C663    1.527   1_545 S
C62    H967    1.111   .     S
C63    H65     1.111   .     S
C63    H66     1.110   .     S
C63    C362    1.527   .     S
C63    H364    1.111   .     S
H64    C663    1.111   1_545 S
H67    C962    1.111   1_554 S
H70    C961    1.113   1_554 S
C71    H79     1.107   .     S
C71    H80     1.105   .     S
C71    C72     1.545   .     S
C72    H78     1.110   .     S
C72    C73     1.526   .     S
C72    H77     1.107   .     S
C73    H74     1.109   .     S
C73    H75     1.111   .     S
C73    H76     1.108   .     S
C81    H90     1.113   .     S
C81    C982    1.533   .     S
C81    H989    1.104   .     S
C82    H88     1.111   .     S
C82    C83     1.526   .     S
C82    C981    1.533   1_554 S
C82    H987    1.112   1_554 S
C83    H86     1.111   .     S
C83    H384    1.111   .     S
C83    H385    1.111   .     S
H84    C683    1.111   1_545 S
H85    C683    1.111   1_545 S
H87    C982    1.112   .     S
H89    C981    1.104   1_554 S
C91    H100    1.112   .     S
C91    C92     1.535   .     S
C91    H99     1.110   .     S
C91    C243    1.529   1_455 S
C92    H98     1.112   .     S
C92    C93     1.525   .     S
C92    H297    1.112   1_455 S
C93    H94     1.110   .     S
C93    H95     1.111   .     S
C93    H96     1.111   .     S
H97    C192    1.112   .     S
Zn101  O105    1.957   .     S
Zn101  O113    1.929   .     S
Zn101  O107    1.938   .     S
Zn101  O114    1.932   .     S
Zn102  O116    1.937   .     S
Zn102  O105    1.949   .     S
Zn102  O110    1.934   .     S
Zn102  O108    1.937   .     S
Zn103  O112    1.935   .     S
Zn103  O109    1.931   .     S
Zn103  O105    1.946   .     S
Zn103  O117    1.944   .     S
Zn104  O106    1.943   .     S
Zn104  O111    1.940   .     S
Zn104  O105    1.935   .     S
Zn104  O115    1.936   .     S
O106   C118    1.271   .     A
O107   C119    1.273   .     A
O108   C120    1.279   .     A
O109   C121    1.280   .     A
O110   C122    1.276   .     A
O111   C123    1.288   .     A
O112   C122    1.277   .     A
O113   C123    1.284   .     A
O114   C120    1.271   .     A
O115   C121    1.268   .     A
O116   C118    1.261   .     A
O117   C119    1.292   .     A
C118   C144    1.433   .     S
C119   C143    1.468   .     S
C120   C147    1.428   .     S
C121   C145    1.451   .     S
C122   C127    1.442   .     S
C123   C139    1.483   .     S
C124   C138    1.398   .     A
C124   C1034   1.419   1_554 S
C124   C1061   1.514   1_554 S
H125   C138    1.084   .     S
H126   C135    1.081   .     S
C127   C138    1.393   .     A
C127   C137    1.386   .     A
C128   C129    1.395   .     A
C128   H141    1.084   .     S
C128   C139    1.394   .     A
C129   C181    1.520   .     S
C129   C1030   1.426   .     S
C130   C171    1.532   .     S
C130   C1029   1.426   1_554 S
C130   C1031   1.446   1_554 S
C131   C132    1.425   .     A
C131   C1030   1.446   .     S
C131   C1033   1.432   .     S
C132   C136    1.412   .     A
C132   C139    1.414   .     A
C133   C137    1.396   .     A
C133   C1031   1.432   1_554 S
C133   C1034   1.424   1_554 S
C134   C135    1.392   .     A
C134   C1033   1.424   .     S
C134   C1024   1.419   .     S
C135   C136    1.380   .     A
C136   H142    1.079   .     S
C137   H140    1.073   .     S
C143   C244    1.371   .     S
C143   C291    1.529   .     S
C145   H446    1.088   .     S
C145   C447    1.345   .     S
H146   C745    1.088   1_545 S
C147   C745    1.345   1_545 S
C147   N758    1.438   1_545 S
C148   H157    1.112   .     S
C148   H156    1.112   .     S
C148   C244    1.538   .     S
C148   C249    1.542   .     S
C149   H154    1.111   .     S
C149   H155    1.112   .     S
C150   H152    1.111   .     S
C150   H153    1.110   .     S
C150   H151    1.110   .     S
C150   C249    1.527   .     S
N158   O160    1.302   .     A
N158   C447    1.438   .     S
N158   O459    1.301   .     S
O159   N758    1.301   1_545 S
C161   H169    1.110   .     S
C161   C162    1.531   .     S
C161   C1024   1.514   .     S
C161   H1070   1.113   .     S
C162   H168    1.110   .     S
C162   C763    1.527   1_545 S
C162   H1067   1.111   .     S
C163   H165    1.111   .     S
C163   H166    1.110   .     S
C163   C462    1.527   .     S
C163   H464    1.111   .     S
H164   C763    1.111   1_545 S
H167   C1062   1.111   1_554 S
H170   C1061   1.113   1_554 S
C171   H179    1.107   .     S
C171   H180    1.105   .     S
C171   C172    1.545   .     S
C172   H178    1.110   .     S
C172   C173    1.526   .     S
C172   H177    1.107   .     S
C173   H174    1.109   .     S
C173   H175    1.111   .     S
C173   H176    1.108   .     S
C181   H190    1.113   .     S
C181   C1082   1.533   .     S
C181   H1089   1.104   .     S
C182   H188    1.111   .     S
C182   C183    1.526   .     S
C182   C1081   1.533   1_554 S
C182   H1087   1.112   1_554 S
C183   H186    1.111   .     S
C183   H484    1.111   .     S
C183   H485    1.111   .     S
H184   C783    1.111   1_545 S
H185   C783    1.111   1_545 S
H187   C1082   1.112   .     S
H189   C1081   1.104   1_554 S
C191   H200    1.112   .     S
C191   C192    1.535   .     S
C191   H199    1.110   .     S
C192   H198    1.112   .     S
C192   C193    1.525   .     S
C193   H194    1.110   .     S
C193   H195    1.111   .     S
C193   H196    1.111   .     S
H197   C292    1.112   .     S
Zn201  O205    1.957   .     S
Zn201  O213    1.929   .     S
Zn201  O207    1.938   .     S
Zn201  O214    1.932   .     S
Zn202  O216    1.937   .     S
Zn202  O205    1.949   .     S
Zn202  O210    1.934   .     S
Zn202  O208    1.937   .     S
Zn203  O212    1.935   .     S
Zn203  O209    1.931   .     S
Zn203  O205    1.946   .     S
Zn203  O217    1.944   .     S
Zn204  O206    1.943   .     S
Zn204  O211    1.940   .     S
Zn204  O205    1.935   .     S
Zn204  O215    1.936   .     S
O206   C218    1.271   .     A
O207   C219    1.273   .     A
O208   C220    1.279   .     A
O209   C221    1.280   .     A
O210   C222    1.276   .     A
O211   C223    1.288   .     A
O212   C222    1.277   .     A
O213   C223    1.284   .     A
O214   C220    1.271   .     A
O215   C221    1.268   .     A
O216   C218    1.261   .     A
O217   C219    1.292   .     A
C218   C244    1.433   .     S
C219   C243    1.468   .     S
C220   C247    1.428   .     S
C221   C245    1.451   .     S
C222   C227    1.442   .     S
C223   C239    1.483   .     S
C224   C238    1.398   .     A
C224   C1134   1.419   1_554 S
C224   C1161   1.514   1_554 S
H225   C238    1.084   .     S
H226   C235    1.081   .     S
C227   C238    1.393   .     A
C227   C237    1.386   .     A
C228   C229    1.395   .     A
C228   H241    1.084   .     S
C228   C239    1.394   .     A
C229   C281    1.520   .     S
C229   C1130   1.426   .     S
C230   C271    1.532   .     S
C230   C1129   1.426   1_554 S
C230   C1131   1.446   1_554 S
C231   C232    1.425   .     A
C231   C1130   1.446   .     S
C231   C1133   1.432   .     S
C232   C236    1.412   .     A
C232   C239    1.414   .     A
C233   C237    1.396   .     A
C233   C1131   1.432   1_554 S
C233   C1134   1.424   1_554 S
C234   C235    1.392   .     A
C234   C1133   1.424   .     S
C234   C1124   1.419   .     S
C235   C236    1.380   .     A
C236   H242    1.079   .     S
C237   H240    1.073   .     S
C243   C44     1.371   1_655 S
C243   C91     1.529   1_655 S
C245   H546    1.088   .     S
C245   C547    1.345   .     S
H246   C845    1.088   1_545 S
C247   C845    1.345   1_545 S
C247   N858    1.438   1_545 S
C248   H257    1.112   .     S
C248   H256    1.112   .     S
C248   C44     1.538   1_655 S
C248   C49     1.542   1_655 S
C249   H254    1.111   .     S
C249   H255    1.112   .     S
C250   H252    1.111   .     S
C250   H253    1.110   .     S
C250   H251    1.110   .     S
C250   C49     1.527   1_655 S
N258   O260    1.302   .     A
N258   C547    1.438   .     S
N258   O559    1.301   .     S
O259   N858    1.301   1_545 S
C261   H269    1.110   .     S
C261   C262    1.531   .     S
C261   C1124   1.514   .     S
C261   H1170   1.113   .     S
C262   H268    1.110   .     S
C262   C863    1.527   1_545 S
C262   H1167   1.111   .     S
C263   H265    1.111   .     S
C263   H266    1.110   .     S
C263   C562    1.527   .     S
C263   H564    1.111   .     S
H264   C863    1.111   1_545 S
H267   C1162   1.111   1_554 S
H270   C1161   1.113   1_554 S
C271   H279    1.107   .     S
C271   H280    1.105   .     S
C271   C272    1.545   .     S
C272   H278    1.110   .     S
C272   C273    1.526   .     S
C272   H277    1.107   .     S
C273   H274    1.109   .     S
C273   H275    1.111   .     S
C273   H276    1.108   .     S
C281   H290    1.113   .     S
C281   C1182   1.533   .     S
C281   H1189   1.104   .     S
C282   H288    1.111   .     S
C282   C283    1.526   .     S
C282   C1181   1.533   1_554 S
C282   H1187   1.112   1_554 S
C283   H286    1.111   .     S
C283   H584    1.111   .     S
C283   H585    1.111   .     S
H284   C883    1.111   1_545 S
H285   C883    1.111   1_545 S
H287   C1182   1.112   .     S
H289   C1181   1.104   1_554 S
C291   H300    1.112   .     S
C291   C292    1.535   .     S
C291   H299    1.110   .     S
C292   H298    1.112   .     S
C292   C293    1.525   .     S
C293   H294    1.110   .     S
C293   H295    1.111   .     S
C293   H296    1.111   .     S
H297   C92     1.112   1_655 S
Zn301  O305    1.957   .     S
Zn301  O313    1.929   .     S
Zn301  O307    1.938   .     S
Zn301  O314    1.932   .     S
Zn302  O316    1.937   .     S
Zn302  O305    1.949   .     S
Zn302  O310    1.934   .     S
Zn302  O308    1.937   .     S
Zn303  O312    1.935   .     S
Zn303  O309    1.931   .     S
Zn303  O305    1.946   .     S
Zn303  O317    1.944   .     S
Zn304  O306    1.943   .     S
Zn304  O311    1.940   .     S
Zn304  O305    1.935   .     S
Zn304  O315    1.936   .     S
O306   C318    1.271   .     A
O307   C319    1.273   .     A
O308   C320    1.279   .     A
O309   C321    1.280   .     A
O310   C322    1.276   .     A
O311   C323    1.288   .     A
O312   C322    1.277   .     A
O313   C323    1.284   .     A
O314   C320    1.271   .     A
O315   C321    1.268   .     A
O316   C318    1.261   .     A
O317   C319    1.292   .     A
C318   C344    1.433   .     S
C319   C343    1.468   .     S
C320   C347    1.428   .     S
C321   C345    1.451   .     S
C322   C327    1.442   .     S
C323   C339    1.483   .     S
C324   C338    1.398   .     A
C324   C1234   1.419   1_554 S
C324   C1261   1.514   1_554 S
H325   C338    1.084   .     S
H326   C335    1.081   .     S
C327   C338    1.393   .     A
C327   C337    1.386   .     A
C328   C329    1.395   .     A
C328   H341    1.084   .     S
C328   C339    1.394   .     A
C329   C381    1.520   .     S
C329   C1230   1.426   .     S
C330   C371    1.532   .     S
C330   C1229   1.426   1_554 S
C330   C1231   1.446   1_554 S
C331   C332    1.425   .     A
C331   C1230   1.446   .     S
C331   C1233   1.432   .     S
C332   C336    1.412   .     A
C332   C339    1.414   .     A
C333   C337    1.396   .     A
C333   C1231   1.432   1_554 S
C333   C1234   1.424   1_554 S
C334   C335    1.392   .     A
C334   C1233   1.424   .     S
C334   C1224   1.419   .     S
C335   C336    1.380   .     A
C336   H342    1.079   .     S
C337   H340    1.073   .     S
C343   C444    1.371   .     S
C343   C491    1.529   .     S
C344   C543    1.371   1_455 S
C344   C548    1.538   1_455 S
C345   H646    1.088   .     S
C345   C647    1.345   .     S
C348   H357    1.112   .     S
C348   H356    1.112   .     S
C348   C444    1.538   .     S
C348   C449    1.542   .     S
C349   H354    1.111   .     S
C349   H355    1.112   .     S
C349   C548    1.542   1_455 S
C349   C550    1.527   1_455 S
C350   H352    1.111   .     S
C350   H353    1.110   .     S
C350   H351    1.110   .     S
C350   C449    1.527   .     S
N358   O360    1.302   .     A
N358   C647    1.438   .     S
N358   O659    1.301   .     S
C361   H369    1.110   .     S
C361   C362    1.531   .     S
C361   C1224   1.514   .     S
C361   H1270   1.113   .     S
C362   H368    1.110   .     S
C362   H1267   1.111   .     S
C363   H365    1.111   .     S
C363   H366    1.110   .     S
C363   C662    1.527   .     S
C363   H664    1.111   .     S
H367   C1262   1.111   1_554 S
H370   C1261   1.113   1_554 S
C371   H379    1.107   .     S
C371   H380    1.105   .     S
C371   C372    1.545   .     S
C372   H378    1.110   .     S
C372   C373    1.526   .     S
C372   H377    1.107   .     S
C373   H374    1.109   .     S
C373   H375    1.111   .     S
C373   H376    1.108   .     S
C381   H390    1.113   .     S
C381   C1282   1.533   .     S
C381   H1289   1.104   .     S
C382   H388    1.111   .     S
C382   C383    1.526   .     S
C382   C1281   1.533   1_554 S
C382   H1287   1.112   1_554 S
C383   H386    1.111   .     S
C383   H684    1.111   .     S
C383   H685    1.111   .     S
H387   C1282   1.112   .     S
H389   C1281   1.104   1_554 S
C391   H400    1.112   .     S
C391   C392    1.535   .     S
C391   H399    1.110   .     S
C391   C543    1.529   1_455 S
C392   H398    1.112   .     S
C392   C393    1.525   .     S
C392   H597    1.112   1_455 S
C393   H394    1.110   .     S
C393   H395    1.111   .     S
C393   H396    1.111   .     S
H397   C492    1.112   .     S
Zn401  O405    1.957   .     S
Zn401  O413    1.929   .     S
Zn401  O407    1.938   .     S
Zn401  O414    1.932   .     S
Zn402  O416    1.937   .     S
Zn402  O405    1.949   .     S
Zn402  O410    1.934   .     S
Zn402  O408    1.937   .     S
Zn403  O412    1.935   .     S
Zn403  O409    1.931   .     S
Zn403  O405    1.946   .     S
Zn403  O417    1.944   .     S
Zn404  O406    1.943   .     S
Zn404  O411    1.940   .     S
Zn404  O405    1.935   .     S
Zn404  O415    1.936   .     S
O406   C418    1.271   .     A
O407   C419    1.273   .     A
O408   C420    1.279   .     A
O409   C421    1.280   .     A
O410   C422    1.276   .     A
O411   C423    1.288   .     A
O412   C422    1.277   .     A
O413   C423    1.284   .     A
O414   C420    1.271   .     A
O415   C421    1.268   .     A
O416   C418    1.261   .     A
O417   C419    1.292   .     A
C418   C444    1.433   .     S
C419   C443    1.468   .     S
C420   C447    1.428   .     S
C421   C445    1.451   .     S
C422   C427    1.442   .     S
C423   C439    1.483   .     S
C424   C438    1.398   .     A
C424   C1334   1.419   1_554 S
C424   C1361   1.514   1_554 S
H425   C438    1.084   .     S
H426   C435    1.081   .     S
C427   C438    1.393   .     A
C427   C437    1.386   .     A
C428   C429    1.395   .     A
C428   H441    1.084   .     S
C428   C439    1.394   .     A
C429   C481    1.520   .     S
C429   C1330   1.426   .     S
C430   C471    1.532   .     S
C430   C1329   1.426   1_554 S
C430   C1331   1.446   1_554 S
C431   C432    1.425   .     A
C431   C1330   1.446   .     S
C431   C1333   1.432   .     S
C432   C436    1.412   .     A
C432   C439    1.414   .     A
C433   C437    1.396   .     A
C433   C1331   1.432   1_554 S
C433   C1334   1.424   1_554 S
C434   C435    1.392   .     A
C434   C1333   1.424   .     S
C434   C1324   1.419   .     S
C435   C436    1.380   .     A
C436   H442    1.079   .     S
C437   H440    1.073   .     S
C443   C544    1.371   .     S
C443   C591    1.529   .     S
C445   H746    1.088   .     S
C445   C747    1.345   .     S
C448   H457    1.112   .     S
C448   H456    1.112   .     S
C448   C544    1.538   .     S
C448   C549    1.542   .     S
C449   H454    1.111   .     S
C449   H455    1.112   .     S
C450   H452    1.111   .     S
C450   H453    1.110   .     S
C450   H451    1.110   .     S
C450   C549    1.527   .     S
N458   O460    1.302   .     A
N458   C747    1.438   .     S
N458   O759    1.301   .     S
C461   H469    1.110   .     S
C461   C462    1.531   .     S
C461   C1324   1.514   .     S
C461   H1370   1.113   .     S
C462   H468    1.110   .     S
C462   H1367   1.111   .     S
C463   H465    1.111   .     S
C463   H466    1.110   .     S
C463   C762    1.527   .     S
C463   H764    1.111   .     S
H467   C1362   1.111   1_554 S
H470   C1361   1.113   1_554 S
C471   H479    1.107   .     S
C471   H480    1.105   .     S
C471   C472    1.545   .     S
C472   H478    1.110   .     S
C472   C473    1.526   .     S
C472   H477    1.107   .     S
C473   H474    1.109   .     S
C473   H475    1.111   .     S
C473   H476    1.108   .     S
C481   H490    1.113   .     S
C481   C1382   1.533   .     S
C481   H1389   1.104   .     S
C482   H488    1.111   .     S
C482   C483    1.526   .     S
C482   C1381   1.533   1_554 S
C482   H1387   1.112   1_554 S
C483   H486    1.111   .     S
C483   H784    1.111   .     S
C483   H785    1.111   .     S
H487   C1382   1.112   .     S
H489   C1381   1.104   1_554 S
C491   H500    1.112   .     S
C491   C492    1.535   .     S
C491   H499    1.110   .     S
C492   H498    1.112   .     S
C492   C493    1.525   .     S
C493   H494    1.110   .     S
C493   H495    1.111   .     S
C493   H496    1.111   .     S
H497   C592    1.112   .     S
Zn501  O505    1.957   .     S
Zn501  O513    1.929   .     S
Zn501  O507    1.938   .     S
Zn501  O514    1.932   .     S
Zn502  O516    1.937   .     S
Zn502  O505    1.949   .     S
Zn502  O510    1.934   .     S
Zn502  O508    1.937   .     S
Zn503  O512    1.935   .     S
Zn503  O509    1.931   .     S
Zn503  O505    1.946   .     S
Zn503  O517    1.944   .     S
Zn504  O506    1.943   .     S
Zn504  O511    1.940   .     S
Zn504  O505    1.935   .     S
Zn504  O515    1.936   .     S
O506   C518    1.271   .     A
O507   C519    1.273   .     A
O508   C520    1.279   .     A
O509   C521    1.280   .     A
O510   C522    1.276   .     A
O511   C523    1.288   .     A
O512   C522    1.277   .     A
O513   C523    1.284   .     A
O514   C520    1.271   .     A
O515   C521    1.268   .     A
O516   C518    1.261   .     A
O517   C519    1.292   .     A
C518   C544    1.433   .     S
C519   C543    1.468   .     S
C520   C547    1.428   .     S
C521   C545    1.451   .     S
C522   C527    1.442   .     S
C523   C539    1.483   .     S
C524   C538    1.398   .     A
C524   C1434   1.419   1_554 S
C524   C1461   1.514   1_554 S
H525   C538    1.084   .     S
H526   C535    1.081   .     S
C527   C538    1.393   .     A
C527   C537    1.386   .     A
C528   C529    1.395   .     A
C528   H541    1.084   .     S
C528   C539    1.394   .     A
C529   C581    1.520   .     S
C529   C1430   1.426   .     S
C530   C571    1.532   .     S
C530   C1429   1.426   1_554 S
C530   C1431   1.446   1_554 S
C531   C532    1.425   .     A
C531   C1430   1.446   .     S
C531   C1433   1.432   .     S
C532   C536    1.412   .     A
C532   C539    1.414   .     A
C533   C537    1.396   .     A
C533   C1431   1.432   1_554 S
C533   C1434   1.424   1_554 S
C534   C535    1.392   .     A
C534   C1433   1.424   .     S
C534   C1424   1.419   .     S
C535   C536    1.380   .     A
C536   H542    1.079   .     S
C537   H540    1.073   .     S
C543   C344    1.371   1_655 S
C543   C391    1.529   1_655 S
C545   H846    1.088   .     S
C545   C847    1.345   .     S
C548   H557    1.112   .     S
C548   H556    1.112   .     S
C548   C344    1.538   1_655 S
C548   C349    1.542   1_655 S
C549   H554    1.111   .     S
C549   H555    1.112   .     S
C550   H552    1.111   .     S
C550   H553    1.110   .     S
C550   H551    1.110   .     S
C550   C349    1.527   1_655 S
N558   O560    1.302   .     A
N558   C847    1.438   .     S
N558   O859    1.301   .     S
C561   H569    1.110   .     S
C561   C562    1.531   .     S
C561   C1424   1.514   .     S
C561   H1470   1.113   .     S
C562   H568    1.110   .     S
C562   H1467   1.111   .     S
C563   H565    1.111   .     S
C563   H566    1.110   .     S
C563   C862    1.527   .     S
C563   H864    1.111   .     S
H567   C1462   1.111   1_554 S
H570   C1461   1.113   1_554 S
C571   H579    1.107   .     S
C571   H580    1.105   .     S
C571   C572    1.545   .     S
C572   H578    1.110   .     S
C572   C573    1.526   .     S
C572   H577    1.107   .     S
C573   H574    1.109   .     S
C573   H575    1.111   .     S
C573   H576    1.108   .     S
C581   H590    1.113   .     S
C581   C1482   1.533   .     S
C581   H1489   1.104   .     S
C582   H588    1.111   .     S
C582   C583    1.526   .     S
C582   C1481   1.533   1_554 S
C582   H1487   1.112   1_554 S
C583   H586    1.111   .     S
C583   H884    1.111   .     S
C583   H885    1.111   .     S
H587   C1482   1.112   .     S
H589   C1481   1.104   1_554 S
C591   H600    1.112   .     S
C591   C592    1.535   .     S
C591   H599    1.110   .     S
C592   H598    1.112   .     S
C592   C593    1.525   .     S
C593   H594    1.110   .     S
C593   H595    1.111   .     S
C593   H596    1.111   .     S
H597   C392    1.112   1_655 S
Zn601  O605    1.957   .     S
Zn601  O613    1.929   .     S
Zn601  O607    1.938   .     S
Zn601  O614    1.932   .     S
Zn602  O616    1.937   .     S
Zn602  O605    1.949   .     S
Zn602  O610    1.934   .     S
Zn602  O608    1.937   .     S
Zn603  O612    1.935   .     S
Zn603  O609    1.931   .     S
Zn603  O605    1.946   .     S
Zn603  O617    1.944   .     S
Zn604  O606    1.943   .     S
Zn604  O611    1.940   .     S
Zn604  O605    1.935   .     S
Zn604  O615    1.936   .     S
O606   C618    1.271   .     A
O607   C619    1.273   .     A
O608   C620    1.279   .     A
O609   C621    1.280   .     A
O610   C622    1.276   .     A
O611   C623    1.288   .     A
O612   C622    1.277   .     A
O613   C623    1.284   .     A
O614   C620    1.271   .     A
O615   C621    1.268   .     A
O616   C618    1.261   .     A
O617   C619    1.292   .     A
C618   C644    1.433   .     S
C619   C643    1.468   .     S
C620   C647    1.428   .     S
C621   C645    1.451   .     S
C622   C627    1.442   .     S
C623   C639    1.483   .     S
C624   C638    1.398   .     A
C624   C1534   1.419   1_554 S
C624   C1561   1.514   1_554 S
H625   C638    1.084   .     S
H626   C635    1.081   .     S
C627   C638    1.393   .     A
C627   C637    1.386   .     A
C628   C629    1.395   .     A
C628   H641    1.084   .     S
C628   C639    1.394   .     A
C629   C681    1.520   .     S
C629   C1530   1.426   .     S
C630   C671    1.532   .     S
C630   C1529   1.426   1_554 S
C630   C1531   1.446   1_554 S
C631   C632    1.425   .     A
C631   C1530   1.446   .     S
C631   C1533   1.432   .     S
C632   C636    1.412   .     A
C632   C639    1.414   .     A
C633   C637    1.396   .     A
C633   C1531   1.432   1_554 S
C633   C1534   1.424   1_554 S
C634   C635    1.392   .     A
C634   C1533   1.424   .     S
C634   C1524   1.419   .     S
C635   C636    1.380   .     A
C636   H642    1.079   .     S
C637   H640    1.073   .     S
C643   C744    1.371   .     S
C643   C791    1.529   .     S
C644   C843    1.371   1_455 S
C644   C848    1.538   1_455 S
C645   H46     1.088   1_565 S
C645   C47     1.345   1_565 S
C648   H657    1.112   .     S
C648   H656    1.112   .     S
C648   C744    1.538   .     S
C648   C749    1.542   .     S
C649   H654    1.111   .     S
C649   H655    1.112   .     S
C649   C848    1.542   1_455 S
C649   C850    1.527   1_455 S
C650   H652    1.111   .     S
C650   H653    1.110   .     S
C650   H651    1.110   .     S
C650   C749    1.527   .     S
N658   O660    1.302   .     A
N658   C47     1.438   1_565 S
N658   O59     1.301   1_565 S
C661   H669    1.110   .     S
C661   C662    1.531   .     S
C661   C1524   1.514   .     S
C661   H1570   1.113   .     S
C662   H668    1.110   .     S
C662   H1567   1.111   .     S
C663   H665    1.111   .     S
C663   H666    1.110   .     S
C663   C62     1.527   1_565 S
C663   H64     1.111   1_565 S
H667   C1562   1.111   1_554 S
H670   C1561   1.113   1_554 S
C671   H679    1.107   .     S
C671   H680    1.105   .     S
C671   C672    1.545   .     S
C672   H678    1.110   .     S
C672   C673    1.526   .     S
C672   H677    1.107   .     S
C673   H674    1.109   .     S
C673   H675    1.111   .     S
C673   H676    1.108   .     S
C681   H690    1.113   .     S
C681   C1582   1.533   .     S
C681   H1589   1.104   .     S
C682   H688    1.111   .     S
C682   C683    1.526   .     S
C682   C1581   1.533   1_554 S
C682   H1587   1.112   1_554 S
C683   H686    1.111   .     S
C683   H84     1.111   1_565 S
C683   H85     1.111   1_565 S
H687   C1582   1.112   .     S
H689   C1581   1.104   1_554 S
C691   H700    1.112   .     S
C691   C692    1.535   .     S
C691   H699    1.110   .     S
C691   C843    1.529   1_455 S
C692   H698    1.112   .     S
C692   C693    1.525   .     S
C692   H897    1.112   1_455 S
C693   H694    1.110   .     S
C693   H695    1.111   .     S
C693   H696    1.111   .     S
H697   C792    1.112   .     S
Zn701  O705    1.957   .     S
Zn701  O713    1.929   .     S
Zn701  O707    1.938   .     S
Zn701  O714    1.932   .     S
Zn702  O716    1.937   .     S
Zn702  O705    1.949   .     S
Zn702  O710    1.934   .     S
Zn702  O708    1.937   .     S
Zn703  O712    1.935   .     S
Zn703  O709    1.931   .     S
Zn703  O705    1.946   .     S
Zn703  O717    1.944   .     S
Zn704  O706    1.943   .     S
Zn704  O711    1.940   .     S
Zn704  O705    1.935   .     S
Zn704  O715    1.936   .     S
O706   C718    1.271   .     A
O707   C719    1.273   .     A
O708   C720    1.279   .     A
O709   C721    1.280   .     A
O710   C722    1.276   .     A
O711   C723    1.288   .     A
O712   C722    1.277   .     A
O713   C723    1.284   .     A
O714   C720    1.271   .     A
O715   C721    1.268   .     A
O716   C718    1.261   .     A
O717   C719    1.292   .     A
C718   C744    1.433   .     S
C719   C743    1.468   .     S
C720   C747    1.428   .     S
C721   C745    1.451   .     S
C722   C727    1.442   .     S
C723   C739    1.483   .     S
C724   C738    1.398   .     A
C724   C1634   1.419   1_554 S
C724   C1661   1.514   1_554 S
H725   C738    1.084   .     S
H726   C735    1.081   .     S
C727   C738    1.393   .     A
C727   C737    1.386   .     A
C728   C729    1.395   .     A
C728   H741    1.084   .     S
C728   C739    1.394   .     A
C729   C781    1.520   .     S
C729   C1630   1.426   .     S
C730   C771    1.532   .     S
C730   C1629   1.426   1_554 S
C730   C1631   1.446   1_554 S
C731   C732    1.425   .     A
C731   C1630   1.446   .     S
C731   C1633   1.432   .     S
C732   C736    1.412   .     A
C732   C739    1.414   .     A
C733   C737    1.396   .     A
C733   C1631   1.432   1_554 S
C733   C1634   1.424   1_554 S
C734   C735    1.392   .     A
C734   C1633   1.424   .     S
C734   C1624   1.419   .     S
C735   C736    1.380   .     A
C736   H742    1.079   .     S
C737   H740    1.073   .     S
C743   C844    1.371   .     S
C743   C891    1.529   .     S
C745   H146    1.088   1_565 S
C745   C147    1.345   1_565 S
C748   H757    1.112   .     S
C748   H756    1.112   .     S
C748   C844    1.538   .     S
C748   C849    1.542   .     S
C749   H754    1.111   .     S
C749   H755    1.112   .     S
C750   H752    1.111   .     S
C750   H753    1.110   .     S
C750   H751    1.110   .     S
C750   C849    1.527   .     S
N758   O760    1.302   .     A
N758   C147    1.438   1_565 S
N758   O159    1.301   1_565 S
C761   H769    1.110   .     S
C761   C762    1.531   .     S
C761   C1624   1.514   .     S
C761   H1670   1.113   .     S
C762   H768    1.110   .     S
C762   H1667   1.111   .     S
C763   H765    1.111   .     S
C763   H766    1.110   .     S
C763   C162    1.527   1_565 S
C763   H164    1.111   1_565 S
H767   C1662   1.111   1_554 S
H770   C1661   1.113   1_554 S
C771   H779    1.107   .     S
C771   H780    1.105   .     S
C771   C772    1.545   .     S
C772   H778    1.110   .     S
C772   C773    1.526   .     S
C772   H777    1.107   .     S
C773   H774    1.109   .     S
C773   H775    1.111   .     S
C773   H776    1.108   .     S
C781   H790    1.113   .     S
C781   C1682   1.533   .     S
C781   H1689   1.104   .     S
C782   H788    1.111   .     S
C782   C783    1.526   .     S
C782   C1681   1.533   1_554 S
C782   H1687   1.112   1_554 S
C783   H786    1.111   .     S
C783   H184    1.111   1_565 S
C783   H185    1.111   1_565 S
H787   C1682   1.112   .     S
H789   C1681   1.104   1_554 S
C791   H800    1.112   .     S
C791   C792    1.535   .     S
C791   H799    1.110   .     S
C792   H798    1.112   .     S
C792   C793    1.525   .     S
C793   H794    1.110   .     S
C793   H795    1.111   .     S
C793   H796    1.111   .     S
H797   C892    1.112   .     S
Zn801  O805    1.957   .     S
Zn801  O813    1.929   .     S
Zn801  O807    1.938   .     S
Zn801  O814    1.932   .     S
Zn802  O816    1.937   .     S
Zn802  O805    1.949   .     S
Zn802  O810    1.934   .     S
Zn802  O808    1.937   .     S
Zn803  O812    1.935   .     S
Zn803  O809    1.931   .     S
Zn803  O805    1.946   .     S
Zn803  O817    1.944   .     S
Zn804  O806    1.943   .     S
Zn804  O811    1.940   .     S
Zn804  O805    1.935   .     S
Zn804  O815    1.936   .     S
O806   C818    1.271   .     A
O807   C819    1.273   .     A
O808   C820    1.279   .     A
O809   C821    1.280   .     A
O810   C822    1.276   .     A
O811   C823    1.288   .     A
O812   C822    1.277   .     A
O813   C823    1.284   .     A
O814   C820    1.271   .     A
O815   C821    1.268   .     A
O816   C818    1.261   .     A
O817   C819    1.292   .     A
C818   C844    1.433   .     S
C819   C843    1.468   .     S
C820   C847    1.428   .     S
C821   C845    1.451   .     S
C822   C827    1.442   .     S
C823   C839    1.483   .     S
C824   C838    1.398   .     A
C824   C1734   1.419   1_554 S
C824   C1761   1.514   1_554 S
H825   C838    1.084   .     S
H826   C835    1.081   .     S
C827   C838    1.393   .     A
C827   C837    1.386   .     A
C828   C829    1.395   .     A
C828   H841    1.084   .     S
C828   C839    1.394   .     A
C829   C881    1.520   .     S
C829   C1730   1.426   .     S
C830   C871    1.532   .     S
C830   C1729   1.426   1_554 S
C830   C1731   1.446   1_554 S
C831   C832    1.425   .     A
C831   C1730   1.446   .     S
C831   C1733   1.432   .     S
C832   C836    1.412   .     A
C832   C839    1.414   .     A
C833   C837    1.396   .     A
C833   C1731   1.432   1_554 S
C833   C1734   1.424   1_554 S
C834   C835    1.392   .     A
C834   C1733   1.424   .     S
C834   C1724   1.419   .     S
C835   C836    1.380   .     A
C836   H842    1.079   .     S
C837   H840    1.073   .     S
C843   C644    1.371   1_655 S
C843   C691    1.529   1_655 S
C845   H246    1.088   1_565 S
C845   C247    1.345   1_565 S
C848   H857    1.112   .     S
C848   H856    1.112   .     S
C848   C644    1.538   1_655 S
C848   C649    1.542   1_655 S
C849   H854    1.111   .     S
C849   H855    1.112   .     S
C850   H852    1.111   .     S
C850   H853    1.110   .     S
C850   H851    1.110   .     S
C850   C649    1.527   1_655 S
N858   O860    1.302   .     A
N858   C247    1.438   1_565 S
N858   O259    1.301   1_565 S
C861   H869    1.110   .     S
C861   C862    1.531   .     S
C861   C1724   1.514   .     S
C861   H1770   1.113   .     S
C862   H868    1.110   .     S
C862   H1767   1.111   .     S
C863   H865    1.111   .     S
C863   H866    1.110   .     S
C863   C262    1.527   1_565 S
C863   H264    1.111   1_565 S
H867   C1762   1.111   1_554 S
H870   C1761   1.113   1_554 S
C871   H879    1.107   .     S
C871   H880    1.105   .     S
C871   C872    1.545   .     S
C872   H878    1.110   .     S
C872   C873    1.526   .     S
C872   H877    1.107   .     S
C873   H874    1.109   .     S
C873   H875    1.111   .     S
C873   H876    1.108   .     S
C881   H890    1.113   .     S
C881   C1782   1.533   .     S
C881   H1789   1.104   .     S
C882   H888    1.111   .     S
C882   C883    1.526   .     S
C882   C1781   1.533   1_554 S
C882   H1787   1.112   1_554 S
C883   H886    1.111   .     S
C883   H284    1.111   1_565 S
C883   H285    1.111   1_565 S
H887   C1782   1.112   .     S
H889   C1781   1.104   1_554 S
C891   H900    1.112   .     S
C891   C892    1.535   .     S
C891   H899    1.110   .     S
C892   H898    1.112   .     S
C892   C893    1.525   .     S
C893   H894    1.110   .     S
C893   H895    1.111   .     S
C893   H896    1.111   .     S
H897   C692    1.112   1_655 S
Zn901  O905    1.957   .     S
Zn901  O913    1.929   .     S
Zn901  O907    1.938   .     S
Zn901  O914    1.932   .     S
Zn902  O916    1.937   .     S
Zn902  O905    1.949   .     S
Zn902  O910    1.934   .     S
Zn902  O908    1.937   .     S
Zn903  O912    1.935   .     S
Zn903  O909    1.931   .     S
Zn903  O905    1.946   .     S
Zn903  O917    1.944   .     S
Zn904  O906    1.943   .     S
Zn904  O911    1.940   .     S
Zn904  O905    1.935   .     S
Zn904  O915    1.936   .     S
O906   C918    1.271   .     A
O907   C919    1.273   .     A
O908   C920    1.279   .     A
O909   C921    1.280   .     A
O910   C922    1.276   .     A
O911   C923    1.288   .     A
O912   C922    1.277   .     A
O913   C923    1.284   .     A
O914   C920    1.271   .     A
O915   C921    1.268   .     A
O916   C918    1.261   .     A
O917   C919    1.292   .     A
C918   C944    1.433   .     S
C919   C943    1.468   .     S
C920   C947    1.428   .     S
C921   C945    1.451   .     S
C922   C927    1.442   .     S
C923   C939    1.483   .     S
C924   C938    1.398   .     A
H925   C938    1.084   .     S
H926   C935    1.081   .     S
C927   C938    1.393   .     A
C927   C937    1.386   .     A
C928   C929    1.395   .     A
C928   H941    1.084   .     S
C928   C939    1.394   .     A
C929   C981    1.520   .     S
C929   C30     1.426   1_556 S
C930   C971    1.532   .     S
C931   C932    1.425   .     A
C931   C30     1.446   1_556 S
C931   C33     1.432   1_556 S
C932   C936    1.412   .     A
C932   C939    1.414   .     A
C933   C937    1.396   .     A
C934   C935    1.392   .     A
C934   C33     1.424   1_556 S
C934   C24     1.419   1_556 S
C935   C936    1.380   .     A
C936   H942    1.079   .     S
C937   H940    1.073   .     S
C943   C1044   1.371   .     S
C943   C1091   1.529   .     S
C944   C1143   1.371   1_455 S
C944   C1148   1.538   1_455 S
C945   H1246   1.088   .     S
C945   C1247   1.345   .     S
H946   C1545   1.088   1_545 S
C947   C1545   1.345   1_545 S
C947   N1558   1.438   1_545 S
C948   H957    1.112   .     S
C948   H956    1.112   .     S
C948   C1044   1.538   .     S
C948   C1049   1.542   .     S
C949   H954    1.111   .     S
C949   H955    1.112   .     S
C949   C1148   1.542   1_455 S
C949   C1150   1.527   1_455 S
C950   H952    1.111   .     S
C950   H953    1.110   .     S
C950   H951    1.110   .     S
C950   C1049   1.527   .     S
N958   O960    1.302   .     A
N958   C1247   1.438   .     S
N958   O1259   1.301   .     S
O959   N1558   1.301   1_545 S
C961   H969    1.110   .     S
C961   C962    1.531   .     S
C961   C24     1.514   1_556 S
C961   H70     1.113   1_556 S
C962   H968    1.110   .     S
C962   C1563   1.527   1_545 S
C962   H67     1.111   1_556 S
C963   H965    1.111   .     S
C963   H966    1.110   .     S
C963   C1262   1.527   .     S
C963   H1264   1.111   .     S
H964   C1563   1.111   1_545 S
C971   H979    1.107   .     S
C971   H980    1.105   .     S
C971   C972    1.545   .     S
C972   H978    1.110   .     S
C972   C973    1.526   .     S
C972   H977    1.107   .     S
C973   H974    1.109   .     S
C973   H975    1.111   .     S
C973   H976    1.108   .     S
C981   H990    1.113   .     S
C981   C82     1.533   1_556 S
C981   H89     1.104   1_556 S
C982   H988    1.111   .     S
C982   C983    1.526   .     S
C983   H986    1.111   .     S
C983   H1284   1.111   .     S
C983   H1285   1.111   .     S
H984   C1583   1.111   1_545 S
H985   C1583   1.111   1_545 S
H987   C82     1.112   1_556 S
C991   H1000   1.112   .     S
C991   C992    1.535   .     S
C991   H999    1.110   .     S
C991   C1143   1.529   1_455 S
C992   H998    1.112   .     S
C992   C993    1.525   .     S
C992   H1197   1.112   1_455 S
C993   H994    1.110   .     S
C993   H995    1.111   .     S
C993   H996    1.111   .     S
H997   C1092   1.112   .     S
Zn1001 O1005   1.957   .     S
Zn1001 O1013   1.929   .     S
Zn1001 O1007   1.938   .     S
Zn1001 O1014   1.932   .     S
Zn1002 O1016   1.937   .     S
Zn1002 O1005   1.949   .     S
Zn1002 O1010   1.934   .     S
Zn1002 O1008   1.937   .     S
Zn1003 O1012   1.935   .     S
Zn1003 O1009   1.931   .     S
Zn1003 O1005   1.946   .     S
Zn1003 O1017   1.944   .     S
Zn1004 O1006   1.943   .     S
Zn1004 O1011   1.940   .     S
Zn1004 O1005   1.935   .     S
Zn1004 O1015   1.936   .     S
O1006  C1018   1.271   .     A
O1007  C1019   1.273   .     A
O1008  C1020   1.279   .     A
O1009  C1021   1.280   .     A
O1010  C1022   1.276   .     A
O1011  C1023   1.288   .     A
O1012  C1022   1.277   .     A
O1013  C1023   1.284   .     A
O1014  C1020   1.271   .     A
O1015  C1021   1.268   .     A
O1016  C1018   1.261   .     A
O1017  C1019   1.292   .     A
C1018  C1044   1.433   .     S
C1019  C1043   1.468   .     S
C1020  C1047   1.428   .     S
C1021  C1045   1.451   .     S
C1022  C1027   1.442   .     S
C1023  C1039   1.483   .     S
C1024  C1038   1.398   .     A
H1025  C1038   1.084   .     S
H1026  C1035   1.081   .     S
C1027  C1038   1.393   .     A
C1027  C1037   1.386   .     A
C1028  C1029   1.395   .     A
C1028  H1041   1.084   .     S
C1028  C1039   1.394   .     A
C1029  C1081   1.520   .     S
C1029  C130    1.426   1_556 S
C1030  C1071   1.532   .     S
C1031  C1032   1.425   .     A
C1031  C130    1.446   1_556 S
C1031  C133    1.432   1_556 S
C1032  C1036   1.412   .     A
C1032  C1039   1.414   .     A
C1033  C1037   1.396   .     A
C1034  C1035   1.392   .     A
C1034  C133    1.424   1_556 S
C1034  C124    1.419   1_556 S
C1035  C1036   1.380   .     A
C1036  H1042   1.079   .     S
C1037  H1040   1.073   .     S
C1043  C1144   1.371   .     S
C1043  C1191   1.529   .     S
C1045  H1346   1.088   .     S
C1045  C1347   1.345   .     S
H1046  C1645   1.088   1_545 S
C1047  C1645   1.345   1_545 S
C1047  N1658   1.438   1_545 S
C1048  H1057   1.112   .     S
C1048  H1056   1.112   .     S
C1048  C1144   1.538   .     S
C1048  C1149   1.542   .     S
C1049  H1054   1.111   .     S
C1049  H1055   1.112   .     S
C1050  H1052   1.111   .     S
C1050  H1053   1.110   .     S
C1050  H1051   1.110   .     S
C1050  C1149   1.527   .     S
N1058  O1060   1.302   .     A
N1058  C1347   1.438   .     S
N1058  O1359   1.301   .     S
O1059  N1658   1.301   1_545 S
C1061  H1069   1.110   .     S
C1061  C1062   1.531   .     S
C1061  C124    1.514   1_556 S
C1061  H170    1.113   1_556 S
C1062  H1068   1.110   .     S
C1062  C1663   1.527   1_545 S
C1062  H167    1.111   1_556 S
C1063  H1065   1.111   .     S
C1063  H1066   1.110   .     S
C1063  C1362   1.527   .     S
C1063  H1364   1.111   .     S
H1064  C1663   1.111   1_545 S
C1071  H1079   1.107   .     S
C1071  H1080   1.105   .     S
C1071  C1072   1.545   .     S
C1072  H1078   1.110   .     S
C1072  C1073   1.526   .     S
C1072  H1077   1.107   .     S
C1073  H1074   1.109   .     S
C1073  H1075   1.111   .     S
C1073  H1076   1.108   .     S
C1081  H1090   1.113   .     S
C1081  C182    1.533   1_556 S
C1081  H189    1.104   1_556 S
C1082  H1088   1.111   .     S
C1082  C1083   1.526   .     S
C1083  H1086   1.111   .     S
C1083  H1384   1.111   .     S
C1083  H1385   1.111   .     S
H1084  C1683   1.111   1_545 S
H1085  C1683   1.111   1_545 S
H1087  C182    1.112   1_556 S
C1091  H1100   1.112   .     S
C1091  C1092   1.535   .     S
C1091  H1099   1.110   .     S
C1092  H1098   1.112   .     S
C1092  C1093   1.525   .     S
C1093  H1094   1.110   .     S
C1093  H1095   1.111   .     S
C1093  H1096   1.111   .     S
H1097  C1192   1.112   .     S
Zn1101 O1105   1.957   .     S
Zn1101 O1113   1.929   .     S
Zn1101 O1107   1.938   .     S
Zn1101 O1114   1.932   .     S
Zn1102 O1116   1.937   .     S
Zn1102 O1105   1.949   .     S
Zn1102 O1110   1.934   .     S
Zn1102 O1108   1.937   .     S
Zn1103 O1112   1.935   .     S
Zn1103 O1109   1.931   .     S
Zn1103 O1105   1.946   .     S
Zn1103 O1117   1.944   .     S
Zn1104 O1106   1.943   .     S
Zn1104 O1111   1.940   .     S
Zn1104 O1105   1.935   .     S
Zn1104 O1115   1.936   .     S
O1106  C1118   1.271   .     A
O1107  C1119   1.273   .     A
O1108  C1120   1.279   .     A
O1109  C1121   1.280   .     A
O1110  C1122   1.276   .     A
O1111  C1123   1.288   .     A
O1112  C1122   1.277   .     A
O1113  C1123   1.284   .     A
O1114  C1120   1.271   .     A
O1115  C1121   1.268   .     A
O1116  C1118   1.261   .     A
O1117  C1119   1.292   .     A
C1118  C1144   1.433   .     S
C1119  C1143   1.468   .     S
C1120  C1147   1.428   .     S
C1121  C1145   1.451   .     S
C1122  C1127   1.442   .     S
C1123  C1139   1.483   .     S
C1124  C1138   1.398   .     A
H1125  C1138   1.084   .     S
H1126  C1135   1.081   .     S
C1127  C1138   1.393   .     A
C1127  C1137   1.386   .     A
C1128  C1129   1.395   .     A
C1128  H1141   1.084   .     S
C1128  C1139   1.394   .     A
C1129  C1181   1.520   .     S
C1129  C230    1.426   1_556 S
C1130  C1171   1.532   .     S
C1131  C1132   1.425   .     A
C1131  C230    1.446   1_556 S
C1131  C233    1.432   1_556 S
C1132  C1136   1.412   .     A
C1132  C1139   1.414   .     A
C1133  C1137   1.396   .     A
C1134  C1135   1.392   .     A
C1134  C233    1.424   1_556 S
C1134  C224    1.419   1_556 S
C1135  C1136   1.380   .     A
C1136  H1142   1.079   .     S
C1137  H1140   1.073   .     S
C1143  C944    1.371   1_655 S
C1143  C991    1.529   1_655 S
C1145  H1446   1.088   .     S
C1145  C1447   1.345   .     S
H1146  C1745   1.088   1_545 S
C1147  C1745   1.345   1_545 S
C1147  N1758   1.438   1_545 S
C1148  H1157   1.112   .     S
C1148  H1156   1.112   .     S
C1148  C944    1.538   1_655 S
C1148  C949    1.542   1_655 S
C1149  H1154   1.111   .     S
C1149  H1155   1.112   .     S
C1150  H1152   1.111   .     S
C1150  H1153   1.110   .     S
C1150  H1151   1.110   .     S
C1150  C949    1.527   1_655 S
N1158  O1160   1.302   .     A
N1158  C1447   1.438   .     S
N1158  O1459   1.301   .     S
O1159  N1758   1.301   1_545 S
C1161  H1169   1.110   .     S
C1161  C1162   1.531   .     S
C1161  C224    1.514   1_556 S
C1161  H270    1.113   1_556 S
C1162  H1168   1.110   .     S
C1162  C1763   1.527   1_545 S
C1162  H267    1.111   1_556 S
C1163  H1165   1.111   .     S
C1163  H1166   1.110   .     S
C1163  C1462   1.527   .     S
C1163  H1464   1.111   .     S
H1164  C1763   1.111   1_545 S
C1171  H1179   1.107   .     S
C1171  H1180   1.105   .     S
C1171  C1172   1.545   .     S
C1172  H1178   1.110   .     S
C1172  C1173   1.526   .     S
C1172  H1177   1.107   .     S
C1173  H1174   1.109   .     S
C1173  H1175   1.111   .     S
C1173  H1176   1.108   .     S
C1181  H1190   1.113   .     S
C1181  C282    1.533   1_556 S
C1181  H289    1.104   1_556 S
C1182  H1188   1.111   .     S
C1182  C1183   1.526   .     S
C1183  H1186   1.111   .     S
C1183  H1484   1.111   .     S
C1183  H1485   1.111   .     S
H1184  C1783   1.111   1_545 S
H1185  C1783   1.111   1_545 S
H1187  C282    1.112   1_556 S
C1191  H1200   1.112   .     S
C1191  C1192   1.535   .     S
C1191  H1199   1.110   .     S
C1192  H1198   1.112   .     S
C1192  C1193   1.525   .     S
C1193  H1194   1.110   .     S
C1193  H1195   1.111   .     S
C1193  H1196   1.111   .     S
H1197  C992    1.112   1_655 S
Zn1201 O1205   1.957   .     S
Zn1201 O1213   1.929   .     S
Zn1201 O1207   1.938   .     S
Zn1201 O1214   1.932   .     S
Zn1202 O1216   1.937   .     S
Zn1202 O1205   1.949   .     S
Zn1202 O1210   1.934   .     S
Zn1202 O1208   1.937   .     S
Zn1203 O1212   1.935   .     S
Zn1203 O1209   1.931   .     S
Zn1203 O1205   1.946   .     S
Zn1203 O1217   1.944   .     S
Zn1204 O1206   1.943   .     S
Zn1204 O1211   1.940   .     S
Zn1204 O1205   1.935   .     S
Zn1204 O1215   1.936   .     S
O1206  C1218   1.271   .     A
O1207  C1219   1.273   .     A
O1208  C1220   1.279   .     A
O1209  C1221   1.280   .     A
O1210  C1222   1.276   .     A
O1211  C1223   1.288   .     A
O1212  C1222   1.277   .     A
O1213  C1223   1.284   .     A
O1214  C1220   1.271   .     A
O1215  C1221   1.268   .     A
O1216  C1218   1.261   .     A
O1217  C1219   1.292   .     A
C1218  C1244   1.433   .     S
C1219  C1243   1.468   .     S
C1220  C1247   1.428   .     S
C1221  C1245   1.451   .     S
C1222  C1227   1.442   .     S
C1223  C1239   1.483   .     S
C1224  C1238   1.398   .     A
H1225  C1238   1.084   .     S
H1226  C1235   1.081   .     S
C1227  C1238   1.393   .     A
C1227  C1237   1.386   .     A
C1228  C1229   1.395   .     A
C1228  H1241   1.084   .     S
C1228  C1239   1.394   .     A
C1229  C1281   1.520   .     S
C1229  C330    1.426   1_556 S
C1230  C1271   1.532   .     S
C1231  C1232   1.425   .     A
C1231  C330    1.446   1_556 S
C1231  C333    1.432   1_556 S
C1232  C1236   1.412   .     A
C1232  C1239   1.414   .     A
C1233  C1237   1.396   .     A
C1234  C1235   1.392   .     A
C1234  C333    1.424   1_556 S
C1234  C324    1.419   1_556 S
C1235  C1236   1.380   .     A
C1236  H1242   1.079   .     S
C1237  H1240   1.073   .     S
C1243  C1344   1.371   .     S
C1243  C1391   1.529   .     S
C1244  C1443   1.371   1_455 S
C1244  C1448   1.538   1_455 S
C1245  H1546   1.088   .     S
C1245  C1547   1.345   .     S
C1248  H1257   1.112   .     S
C1248  H1256   1.112   .     S
C1248  C1344   1.538   .     S
C1248  C1349   1.542   .     S
C1249  H1254   1.111   .     S
C1249  H1255   1.112   .     S
C1249  C1448   1.542   1_455 S
C1249  C1450   1.527   1_455 S
C1250  H1252   1.111   .     S
C1250  H1253   1.110   .     S
C1250  H1251   1.110   .     S
C1250  C1349   1.527   .     S
N1258  O1260   1.302   .     A
N1258  C1547   1.438   .     S
N1258  O1559   1.301   .     S
C1261  H1269   1.110   .     S
C1261  C1262   1.531   .     S
C1261  C324    1.514   1_556 S
C1261  H370    1.113   1_556 S
C1262  H1268   1.110   .     S
C1262  H367    1.111   1_556 S
C1263  H1265   1.111   .     S
C1263  H1266   1.110   .     S
C1263  C1562   1.527   .     S
C1263  H1564   1.111   .     S
C1271  H1279   1.107   .     S
C1271  H1280   1.105   .     S
C1271  C1272   1.545   .     S
C1272  H1278   1.110   .     S
C1272  C1273   1.526   .     S
C1272  H1277   1.107   .     S
C1273  H1274   1.109   .     S
C1273  H1275   1.111   .     S
C1273  H1276   1.108   .     S
C1281  H1290   1.113   .     S
C1281  C382    1.533   1_556 S
C1281  H389    1.104   1_556 S
C1282  H1288   1.111   .     S
C1282  C1283   1.526   .     S
C1283  H1286   1.111   .     S
C1283  H1584   1.111   .     S
C1283  H1585   1.111   .     S
H1287  C382    1.112   1_556 S
C1291  H1300   1.112   .     S
C1291  C1292   1.535   .     S
C1291  H1299   1.110   .     S
C1291  C1443   1.529   1_455 S
C1292  H1298   1.112   .     S
C1292  C1293   1.525   .     S
C1292  H1497   1.112   1_455 S
C1293  H1294   1.110   .     S
C1293  H1295   1.111   .     S
C1293  H1296   1.111   .     S
H1297  C1392   1.112   .     S
Zn1301 O1305   1.957   .     S
Zn1301 O1313   1.929   .     S
Zn1301 O1307   1.938   .     S
Zn1301 O1314   1.932   .     S
Zn1302 O1316   1.937   .     S
Zn1302 O1305   1.949   .     S
Zn1302 O1310   1.934   .     S
Zn1302 O1308   1.937   .     S
Zn1303 O1312   1.935   .     S
Zn1303 O1309   1.931   .     S
Zn1303 O1305   1.946   .     S
Zn1303 O1317   1.944   .     S
Zn1304 O1306   1.943   .     S
Zn1304 O1311   1.940   .     S
Zn1304 O1305   1.935   .     S
Zn1304 O1315   1.936   .     S
O1306  C1318   1.271   .     A
O1307  C1319   1.273   .     A
O1308  C1320   1.279   .     A
O1309  C1321   1.280   .     A
O1310  C1322   1.276   .     A
O1311  C1323   1.288   .     A
O1312  C1322   1.277   .     A
O1313  C1323   1.284   .     A
O1314  C1320   1.271   .     A
O1315  C1321   1.268   .     A
O1316  C1318   1.261   .     A
O1317  C1319   1.292   .     A
C1318  C1344   1.433   .     S
C1319  C1343   1.468   .     S
C1320  C1347   1.428   .     S
C1321  C1345   1.451   .     S
C1322  C1327   1.442   .     S
C1323  C1339   1.483   .     S
C1324  C1338   1.398   .     A
H1325  C1338   1.084   .     S
H1326  C1335   1.081   .     S
C1327  C1338   1.393   .     A
C1327  C1337   1.386   .     A
C1328  C1329   1.395   .     A
C1328  H1341   1.084   .     S
C1328  C1339   1.394   .     A
C1329  C1381   1.520   .     S
C1329  C430    1.426   1_556 S
C1330  C1371   1.532   .     S
C1331  C1332   1.425   .     A
C1331  C430    1.446   1_556 S
C1331  C433    1.432   1_556 S
C1332  C1336   1.412   .     A
C1332  C1339   1.414   .     A
C1333  C1337   1.396   .     A
C1334  C1335   1.392   .     A
C1334  C433    1.424   1_556 S
C1334  C424    1.419   1_556 S
C1335  C1336   1.380   .     A
C1336  H1342   1.079   .     S
C1337  H1340   1.073   .     S
C1343  C1444   1.371   .     S
C1343  C1491   1.529   .     S
C1345  H1646   1.088   .     S
C1345  C1647   1.345   .     S
C1348  H1357   1.112   .     S
C1348  H1356   1.112   .     S
C1348  C1444   1.538   .     S
C1348  C1449   1.542   .     S
C1349  H1354   1.111   .     S
C1349  H1355   1.112   .     S
C1350  H1352   1.111   .     S
C1350  H1353   1.110   .     S
C1350  H1351   1.110   .     S
C1350  C1449   1.527   .     S
N1358  O1360   1.302   .     A
N1358  C1647   1.438   .     S
N1358  O1659   1.301   .     S
C1361  H1369   1.110   .     S
C1361  C1362   1.531   .     S
C1361  C424    1.514   1_556 S
C1361  H470    1.113   1_556 S
C1362  H1368   1.110   .     S
C1362  H467    1.111   1_556 S
C1363  H1365   1.111   .     S
C1363  H1366   1.110   .     S
C1363  C1662   1.527   .     S
C1363  H1664   1.111   .     S
C1371  H1379   1.107   .     S
C1371  H1380   1.105   .     S
C1371  C1372   1.545   .     S
C1372  H1378   1.110   .     S
C1372  C1373   1.526   .     S
C1372  H1377   1.107   .     S
C1373  H1374   1.109   .     S
C1373  H1375   1.111   .     S
C1373  H1376   1.108   .     S
C1381  H1390   1.113   .     S
C1381  C482    1.533   1_556 S
C1381  H489    1.104   1_556 S
C1382  H1388   1.111   .     S
C1382  C1383   1.526   .     S
C1383  H1386   1.111   .     S
C1383  H1684   1.111   .     S
C1383  H1685   1.111   .     S
H1387  C482    1.112   1_556 S
C1391  H1400   1.112   .     S
C1391  C1392   1.535   .     S
C1391  H1399   1.110   .     S
C1392  H1398   1.112   .     S
C1392  C1393   1.525   .     S
C1393  H1394   1.110   .     S
C1393  H1395   1.111   .     S
C1393  H1396   1.111   .     S
H1397  C1492   1.112   .     S
Zn1401 O1405   1.957   .     S
Zn1401 O1413   1.929   .     S
Zn1401 O1407   1.938   .     S
Zn1401 O1414   1.932   .     S
Zn1402 O1416   1.937   .     S
Zn1402 O1405   1.949   .     S
Zn1402 O1410   1.934   .     S
Zn1402 O1408   1.937   .     S
Zn1403 O1412   1.935   .     S
Zn1403 O1409   1.931   .     S
Zn1403 O1405   1.946   .     S
Zn1403 O1417   1.944   .     S
Zn1404 O1406   1.943   .     S
Zn1404 O1411   1.940   .     S
Zn1404 O1405   1.935   .     S
Zn1404 O1415   1.936   .     S
O1406  C1418   1.271   .     A
O1407  C1419   1.273   .     A
O1408  C1420   1.279   .     A
O1409  C1421   1.280   .     A
O1410  C1422   1.276   .     A
O1411  C1423   1.288   .     A
O1412  C1422   1.277   .     A
O1413  C1423   1.284   .     A
O1414  C1420   1.271   .     A
O1415  C1421   1.268   .     A
O1416  C1418   1.261   .     A
O1417  C1419   1.292   .     A
C1418  C1444   1.433   .     S
C1419  C1443   1.468   .     S
C1420  C1447   1.428   .     S
C1421  C1445   1.451   .     S
C1422  C1427   1.442   .     S
C1423  C1439   1.483   .     S
C1424  C1438   1.398   .     A
H1425  C1438   1.084   .     S
H1426  C1435   1.081   .     S
C1427  C1438   1.393   .     A
C1427  C1437   1.386   .     A
C1428  C1429   1.395   .     A
C1428  H1441   1.084   .     S
C1428  C1439   1.394   .     A
C1429  C1481   1.520   .     S
C1429  C530    1.426   1_556 S
C1430  C1471   1.532   .     S
C1431  C1432   1.425   .     A
C1431  C530    1.446   1_556 S
C1431  C533    1.432   1_556 S
C1432  C1436   1.412   .     A
C1432  C1439   1.414   .     A
C1433  C1437   1.396   .     A
C1434  C1435   1.392   .     A
C1434  C533    1.424   1_556 S
C1434  C524    1.419   1_556 S
C1435  C1436   1.380   .     A
C1436  H1442   1.079   .     S
C1437  H1440   1.073   .     S
C1443  C1244   1.371   1_655 S
C1443  C1291   1.529   1_655 S
C1445  H1746   1.088   .     S
C1445  C1747   1.345   .     S
C1448  H1457   1.112   .     S
C1448  H1456   1.112   .     S
C1448  C1244   1.538   1_655 S
C1448  C1249   1.542   1_655 S
C1449  H1454   1.111   .     S
C1449  H1455   1.112   .     S
C1450  H1452   1.111   .     S
C1450  H1453   1.110   .     S
C1450  H1451   1.110   .     S
C1450  C1249   1.527   1_655 S
N1458  O1460   1.302   .     A
N1458  C1747   1.438   .     S
N1458  O1759   1.301   .     S
C1461  H1469   1.110   .     S
C1461  C1462   1.531   .     S
C1461  C524    1.514   1_556 S
C1461  H570    1.113   1_556 S
C1462  H1468   1.110   .     S
C1462  H567    1.111   1_556 S
C1463  H1465   1.111   .     S
C1463  H1466   1.110   .     S
C1463  C1762   1.527   .     S
C1463  H1764   1.111   .     S
C1471  H1479   1.107   .     S
C1471  H1480   1.105   .     S
C1471  C1472   1.545   .     S
C1472  H1478   1.110   .     S
C1472  C1473   1.526   .     S
C1472  H1477   1.107   .     S
C1473  H1474   1.109   .     S
C1473  H1475   1.111   .     S
C1473  H1476   1.108   .     S
C1481  H1490   1.113   .     S
C1481  C582    1.533   1_556 S
C1481  H589    1.104   1_556 S
C1482  H1488   1.111   .     S
C1482  C1483   1.526   .     S
C1483  H1486   1.111   .     S
C1483  H1784   1.111   .     S
C1483  H1785   1.111   .     S
H1487  C582    1.112   1_556 S
C1491  H1500   1.112   .     S
C1491  C1492   1.535   .     S
C1491  H1499   1.110   .     S
C1492  H1498   1.112   .     S
C1492  C1493   1.525   .     S
C1493  H1494   1.110   .     S
C1493  H1495   1.111   .     S
C1493  H1496   1.111   .     S
H1497  C1292   1.112   1_655 S
Zn1501 O1505   1.957   .     S
Zn1501 O1513   1.929   .     S
Zn1501 O1507   1.938   .     S
Zn1501 O1514   1.932   .     S
Zn1502 O1516   1.937   .     S
Zn1502 O1505   1.949   .     S
Zn1502 O1510   1.934   .     S
Zn1502 O1508   1.937   .     S
Zn1503 O1512   1.935   .     S
Zn1503 O1509   1.931   .     S
Zn1503 O1505   1.946   .     S
Zn1503 O1517   1.944   .     S
Zn1504 O1506   1.943   .     S
Zn1504 O1511   1.940   .     S
Zn1504 O1505   1.935   .     S
Zn1504 O1515   1.936   .     S
O1506  C1518   1.271   .     A
O1507  C1519   1.273   .     A
O1508  C1520   1.279   .     A
O1509  C1521   1.280   .     A
O1510  C1522   1.276   .     A
O1511  C1523   1.288   .     A
O1512  C1522   1.277   .     A
O1513  C1523   1.284   .     A
O1514  C1520   1.271   .     A
O1515  C1521   1.268   .     A
O1516  C1518   1.261   .     A
O1517  C1519   1.292   .     A
C1518  C1544   1.433   .     S
C1519  C1543   1.468   .     S
C1520  C1547   1.428   .     S
C1521  C1545   1.451   .     S
C1522  C1527   1.442   .     S
C1523  C1539   1.483   .     S
C1524  C1538   1.398   .     A
H1525  C1538   1.084   .     S
H1526  C1535   1.081   .     S
C1527  C1538   1.393   .     A
C1527  C1537   1.386   .     A
C1528  C1529   1.395   .     A
C1528  H1541   1.084   .     S
C1528  C1539   1.394   .     A
C1529  C1581   1.520   .     S
C1529  C630    1.426   1_556 S
C1530  C1571   1.532   .     S
C1531  C1532   1.425   .     A
C1531  C630    1.446   1_556 S
C1531  C633    1.432   1_556 S
C1532  C1536   1.412   .     A
C1532  C1539   1.414   .     A
C1533  C1537   1.396   .     A
C1534  C1535   1.392   .     A
C1534  C633    1.424   1_556 S
C1534  C624    1.419   1_556 S
C1535  C1536   1.380   .     A
C1536  H1542   1.079   .     S
C1537  H1540   1.073   .     S
C1543  C1644   1.371   .     S
C1543  C1691   1.529   .     S
C1544  C1743   1.371   1_455 S
C1544  C1748   1.538   1_455 S
C1545  H946    1.088   1_565 S
C1545  C947    1.345   1_565 S
C1548  H1557   1.112   .     S
C1548  H1556   1.112   .     S
C1548  C1644   1.538   .     S
C1548  C1649   1.542   .     S
C1549  H1554   1.111   .     S
C1549  H1555   1.112   .     S
C1549  C1748   1.542   1_455 S
C1549  C1750   1.527   1_455 S
C1550  H1552   1.111   .     S
C1550  H1553   1.110   .     S
C1550  H1551   1.110   .     S
C1550  C1649   1.527   .     S
N1558  O1560   1.302   .     A
N1558  C947    1.438   1_565 S
N1558  O959    1.301   1_565 S
C1561  H1569   1.110   .     S
C1561  C1562   1.531   .     S
C1561  C624    1.514   1_556 S
C1561  H670    1.113   1_556 S
C1562  H1568   1.110   .     S
C1562  H667    1.111   1_556 S
C1563  H1565   1.111   .     S
C1563  H1566   1.110   .     S
C1563  C962    1.527   1_565 S
C1563  H964    1.111   1_565 S
C1571  H1579   1.107   .     S
C1571  H1580   1.105   .     S
C1571  C1572   1.545   .     S
C1572  H1578   1.110   .     S
C1572  C1573   1.526   .     S
C1572  H1577   1.107   .     S
C1573  H1574   1.109   .     S
C1573  H1575   1.111   .     S
C1573  H1576   1.108   .     S
C1581  H1590   1.113   .     S
C1581  C682    1.533   1_556 S
C1581  H689    1.104   1_556 S
C1582  H1588   1.111   .     S
C1582  C1583   1.526   .     S
C1583  H1586   1.111   .     S
C1583  H984    1.111   1_565 S
C1583  H985    1.111   1_565 S
H1587  C682    1.112   1_556 S
C1591  H1600   1.112   .     S
C1591  C1592   1.535   .     S
C1591  H1599   1.110   .     S
C1591  C1743   1.529   1_455 S
C1592  H1598   1.112   .     S
C1592  C1593   1.525   .     S
C1592  H1797   1.112   1_455 S
C1593  H1594   1.110   .     S
C1593  H1595   1.111   .     S
C1593  H1596   1.111   .     S
H1597  C1692   1.112   .     S
Zn1601 O1605   1.957   .     S
Zn1601 O1613   1.929   .     S
Zn1601 O1607   1.938   .     S
Zn1601 O1614   1.932   .     S
Zn1602 O1616   1.937   .     S
Zn1602 O1605   1.949   .     S
Zn1602 O1610   1.934   .     S
Zn1602 O1608   1.937   .     S
Zn1603 O1612   1.935   .     S
Zn1603 O1609   1.931   .     S
Zn1603 O1605   1.946   .     S
Zn1603 O1617   1.944   .     S
Zn1604 O1606   1.943   .     S
Zn1604 O1611   1.940   .     S
Zn1604 O1605   1.935   .     S
Zn1604 O1615   1.936   .     S
O1606  C1618   1.271   .     A
O1607  C1619   1.273   .     A
O1608  C1620   1.279   .     A
O1609  C1621   1.280   .     A
O1610  C1622   1.276   .     A
O1611  C1623   1.288   .     A
O1612  C1622   1.277   .     A
O1613  C1623   1.284   .     A
O1614  C1620   1.271   .     A
O1615  C1621   1.268   .     A
O1616  C1618   1.261   .     A
O1617  C1619   1.292   .     A
C1618  C1644   1.433   .     S
C1619  C1643   1.468   .     S
C1620  C1647   1.428   .     S
C1621  C1645   1.451   .     S
C1622  C1627   1.442   .     S
C1623  C1639   1.483   .     S
C1624  C1638   1.398   .     A
H1625  C1638   1.084   .     S
H1626  C1635   1.081   .     S
C1627  C1638   1.393   .     A
C1627  C1637   1.386   .     A
C1628  C1629   1.395   .     A
C1628  H1641   1.084   .     S
C1628  C1639   1.394   .     A
C1629  C1681   1.520   .     S
C1629  C730    1.426   1_556 S
C1630  C1671   1.532   .     S
C1631  C1632   1.425   .     A
C1631  C730    1.446   1_556 S
C1631  C733    1.432   1_556 S
C1632  C1636   1.412   .     A
C1632  C1639   1.414   .     A
C1633  C1637   1.396   .     A
C1634  C1635   1.392   .     A
C1634  C733    1.424   1_556 S
C1634  C724    1.419   1_556 S
C1635  C1636   1.380   .     A
C1636  H1642   1.079   .     S
C1637  H1640   1.073   .     S
C1643  C1744   1.371   .     S
C1643  C1791   1.529   .     S
C1645  H1046   1.088   1_565 S
C1645  C1047   1.345   1_565 S
C1648  H1657   1.112   .     S
C1648  H1656   1.112   .     S
C1648  C1744   1.538   .     S
C1648  C1749   1.542   .     S
C1649  H1654   1.111   .     S
C1649  H1655   1.112   .     S
C1650  H1652   1.111   .     S
C1650  H1653   1.110   .     S
C1650  H1651   1.110   .     S
C1650  C1749   1.527   .     S
N1658  O1660   1.302   .     A
N1658  C1047   1.438   1_565 S
N1658  O1059   1.301   1_565 S
C1661  H1669   1.110   .     S
C1661  C1662   1.531   .     S
C1661  C724    1.514   1_556 S
C1661  H770    1.113   1_556 S
C1662  H1668   1.110   .     S
C1662  H767    1.111   1_556 S
C1663  H1665   1.111   .     S
C1663  H1666   1.110   .     S
C1663  C1062   1.527   1_565 S
C1663  H1064   1.111   1_565 S
C1671  H1679   1.107   .     S
C1671  H1680   1.105   .     S
C1671  C1672   1.545   .     S
C1672  H1678   1.110   .     S
C1672  C1673   1.526   .     S
C1672  H1677   1.107   .     S
C1673  H1674   1.109   .     S
C1673  H1675   1.111   .     S
C1673  H1676   1.108   .     S
C1681  H1690   1.113   .     S
C1681  C782    1.533   1_556 S
C1681  H789    1.104   1_556 S
C1682  H1688   1.111   .     S
C1682  C1683   1.526   .     S
C1683  H1686   1.111   .     S
C1683  H1084   1.111   1_565 S
C1683  H1085   1.111   1_565 S
H1687  C782    1.112   1_556 S
C1691  H1700   1.112   .     S
C1691  C1692   1.535   .     S
C1691  H1699   1.110   .     S
C1692  H1698   1.112   .     S
C1692  C1693   1.525   .     S
C1693  H1694   1.110   .     S
C1693  H1695   1.111   .     S
C1693  H1696   1.111   .     S
H1697  C1792   1.112   .     S
Zn1701 O1705   1.957   .     S
Zn1701 O1713   1.929   .     S
Zn1701 O1707   1.938   .     S
Zn1701 O1714   1.932   .     S
Zn1702 O1716   1.937   .     S
Zn1702 O1705   1.949   .     S
Zn1702 O1710   1.934   .     S
Zn1702 O1708   1.937   .     S
Zn1703 O1712   1.935   .     S
Zn1703 O1709   1.931   .     S
Zn1703 O1705   1.946   .     S
Zn1703 O1717   1.944   .     S
Zn1704 O1706   1.943   .     S
Zn1704 O1711   1.940   .     S
Zn1704 O1705   1.935   .     S
Zn1704 O1715   1.936   .     S
O1706  C1718   1.271   .     A
O1707  C1719   1.273   .     A
O1708  C1720   1.279   .     A
O1709  C1721   1.280   .     A
O1710  C1722   1.276   .     A
O1711  C1723   1.288   .     A
O1712  C1722   1.277   .     A
O1713  C1723   1.284   .     A
O1714  C1720   1.271   .     A
O1715  C1721   1.268   .     A
O1716  C1718   1.261   .     A
O1717  C1719   1.292   .     A
C1718  C1744   1.433   .     S
C1719  C1743   1.468   .     S
C1720  C1747   1.428   .     S
C1721  C1745   1.451   .     S
C1722  C1727   1.442   .     S
C1723  C1739   1.483   .     S
C1724  C1738   1.398   .     A
H1725  C1738   1.084   .     S
H1726  C1735   1.081   .     S
C1727  C1738   1.393   .     A
C1727  C1737   1.386   .     A
C1728  C1729   1.395   .     A
C1728  H1741   1.084   .     S
C1728  C1739   1.394   .     A
C1729  C1781   1.520   .     S
C1729  C830    1.426   1_556 S
C1730  C1771   1.532   .     S
C1731  C1732   1.425   .     A
C1731  C830    1.446   1_556 S
C1731  C833    1.432   1_556 S
C1732  C1736   1.412   .     A
C1732  C1739   1.414   .     A
C1733  C1737   1.396   .     A
C1734  C1735   1.392   .     A
C1734  C833    1.424   1_556 S
C1734  C824    1.419   1_556 S
C1735  C1736   1.380   .     A
C1736  H1742   1.079   .     S
C1737  H1740   1.073   .     S
C1743  C1544   1.371   1_655 S
C1743  C1591   1.529   1_655 S
C1745  H1146   1.088   1_565 S
C1745  C1147   1.345   1_565 S
C1748  H1757   1.112   .     S
C1748  H1756   1.112   .     S
C1748  C1544   1.538   1_655 S
C1748  C1549   1.542   1_655 S
C1749  H1754   1.111   .     S
C1749  H1755   1.112   .     S
C1750  H1752   1.111   .     S
C1750  H1753   1.110   .     S
C1750  H1751   1.110   .     S
C1750  C1549   1.527   1_655 S
N1758  O1760   1.302   .     A
N1758  C1147   1.438   1_565 S
N1758  O1159   1.301   1_565 S
C1761  H1769   1.110   .     S
C1761  C1762   1.531   .     S
C1761  C824    1.514   1_556 S
C1761  H870    1.113   1_556 S
C1762  H1768   1.110   .     S
C1762  H867    1.111   1_556 S
C1763  H1765   1.111   .     S
C1763  H1766   1.110   .     S
C1763  C1162   1.527   1_565 S
C1763  H1164   1.111   1_565 S
C1771  H1779   1.107   .     S
C1771  H1780   1.105   .     S
C1771  C1772   1.545   .     S
C1772  H1778   1.110   .     S
C1772  C1773   1.526   .     S
C1772  H1777   1.107   .     S
C1773  H1774   1.109   .     S
C1773  H1775   1.111   .     S
C1773  H1776   1.108   .     S
C1781  H1790   1.113   .     S
C1781  C882    1.533   1_556 S
C1781  H889    1.104   1_556 S
C1782  H1788   1.111   .     S
C1782  C1783   1.526   .     S
C1783  H1786   1.111   .     S
C1783  H1184   1.111   1_565 S
C1783  H1185   1.111   1_565 S
H1787  C882    1.112   1_556 S
C1791  H1800   1.112   .     S
C1791  C1792   1.535   .     S
C1791  H1799   1.110   .     S
C1792  H1798   1.112   .     S
C1792  C1793   1.525   .     S
C1793  H1794   1.110   .     S
C1793  H1795   1.111   .     S
C1793  H1796   1.111   .     S
H1797  C1592   1.112   1_655 S
