data_str_m1_o10_o18_pcu_sym.248
_audit_creation_date              2020-01-03
_audit_creation_method            'Materials Studio'
_symmetry_space_group_name_H-M    'P1'
_symmetry_Int_Tables_number       1
_symmetry_cell_setting            triclinic
loop_
_symmetry_equiv_pos_as_xyz
  x,y,z
_cell_length_a                    32.5012
_cell_length_b                    32.7014
_cell_length_c                    35.8672
_cell_angle_alpha                 98.5282
_cell_angle_beta                  72.8203
_cell_angle_gamma                 98.2633
loop_
_atom_site_label
_atom_site_type_symbol
_atom_site_fract_x
_atom_site_fract_y
_atom_site_fract_z
_atom_site_U_iso_or_equiv
_atom_site_adp_type
_atom_site_occupancy
C1     C     0.05248   0.16007   0.25881   0.00000  Uiso   1.00
C2     C     0.20487   0.13770   0.45967   0.00000  Uiso   1.00
C3     C     0.22509   0.11778   0.47973   0.00000  Uiso   1.00
C4     C     0.28098   0.17358   0.24124   0.00000  Uiso   1.00
C5     C     0.21520   0.12451   0.02041   0.00000  Uiso   1.00
C6     C     0.18457   0.15247   0.04186   0.00000  Uiso   1.00
C7     C     0.23613   0.10361   0.03982   0.00000  Uiso   1.00
C8     C     0.22713   0.11008   0.08047   0.00000  Uiso   1.00
C9     C     0.17566   0.15792   0.08312   0.00000  Uiso   1.00
C10    C     0.32702   0.17618   0.23768   0.00000  Uiso   1.00
C11    C     0.00704   0.15805   0.26238   0.00000  Uiso   1.00
C12    C     0.10946   0.22713   0.42014   0.00000  Uiso   1.00
C13    C     0.17873   0.32207   0.23972   0.00000  Uiso   1.00
C14    C     0.14931   0.01315   0.26395   0.00000  Uiso   1.00
C15    C     0.15660   0.05636   0.25832   0.00000  Uiso   1.00
C16    C     0.17635   0.27765   0.24171   0.00000  Uiso   1.00
C17    C     0.18825   0.14522   0.14421   0.00000  Uiso   1.00
C18    C     0.14542   0.18788   0.35612   0.00000  Uiso   1.00
C19    C     0.13704   0.19736   0.39892   0.00000  Uiso   1.00
C20    C     0.19692   0.13716   0.10193   0.00000  Uiso   1.00
C21    C     0.10235   0.23569   0.46060   0.00000  Uiso   1.00
C22    C     0.10967   0.33168   0.29628   0.00000  Uiso   1.00
C23    C     0.15749   0.17643   0.41856   0.00000  Uiso   1.00
C24    C     0.08122   0.03240   0.31931   0.00000  Uiso   1.00
C25    C     0.15189   0.18531   0.45927   0.00000  Uiso   1.00
C26    C     0.12317   0.21501   0.48028   0.00000  Uiso   1.00
C27    C     0.17357   0.16531   0.47966   0.00000  Uiso   1.00
C28    C     0.16414   0.17373   0.02135   0.00000  Uiso   1.00
C29    C     0.13506   0.20348   0.04101   0.00000  Uiso   1.00
C30    C     0.11534   0.22382   0.02075   0.00000  Uiso   1.00
H31    H     0.25964   0.08241   0.02350   0.00000  Uiso   1.00
H32    H     0.17713   0.15284   0.40126   0.00000  Uiso   1.00
H33    H     0.12712   0.21246   0.07218   0.00000  Uiso   1.00
H34    H     0.21543   0.13114   0.42823   0.00000  Uiso   1.00
H35    H     0.09349   0.24656   0.03703   0.00000  Uiso   1.00
H36    H     0.10002   0.05694   0.33435   0.00000  Uiso   1.00
H37    H     0.06813   0.04645   0.29942   0.00000  Uiso   1.00
H38    H     0.05352   0.01864   0.34197   0.00000  Uiso   1.00
H39    H     0.08879   0.30762   0.28292   0.00000  Uiso   1.00
H40    H     0.12061   0.31809   0.31790   0.00000  Uiso   1.00
H41    H     0.01682   0.19281   0.21484   0.00000  Uiso   1.00
H42    H     0.31792   0.14149   0.28559   0.00000  Uiso   1.00
H43    H     0.20580   0.00229   0.21748   0.00000  Uiso   1.00
H44    H     0.15245   0.17795   0.10175   0.00000  Uiso   1.00
H45    H     0.24375   0.09413   0.09519   0.00000  Uiso   1.00
H46    H     0.24884   0.09690   0.46314   0.00000  Uiso   1.00
H47    H     0.08058   0.25859   0.47654   0.00000  Uiso   1.00
H48    H     0.09326   0.24368   0.40554   0.00000  Uiso   1.00
O49    O     0.16667   0.16667   0.25000   0.00000  Uiso   1.00
O50    O     0.15693   0.12393   0.16625   0.00000  Uiso   1.00
O51    O     0.12687   0.20646   0.33749   0.00000  Uiso   1.00
O52    O     0.21088   0.17493   0.15877   0.00000  Uiso   1.00
O53    O     0.17198   0.16135   0.33749   0.00000  Uiso   1.00
O54    O     0.17849   0.08101   0.27820   0.00000  Uiso   1.00
O55    O     0.14581   0.26136   0.26767   0.00000  Uiso   1.00
O56    O     0.07452   0.13251   0.23607   0.00000  Uiso   1.00
O57    O     0.26785   0.19179   0.21805   0.00000  Uiso   1.00
O58    O     0.06990   0.18960   0.27820   0.00000  Uiso   1.00
O59    O     0.25440   0.15277   0.26767   0.00000  Uiso   1.00
O60    O     0.13800   0.06903   0.23607   0.00000  Uiso   1.00
O61    O     0.20437   0.25527   0.21805   0.00000  Uiso   1.00
Zn62   Zn    0.19244   0.14090   0.28277   0.00000  Uiso   1.00
Zn63   Zn    0.13459   0.12378   0.22257   0.00000  Uiso   1.00
Zn64   Zn    0.21166   0.19664   0.21188   0.00000  Uiso   1.00
Zn65   Zn    0.12798   0.20535   0.28277   0.00000  Uiso   1.00
C66    C     0.38581   0.16007   0.25881   0.00000  Uiso   1.00
C67    C     0.53820   0.13770   0.45967   0.00000  Uiso   1.00
C68    C     0.55842   0.11778   0.47973   0.00000  Uiso   1.00
C69    C     0.61431   0.17358   0.24124   0.00000  Uiso   1.00
C70    C     0.54854   0.12451   0.02041   0.00000  Uiso   1.00
C71    C     0.51791   0.15247   0.04186   0.00000  Uiso   1.00
C72    C     0.56946   0.10361   0.03982   0.00000  Uiso   1.00
C73    C     0.56046   0.11008   0.08047   0.00000  Uiso   1.00
C74    C     0.50900   0.15792   0.08312   0.00000  Uiso   1.00
C75    C     0.66036   0.17618   0.23768   0.00000  Uiso   1.00
C76    C     0.34037   0.15805   0.26238   0.00000  Uiso   1.00
C77    C     0.44279   0.22713   0.42014   0.00000  Uiso   1.00
C78    C     0.51206   0.32207   0.23972   0.00000  Uiso   1.00
C79    C     0.48264   0.01315   0.26395   0.00000  Uiso   1.00
C80    C     0.48993   0.05636   0.25832   0.00000  Uiso   1.00
C81    C     0.50969   0.27765   0.24171   0.00000  Uiso   1.00
C82    C     0.52159   0.14522   0.14421   0.00000  Uiso   1.00
C83    C     0.47875   0.18788   0.35612   0.00000  Uiso   1.00
C84    C     0.47038   0.19736   0.39892   0.00000  Uiso   1.00
C85    C     0.53026   0.13716   0.10193   0.00000  Uiso   1.00
C86    C     0.43569   0.23569   0.46060   0.00000  Uiso   1.00
C87    C     0.44301   0.33168   0.29628   0.00000  Uiso   1.00
C88    C     0.49082   0.17643   0.41856   0.00000  Uiso   1.00
C89    C     0.41456   0.03240   0.31931   0.00000  Uiso   1.00
C90    C     0.48523   0.18531   0.45927   0.00000  Uiso   1.00
C91    C     0.45651   0.21501   0.48028   0.00000  Uiso   1.00
C92    C     0.50691   0.16531   0.47966   0.00000  Uiso   1.00
C93    C     0.49747   0.17373   0.02135   0.00000  Uiso   1.00
C94    C     0.46840   0.20348   0.04101   0.00000  Uiso   1.00
C95    C     0.44867   0.22382   0.02075   0.00000  Uiso   1.00
H96    H     0.59298   0.08241   0.02350   0.00000  Uiso   1.00
H97    H     0.51047   0.15284   0.40126   0.00000  Uiso   1.00
H98    H     0.46046   0.21246   0.07218   0.00000  Uiso   1.00
H99    H     0.54877   0.13114   0.42823   0.00000  Uiso   1.00
H100   H     0.42682   0.24656   0.03703   0.00000  Uiso   1.00
H101   H     0.43335   0.05694   0.33435   0.00000  Uiso   1.00
H102   H     0.40146   0.04645   0.29942   0.00000  Uiso   1.00
H103   H     0.38685   0.01864   0.34197   0.00000  Uiso   1.00
H104   H     0.42213   0.30762   0.28292   0.00000  Uiso   1.00
H105   H     0.45394   0.31809   0.31790   0.00000  Uiso   1.00
H106   H     0.35016   0.19281   0.21484   0.00000  Uiso   1.00
H107   H     0.65125   0.14149   0.28559   0.00000  Uiso   1.00
H108   H     0.53913   0.00229   0.21748   0.00000  Uiso   1.00
H109   H     0.48578   0.17795   0.10175   0.00000  Uiso   1.00
H110   H     0.57708   0.09413   0.09519   0.00000  Uiso   1.00
H111   H     0.58217   0.09690   0.46314   0.00000  Uiso   1.00
H112   H     0.41391   0.25859   0.47654   0.00000  Uiso   1.00
H113   H     0.42660   0.24368   0.40554   0.00000  Uiso   1.00
O114   O     0.50000   0.16667   0.25000   0.00000  Uiso   1.00
O115   O     0.49027   0.12393   0.16625   0.00000  Uiso   1.00
O116   O     0.46020   0.20646   0.33749   0.00000  Uiso   1.00
O117   O     0.54421   0.17493   0.15877   0.00000  Uiso   1.00
O118   O     0.50532   0.16135   0.33749   0.00000  Uiso   1.00
O119   O     0.51182   0.08101   0.27820   0.00000  Uiso   1.00
O120   O     0.47914   0.26136   0.26767   0.00000  Uiso   1.00
O121   O     0.40785   0.13251   0.23607   0.00000  Uiso   1.00
O122   O     0.60119   0.19179   0.21805   0.00000  Uiso   1.00
O123   O     0.40323   0.18960   0.27820   0.00000  Uiso   1.00
O124   O     0.58773   0.15277   0.26767   0.00000  Uiso   1.00
O125   O     0.47133   0.06903   0.23607   0.00000  Uiso   1.00
O126   O     0.53771   0.25527   0.21805   0.00000  Uiso   1.00
Zn127  Zn    0.52577   0.14090   0.28277   0.00000  Uiso   1.00
Zn128  Zn    0.46792   0.12378   0.22257   0.00000  Uiso   1.00
Zn129  Zn    0.54500   0.19664   0.21188   0.00000  Uiso   1.00
Zn130  Zn    0.46131   0.20535   0.28277   0.00000  Uiso   1.00
C131   C     0.71914   0.16007   0.25881   0.00000  Uiso   1.00
C132   C     0.87153   0.13770   0.45967   0.00000  Uiso   1.00
C133   C     0.89176   0.11778   0.47973   0.00000  Uiso   1.00
C134   C     0.94765   0.17358   0.24124   0.00000  Uiso   1.00
C135   C     0.88187   0.12451   0.02041   0.00000  Uiso   1.00
C136   C     0.85124   0.15247   0.04186   0.00000  Uiso   1.00
C137   C     0.90279   0.10361   0.03982   0.00000  Uiso   1.00
C138   C     0.89380   0.11008   0.08047   0.00000  Uiso   1.00
C139   C     0.84233   0.15792   0.08312   0.00000  Uiso   1.00
C140   C     0.99369   0.17618   0.23768   0.00000  Uiso   1.00
C141   C     0.67371   0.15805   0.26238   0.00000  Uiso   1.00
C142   C     0.77612   0.22713   0.42014   0.00000  Uiso   1.00
C143   C     0.84539   0.32207   0.23972   0.00000  Uiso   1.00
C144   C     0.81598   0.01315   0.26395   0.00000  Uiso   1.00
C145   C     0.82327   0.05636   0.25832   0.00000  Uiso   1.00
C146   C     0.84302   0.27765   0.24171   0.00000  Uiso   1.00
C147   C     0.85492   0.14522   0.14421   0.00000  Uiso   1.00
C148   C     0.81208   0.18788   0.35612   0.00000  Uiso   1.00
C149   C     0.80371   0.19736   0.39892   0.00000  Uiso   1.00
C150   C     0.86359   0.13716   0.10193   0.00000  Uiso   1.00
C151   C     0.76902   0.23569   0.46060   0.00000  Uiso   1.00
C152   C     0.77634   0.33168   0.29628   0.00000  Uiso   1.00
C153   C     0.82415   0.17643   0.41856   0.00000  Uiso   1.00
C154   C     0.74789   0.03240   0.31931   0.00000  Uiso   1.00
C155   C     0.81856   0.18531   0.45927   0.00000  Uiso   1.00
C156   C     0.78984   0.21501   0.48028   0.00000  Uiso   1.00
C157   C     0.84024   0.16531   0.47966   0.00000  Uiso   1.00
C158   C     0.83081   0.17373   0.02135   0.00000  Uiso   1.00
C159   C     0.80173   0.20348   0.04101   0.00000  Uiso   1.00
C160   C     0.78200   0.22382   0.02075   0.00000  Uiso   1.00
H161   H     0.92631   0.08241   0.02350   0.00000  Uiso   1.00
H162   H     0.84380   0.15284   0.40126   0.00000  Uiso   1.00
H163   H     0.79379   0.21246   0.07218   0.00000  Uiso   1.00
H164   H     0.88210   0.13114   0.42823   0.00000  Uiso   1.00
H165   H     0.76016   0.24656   0.03703   0.00000  Uiso   1.00
H166   H     0.76669   0.05694   0.33435   0.00000  Uiso   1.00
H167   H     0.73479   0.04645   0.29942   0.00000  Uiso   1.00
H168   H     0.72019   0.01864   0.34197   0.00000  Uiso   1.00
H169   H     0.75546   0.30762   0.28292   0.00000  Uiso   1.00
H170   H     0.78728   0.31809   0.31790   0.00000  Uiso   1.00
H171   H     0.68349   0.19281   0.21484   0.00000  Uiso   1.00
H172   H     0.98458   0.14149   0.28559   0.00000  Uiso   1.00
H173   H     0.87247   0.00229   0.21748   0.00000  Uiso   1.00
H174   H     0.81911   0.17795   0.10175   0.00000  Uiso   1.00
H175   H     0.91041   0.09413   0.09519   0.00000  Uiso   1.00
H176   H     0.91550   0.09690   0.46314   0.00000  Uiso   1.00
H177   H     0.74725   0.25859   0.47654   0.00000  Uiso   1.00
H178   H     0.75993   0.24368   0.40554   0.00000  Uiso   1.00
O179   O     0.83333   0.16667   0.25000   0.00000  Uiso   1.00
O180   O     0.82360   0.12393   0.16625   0.00000  Uiso   1.00
O181   O     0.79354   0.20646   0.33749   0.00000  Uiso   1.00
O182   O     0.87755   0.17493   0.15877   0.00000  Uiso   1.00
O183   O     0.83865   0.16135   0.33749   0.00000  Uiso   1.00
O184   O     0.84515   0.08101   0.27820   0.00000  Uiso   1.00
O185   O     0.81247   0.26136   0.26767   0.00000  Uiso   1.00
O186   O     0.74119   0.13251   0.23607   0.00000  Uiso   1.00
O187   O     0.93452   0.19179   0.21805   0.00000  Uiso   1.00
O188   O     0.73656   0.18960   0.27820   0.00000  Uiso   1.00
O189   O     0.92106   0.15277   0.26767   0.00000  Uiso   1.00
O190   O     0.80467   0.06903   0.23607   0.00000  Uiso   1.00
O191   O     0.87104   0.25527   0.21805   0.00000  Uiso   1.00
Zn192  Zn    0.85910   0.14090   0.28277   0.00000  Uiso   1.00
Zn193  Zn    0.80125   0.12378   0.22257   0.00000  Uiso   1.00
Zn194  Zn    0.87833   0.19664   0.21188   0.00000  Uiso   1.00
Zn195  Zn    0.79465   0.20535   0.28277   0.00000  Uiso   1.00
C196   C     0.05248   0.49340   0.25881   0.00000  Uiso   1.00
C197   C     0.20487   0.47103   0.45967   0.00000  Uiso   1.00
C198   C     0.22509   0.45112   0.47973   0.00000  Uiso   1.00
C199   C     0.28098   0.50692   0.24124   0.00000  Uiso   1.00
C200   C     0.21520   0.45784   0.02041   0.00000  Uiso   1.00
C201   C     0.18457   0.48581   0.04186   0.00000  Uiso   1.00
C202   C     0.23613   0.43694   0.03982   0.00000  Uiso   1.00
C203   C     0.22713   0.44342   0.08047   0.00000  Uiso   1.00
C204   C     0.17566   0.49125   0.08312   0.00000  Uiso   1.00
C205   C     0.32702   0.50951   0.23768   0.00000  Uiso   1.00
C206   C     0.00704   0.49138   0.26238   0.00000  Uiso   1.00
C207   C     0.10946   0.56046   0.42014   0.00000  Uiso   1.00
C208   C     0.17873   0.65540   0.23972   0.00000  Uiso   1.00
C209   C     0.14931   0.34649   0.26395   0.00000  Uiso   1.00
C210   C     0.15660   0.38970   0.25832   0.00000  Uiso   1.00
C211   C     0.17635   0.61098   0.24171   0.00000  Uiso   1.00
C212   C     0.18825   0.47856   0.14421   0.00000  Uiso   1.00
C213   C     0.14542   0.52122   0.35612   0.00000  Uiso   1.00
C214   C     0.13704   0.53069   0.39892   0.00000  Uiso   1.00
C215   C     0.19692   0.47050   0.10193   0.00000  Uiso   1.00
C216   C     0.10235   0.56902   0.46060   0.00000  Uiso   1.00
C217   C     0.10967   0.66501   0.29628   0.00000  Uiso   1.00
C218   C     0.15749   0.50976   0.41856   0.00000  Uiso   1.00
C219   C     0.08122   0.36573   0.31931   0.00000  Uiso   1.00
C220   C     0.15189   0.51865   0.45927   0.00000  Uiso   1.00
C221   C     0.12317   0.54834   0.48028   0.00000  Uiso   1.00
C222   C     0.17357   0.49864   0.47966   0.00000  Uiso   1.00
C223   C     0.16414   0.50707   0.02135   0.00000  Uiso   1.00
C224   C     0.13506   0.53681   0.04101   0.00000  Uiso   1.00
C225   C     0.11534   0.55715   0.02075   0.00000  Uiso   1.00
H226   H     0.25964   0.41575   0.02350   0.00000  Uiso   1.00
H227   H     0.17713   0.48617   0.40126   0.00000  Uiso   1.00
H228   H     0.12712   0.54580   0.07218   0.00000  Uiso   1.00
H229   H     0.21543   0.46448   0.42823   0.00000  Uiso   1.00
H230   H     0.09349   0.57989   0.03703   0.00000  Uiso   1.00
H231   H     0.10002   0.39028   0.33435   0.00000  Uiso   1.00
H232   H     0.06813   0.37978   0.29942   0.00000  Uiso   1.00
H233   H     0.05352   0.35198   0.34197   0.00000  Uiso   1.00
H234   H     0.08879   0.64096   0.28292   0.00000  Uiso   1.00
H235   H     0.12061   0.65143   0.31790   0.00000  Uiso   1.00
H236   H     0.01682   0.52615   0.21484   0.00000  Uiso   1.00
H237   H     0.31792   0.47482   0.28559   0.00000  Uiso   1.00
H238   H     0.20580   0.33562   0.21748   0.00000  Uiso   1.00
H239   H     0.15245   0.51128   0.10175   0.00000  Uiso   1.00
H240   H     0.24375   0.42746   0.09519   0.00000  Uiso   1.00
H241   H     0.24884   0.43023   0.46314   0.00000  Uiso   1.00
H242   H     0.08058   0.59192   0.47654   0.00000  Uiso   1.00
H243   H     0.09326   0.57701   0.40554   0.00000  Uiso   1.00
O244   O     0.16667   0.50000   0.25000   0.00000  Uiso   1.00
O245   O     0.15693   0.45726   0.16625   0.00000  Uiso   1.00
O246   O     0.12687   0.53979   0.33749   0.00000  Uiso   1.00
O247   O     0.21088   0.50826   0.15877   0.00000  Uiso   1.00
O248   O     0.17198   0.49468   0.33749   0.00000  Uiso   1.00
O249   O     0.17849   0.41434   0.27820   0.00000  Uiso   1.00
O250   O     0.14581   0.59469   0.26767   0.00000  Uiso   1.00
O251   O     0.07452   0.46584   0.23607   0.00000  Uiso   1.00
O252   O     0.26785   0.52512   0.21805   0.00000  Uiso   1.00
O253   O     0.06990   0.52293   0.27820   0.00000  Uiso   1.00
O254   O     0.25440   0.48610   0.26767   0.00000  Uiso   1.00
O255   O     0.13800   0.40236   0.23607   0.00000  Uiso   1.00
O256   O     0.20437   0.58860   0.21805   0.00000  Uiso   1.00
Zn257  Zn    0.19244   0.47423   0.28277   0.00000  Uiso   1.00
Zn258  Zn    0.13459   0.45711   0.22257   0.00000  Uiso   1.00
Zn259  Zn    0.21166   0.52997   0.21188   0.00000  Uiso   1.00
Zn260  Zn    0.12798   0.53868   0.28277   0.00000  Uiso   1.00
C261   C     0.38581   0.49340   0.25881   0.00000  Uiso   1.00
C262   C     0.53820   0.47103   0.45967   0.00000  Uiso   1.00
C263   C     0.55842   0.45112   0.47973   0.00000  Uiso   1.00
C264   C     0.61431   0.50692   0.24124   0.00000  Uiso   1.00
C265   C     0.54854   0.45784   0.02041   0.00000  Uiso   1.00
C266   C     0.51791   0.48581   0.04186   0.00000  Uiso   1.00
C267   C     0.56946   0.43694   0.03982   0.00000  Uiso   1.00
C268   C     0.56046   0.44342   0.08047   0.00000  Uiso   1.00
C269   C     0.50900   0.49125   0.08312   0.00000  Uiso   1.00
C270   C     0.66036   0.50951   0.23768   0.00000  Uiso   1.00
C271   C     0.34037   0.49138   0.26238   0.00000  Uiso   1.00
C272   C     0.44279   0.56046   0.42014   0.00000  Uiso   1.00
C273   C     0.51206   0.65540   0.23972   0.00000  Uiso   1.00
C274   C     0.48264   0.34649   0.26395   0.00000  Uiso   1.00
C275   C     0.48993   0.38970   0.25832   0.00000  Uiso   1.00
C276   C     0.50969   0.61098   0.24171   0.00000  Uiso   1.00
C277   C     0.52159   0.47856   0.14421   0.00000  Uiso   1.00
C278   C     0.47875   0.52122   0.35612   0.00000  Uiso   1.00
C279   C     0.47038   0.53069   0.39892   0.00000  Uiso   1.00
C280   C     0.53026   0.47050   0.10193   0.00000  Uiso   1.00
C281   C     0.43569   0.56902   0.46060   0.00000  Uiso   1.00
C282   C     0.44301   0.66501   0.29628   0.00000  Uiso   1.00
C283   C     0.49082   0.50976   0.41856   0.00000  Uiso   1.00
C284   C     0.41456   0.36573   0.31931   0.00000  Uiso   1.00
C285   C     0.48523   0.51865   0.45927   0.00000  Uiso   1.00
C286   C     0.45651   0.54834   0.48028   0.00000  Uiso   1.00
C287   C     0.50691   0.49864   0.47966   0.00000  Uiso   1.00
C288   C     0.49747   0.50707   0.02135   0.00000  Uiso   1.00
C289   C     0.46840   0.53681   0.04101   0.00000  Uiso   1.00
C290   C     0.44867   0.55715   0.02075   0.00000  Uiso   1.00
H291   H     0.59298   0.41575   0.02350   0.00000  Uiso   1.00
H292   H     0.51047   0.48617   0.40126   0.00000  Uiso   1.00
H293   H     0.46046   0.54580   0.07218   0.00000  Uiso   1.00
H294   H     0.54877   0.46448   0.42823   0.00000  Uiso   1.00
H295   H     0.42682   0.57989   0.03703   0.00000  Uiso   1.00
H296   H     0.43335   0.39028   0.33435   0.00000  Uiso   1.00
H297   H     0.40146   0.37978   0.29942   0.00000  Uiso   1.00
H298   H     0.38685   0.35198   0.34197   0.00000  Uiso   1.00
H299   H     0.42213   0.64096   0.28292   0.00000  Uiso   1.00
H300   H     0.45394   0.65143   0.31790   0.00000  Uiso   1.00
H301   H     0.35016   0.52615   0.21484   0.00000  Uiso   1.00
H302   H     0.65125   0.47482   0.28559   0.00000  Uiso   1.00
H303   H     0.53913   0.33562   0.21748   0.00000  Uiso   1.00
H304   H     0.48578   0.51128   0.10175   0.00000  Uiso   1.00
H305   H     0.57708   0.42746   0.09519   0.00000  Uiso   1.00
H306   H     0.58217   0.43023   0.46314   0.00000  Uiso   1.00
H307   H     0.41391   0.59192   0.47654   0.00000  Uiso   1.00
H308   H     0.42660   0.57701   0.40554   0.00000  Uiso   1.00
O309   O     0.50000   0.50000   0.25000   0.00000  Uiso   1.00
O310   O     0.49027   0.45726   0.16625   0.00000  Uiso   1.00
O311   O     0.46020   0.53979   0.33749   0.00000  Uiso   1.00
O312   O     0.54421   0.50826   0.15877   0.00000  Uiso   1.00
O313   O     0.50532   0.49468   0.33749   0.00000  Uiso   1.00
O314   O     0.51182   0.41434   0.27820   0.00000  Uiso   1.00
O315   O     0.47914   0.59469   0.26767   0.00000  Uiso   1.00
O316   O     0.40785   0.46584   0.23607   0.00000  Uiso   1.00
O317   O     0.60119   0.52512   0.21805   0.00000  Uiso   1.00
O318   O     0.40323   0.52293   0.27820   0.00000  Uiso   1.00
O319   O     0.58773   0.48610   0.26767   0.00000  Uiso   1.00
O320   O     0.47133   0.40236   0.23607   0.00000  Uiso   1.00
O321   O     0.53771   0.58860   0.21805   0.00000  Uiso   1.00
Zn322  Zn    0.52577   0.47423   0.28277   0.00000  Uiso   1.00
Zn323  Zn    0.46792   0.45711   0.22257   0.00000  Uiso   1.00
Zn324  Zn    0.54500   0.52997   0.21188   0.00000  Uiso   1.00
Zn325  Zn    0.46131   0.53868   0.28277   0.00000  Uiso   1.00
C326   C     0.71914   0.49340   0.25881   0.00000  Uiso   1.00
C327   C     0.87153   0.47103   0.45967   0.00000  Uiso   1.00
C328   C     0.89176   0.45112   0.47973   0.00000  Uiso   1.00
C329   C     0.94765   0.50692   0.24124   0.00000  Uiso   1.00
C330   C     0.88187   0.45784   0.02041   0.00000  Uiso   1.00
C331   C     0.85124   0.48581   0.04186   0.00000  Uiso   1.00
C332   C     0.90279   0.43694   0.03982   0.00000  Uiso   1.00
C333   C     0.89380   0.44342   0.08047   0.00000  Uiso   1.00
C334   C     0.84233   0.49125   0.08312   0.00000  Uiso   1.00
C335   C     0.99369   0.50951   0.23768   0.00000  Uiso   1.00
C336   C     0.67371   0.49138   0.26238   0.00000  Uiso   1.00
C337   C     0.77612   0.56046   0.42014   0.00000  Uiso   1.00
C338   C     0.84539   0.65540   0.23972   0.00000  Uiso   1.00
C339   C     0.81598   0.34649   0.26395   0.00000  Uiso   1.00
C340   C     0.82327   0.38970   0.25832   0.00000  Uiso   1.00
C341   C     0.84302   0.61098   0.24171   0.00000  Uiso   1.00
C342   C     0.85492   0.47856   0.14421   0.00000  Uiso   1.00
C343   C     0.81208   0.52122   0.35612   0.00000  Uiso   1.00
C344   C     0.80371   0.53069   0.39892   0.00000  Uiso   1.00
C345   C     0.86359   0.47050   0.10193   0.00000  Uiso   1.00
C346   C     0.76902   0.56902   0.46060   0.00000  Uiso   1.00
C347   C     0.77634   0.66501   0.29628   0.00000  Uiso   1.00
C348   C     0.82415   0.50976   0.41856   0.00000  Uiso   1.00
C349   C     0.74789   0.36573   0.31931   0.00000  Uiso   1.00
C350   C     0.81856   0.51865   0.45927   0.00000  Uiso   1.00
C351   C     0.78984   0.54834   0.48028   0.00000  Uiso   1.00
C352   C     0.84024   0.49864   0.47966   0.00000  Uiso   1.00
C353   C     0.83081   0.50707   0.02135   0.00000  Uiso   1.00
C354   C     0.80173   0.53681   0.04101   0.00000  Uiso   1.00
C355   C     0.78200   0.55715   0.02075   0.00000  Uiso   1.00
H356   H     0.92631   0.41575   0.02350   0.00000  Uiso   1.00
H357   H     0.84380   0.48617   0.40126   0.00000  Uiso   1.00
H358   H     0.79379   0.54580   0.07218   0.00000  Uiso   1.00
H359   H     0.88210   0.46448   0.42823   0.00000  Uiso   1.00
H360   H     0.76016   0.57989   0.03703   0.00000  Uiso   1.00
H361   H     0.76669   0.39028   0.33435   0.00000  Uiso   1.00
H362   H     0.73479   0.37978   0.29942   0.00000  Uiso   1.00
H363   H     0.72019   0.35198   0.34197   0.00000  Uiso   1.00
H364   H     0.75546   0.64096   0.28292   0.00000  Uiso   1.00
H365   H     0.78728   0.65143   0.31790   0.00000  Uiso   1.00
H366   H     0.68349   0.52615   0.21484   0.00000  Uiso   1.00
H367   H     0.98458   0.47482   0.28559   0.00000  Uiso   1.00
H368   H     0.87247   0.33562   0.21748   0.00000  Uiso   1.00
H369   H     0.81911   0.51128   0.10175   0.00000  Uiso   1.00
H370   H     0.91041   0.42746   0.09519   0.00000  Uiso   1.00
H371   H     0.91550   0.43023   0.46314   0.00000  Uiso   1.00
H372   H     0.74725   0.59192   0.47654   0.00000  Uiso   1.00
H373   H     0.75993   0.57701   0.40554   0.00000  Uiso   1.00
O374   O     0.83333   0.50000   0.25000   0.00000  Uiso   1.00
O375   O     0.82360   0.45726   0.16625   0.00000  Uiso   1.00
O376   O     0.79354   0.53979   0.33749   0.00000  Uiso   1.00
O377   O     0.87755   0.50826   0.15877   0.00000  Uiso   1.00
O378   O     0.83865   0.49468   0.33749   0.00000  Uiso   1.00
O379   O     0.84515   0.41434   0.27820   0.00000  Uiso   1.00
O380   O     0.81247   0.59469   0.26767   0.00000  Uiso   1.00
O381   O     0.74119   0.46584   0.23607   0.00000  Uiso   1.00
O382   O     0.93452   0.52512   0.21805   0.00000  Uiso   1.00
O383   O     0.73656   0.52293   0.27820   0.00000  Uiso   1.00
O384   O     0.92106   0.48610   0.26767   0.00000  Uiso   1.00
O385   O     0.80467   0.40236   0.23607   0.00000  Uiso   1.00
O386   O     0.87104   0.58860   0.21805   0.00000  Uiso   1.00
Zn387  Zn    0.85910   0.47423   0.28277   0.00000  Uiso   1.00
Zn388  Zn    0.80125   0.45711   0.22257   0.00000  Uiso   1.00
Zn389  Zn    0.87833   0.52997   0.21188   0.00000  Uiso   1.00
Zn390  Zn    0.79465   0.53868   0.28277   0.00000  Uiso   1.00
C391   C     0.05248   0.82674   0.25881   0.00000  Uiso   1.00
C392   C     0.20487   0.80437   0.45967   0.00000  Uiso   1.00
C393   C     0.22509   0.78445   0.47973   0.00000  Uiso   1.00
C394   C     0.28098   0.84025   0.24124   0.00000  Uiso   1.00
C395   C     0.21520   0.79118   0.02041   0.00000  Uiso   1.00
C396   C     0.18457   0.81914   0.04186   0.00000  Uiso   1.00
C397   C     0.23613   0.77028   0.03982   0.00000  Uiso   1.00
C398   C     0.22713   0.77675   0.08047   0.00000  Uiso   1.00
C399   C     0.17566   0.82459   0.08312   0.00000  Uiso   1.00
C400   C     0.32702   0.84285   0.23768   0.00000  Uiso   1.00
C401   C     0.00704   0.82472   0.26238   0.00000  Uiso   1.00
C402   C     0.10946   0.89379   0.42014   0.00000  Uiso   1.00
C403   C     0.17873   0.98874   0.23972   0.00000  Uiso   1.00
C404   C     0.14931   0.67982   0.26395   0.00000  Uiso   1.00
C405   C     0.15660   0.72303   0.25832   0.00000  Uiso   1.00
C406   C     0.17635   0.94432   0.24171   0.00000  Uiso   1.00
C407   C     0.18825   0.81189   0.14421   0.00000  Uiso   1.00
C408   C     0.14542   0.85455   0.35612   0.00000  Uiso   1.00
C409   C     0.13704   0.86402   0.39892   0.00000  Uiso   1.00
C410   C     0.19692   0.80383   0.10193   0.00000  Uiso   1.00
C411   C     0.10235   0.90236   0.46060   0.00000  Uiso   1.00
C412   C     0.10967   0.99834   0.29628   0.00000  Uiso   1.00
C413   C     0.15749   0.84309   0.41856   0.00000  Uiso   1.00
C414   C     0.08122   0.69907   0.31931   0.00000  Uiso   1.00
C415   C     0.15189   0.85198   0.45927   0.00000  Uiso   1.00
C416   C     0.12317   0.88168   0.48028   0.00000  Uiso   1.00
C417   C     0.17357   0.83198   0.47966   0.00000  Uiso   1.00
C418   C     0.16414   0.84040   0.02135   0.00000  Uiso   1.00
C419   C     0.13506   0.87015   0.04101   0.00000  Uiso   1.00
C420   C     0.11534   0.89049   0.02075   0.00000  Uiso   1.00
H421   H     0.25964   0.74908   0.02350   0.00000  Uiso   1.00
H422   H     0.17713   0.81951   0.40126   0.00000  Uiso   1.00
H423   H     0.12712   0.87913   0.07218   0.00000  Uiso   1.00
H424   H     0.21543   0.79781   0.42823   0.00000  Uiso   1.00
H425   H     0.09349   0.91322   0.03703   0.00000  Uiso   1.00
H426   H     0.10002   0.72361   0.33435   0.00000  Uiso   1.00
H427   H     0.06813   0.71311   0.29942   0.00000  Uiso   1.00
H428   H     0.05352   0.68531   0.34197   0.00000  Uiso   1.00
H429   H     0.08879   0.97429   0.28292   0.00000  Uiso   1.00
H430   H     0.12061   0.98476   0.31790   0.00000  Uiso   1.00
H431   H     0.01682   0.85948   0.21484   0.00000  Uiso   1.00
H432   H     0.31792   0.80816   0.28559   0.00000  Uiso   1.00
H433   H     0.20580   0.66896   0.21748   0.00000  Uiso   1.00
H434   H     0.15245   0.84461   0.10175   0.00000  Uiso   1.00
H435   H     0.24375   0.76079   0.09519   0.00000  Uiso   1.00
H436   H     0.24884   0.76356   0.46314   0.00000  Uiso   1.00
H437   H     0.08058   0.92526   0.47654   0.00000  Uiso   1.00
H438   H     0.09326   0.91034   0.40554   0.00000  Uiso   1.00
O439   O     0.16667   0.83333   0.25000   0.00000  Uiso   1.00
O440   O     0.15693   0.79060   0.16625   0.00000  Uiso   1.00
O441   O     0.12687   0.87313   0.33749   0.00000  Uiso   1.00
O442   O     0.21088   0.84159   0.15877   0.00000  Uiso   1.00
O443   O     0.17198   0.82802   0.33749   0.00000  Uiso   1.00
O444   O     0.17849   0.74768   0.27820   0.00000  Uiso   1.00
O445   O     0.14581   0.92803   0.26767   0.00000  Uiso   1.00
O446   O     0.07452   0.79917   0.23607   0.00000  Uiso   1.00
O447   O     0.26785   0.85845   0.21805   0.00000  Uiso   1.00
O448   O     0.06990   0.85627   0.27820   0.00000  Uiso   1.00
O449   O     0.25440   0.81944   0.26767   0.00000  Uiso   1.00
O450   O     0.13800   0.73570   0.23607   0.00000  Uiso   1.00
O451   O     0.20437   0.92193   0.21805   0.00000  Uiso   1.00
Zn452  Zn    0.19244   0.80756   0.28277   0.00000  Uiso   1.00
Zn453  Zn    0.13459   0.79044   0.22257   0.00000  Uiso   1.00
Zn454  Zn    0.21166   0.86331   0.21188   0.00000  Uiso   1.00
Zn455  Zn    0.12798   0.87202   0.28277   0.00000  Uiso   1.00
C456   C     0.38581   0.82674   0.25881   0.00000  Uiso   1.00
C457   C     0.53820   0.80437   0.45967   0.00000  Uiso   1.00
C458   C     0.55842   0.78445   0.47973   0.00000  Uiso   1.00
C459   C     0.61431   0.84025   0.24124   0.00000  Uiso   1.00
C460   C     0.54854   0.79118   0.02041   0.00000  Uiso   1.00
C461   C     0.51791   0.81914   0.04186   0.00000  Uiso   1.00
C462   C     0.56946   0.77028   0.03982   0.00000  Uiso   1.00
C463   C     0.56046   0.77675   0.08047   0.00000  Uiso   1.00
C464   C     0.50900   0.82459   0.08312   0.00000  Uiso   1.00
C465   C     0.66036   0.84285   0.23768   0.00000  Uiso   1.00
C466   C     0.34037   0.82472   0.26238   0.00000  Uiso   1.00
C467   C     0.44279   0.89379   0.42014   0.00000  Uiso   1.00
C468   C     0.51206   0.98874   0.23972   0.00000  Uiso   1.00
C469   C     0.48264   0.67982   0.26395   0.00000  Uiso   1.00
C470   C     0.48993   0.72303   0.25832   0.00000  Uiso   1.00
C471   C     0.50969   0.94432   0.24171   0.00000  Uiso   1.00
C472   C     0.52159   0.81189   0.14421   0.00000  Uiso   1.00
C473   C     0.47875   0.85455   0.35612   0.00000  Uiso   1.00
C474   C     0.47038   0.86402   0.39892   0.00000  Uiso   1.00
C475   C     0.53026   0.80383   0.10193   0.00000  Uiso   1.00
C476   C     0.43569   0.90236   0.46060   0.00000  Uiso   1.00
C477   C     0.44301   0.99834   0.29628   0.00000  Uiso   1.00
C478   C     0.49082   0.84309   0.41856   0.00000  Uiso   1.00
C479   C     0.41456   0.69907   0.31931   0.00000  Uiso   1.00
C480   C     0.48523   0.85198   0.45927   0.00000  Uiso   1.00
C481   C     0.45651   0.88168   0.48028   0.00000  Uiso   1.00
C482   C     0.50691   0.83198   0.47966   0.00000  Uiso   1.00
C483   C     0.49747   0.84040   0.02135   0.00000  Uiso   1.00
C484   C     0.46840   0.87015   0.04101   0.00000  Uiso   1.00
C485   C     0.44867   0.89049   0.02075   0.00000  Uiso   1.00
H486   H     0.59298   0.74908   0.02350   0.00000  Uiso   1.00
H487   H     0.51047   0.81951   0.40126   0.00000  Uiso   1.00
H488   H     0.46046   0.87913   0.07218   0.00000  Uiso   1.00
H489   H     0.54877   0.79781   0.42823   0.00000  Uiso   1.00
H490   H     0.42682   0.91322   0.03703   0.00000  Uiso   1.00
H491   H     0.43335   0.72361   0.33435   0.00000  Uiso   1.00
H492   H     0.40146   0.71311   0.29942   0.00000  Uiso   1.00
H493   H     0.38685   0.68531   0.34197   0.00000  Uiso   1.00
H494   H     0.42213   0.97429   0.28292   0.00000  Uiso   1.00
H495   H     0.45394   0.98476   0.31790   0.00000  Uiso   1.00
H496   H     0.35016   0.85948   0.21484   0.00000  Uiso   1.00
H497   H     0.65125   0.80816   0.28559   0.00000  Uiso   1.00
H498   H     0.53913   0.66896   0.21748   0.00000  Uiso   1.00
H499   H     0.48578   0.84461   0.10175   0.00000  Uiso   1.00
H500   H     0.57708   0.76079   0.09519   0.00000  Uiso   1.00
H501   H     0.58217   0.76356   0.46314   0.00000  Uiso   1.00
H502   H     0.41391   0.92526   0.47654   0.00000  Uiso   1.00
H503   H     0.42660   0.91034   0.40554   0.00000  Uiso   1.00
O504   O     0.50000   0.83333   0.25000   0.00000  Uiso   1.00
O505   O     0.49027   0.79060   0.16625   0.00000  Uiso   1.00
O506   O     0.46020   0.87313   0.33749   0.00000  Uiso   1.00
O507   O     0.54421   0.84159   0.15877   0.00000  Uiso   1.00
O508   O     0.50532   0.82802   0.33749   0.00000  Uiso   1.00
O509   O     0.51182   0.74768   0.27820   0.00000  Uiso   1.00
O510   O     0.47914   0.92803   0.26767   0.00000  Uiso   1.00
O511   O     0.40785   0.79917   0.23607   0.00000  Uiso   1.00
O512   O     0.60119   0.85845   0.21805   0.00000  Uiso   1.00
O513   O     0.40323   0.85627   0.27820   0.00000  Uiso   1.00
O514   O     0.58773   0.81944   0.26767   0.00000  Uiso   1.00
O515   O     0.47133   0.73570   0.23607   0.00000  Uiso   1.00
O516   O     0.53771   0.92193   0.21805   0.00000  Uiso   1.00
Zn517  Zn    0.52577   0.80756   0.28277   0.00000  Uiso   1.00
Zn518  Zn    0.46792   0.79044   0.22257   0.00000  Uiso   1.00
Zn519  Zn    0.54500   0.86331   0.21188   0.00000  Uiso   1.00
Zn520  Zn    0.46131   0.87202   0.28277   0.00000  Uiso   1.00
C521   C     0.71914   0.82674   0.25881   0.00000  Uiso   1.00
C522   C     0.87153   0.80437   0.45967   0.00000  Uiso   1.00
C523   C     0.89176   0.78445   0.47973   0.00000  Uiso   1.00
C524   C     0.94765   0.84025   0.24124   0.00000  Uiso   1.00
C525   C     0.88187   0.79118   0.02041   0.00000  Uiso   1.00
C526   C     0.85124   0.81914   0.04186   0.00000  Uiso   1.00
C527   C     0.90279   0.77028   0.03982   0.00000  Uiso   1.00
C528   C     0.89380   0.77675   0.08047   0.00000  Uiso   1.00
C529   C     0.84233   0.82459   0.08312   0.00000  Uiso   1.00
C530   C     0.99369   0.84285   0.23768   0.00000  Uiso   1.00
C531   C     0.67371   0.82472   0.26238   0.00000  Uiso   1.00
C532   C     0.77612   0.89379   0.42014   0.00000  Uiso   1.00
C533   C     0.84539   0.98874   0.23972   0.00000  Uiso   1.00
C534   C     0.81598   0.67982   0.26395   0.00000  Uiso   1.00
C535   C     0.82327   0.72303   0.25832   0.00000  Uiso   1.00
C536   C     0.84302   0.94432   0.24171   0.00000  Uiso   1.00
C537   C     0.85492   0.81189   0.14421   0.00000  Uiso   1.00
C538   C     0.81208   0.85455   0.35612   0.00000  Uiso   1.00
C539   C     0.80371   0.86402   0.39892   0.00000  Uiso   1.00
C540   C     0.86359   0.80383   0.10193   0.00000  Uiso   1.00
C541   C     0.76902   0.90236   0.46060   0.00000  Uiso   1.00
C542   C     0.77634   0.99834   0.29628   0.00000  Uiso   1.00
C543   C     0.82415   0.84309   0.41856   0.00000  Uiso   1.00
C544   C     0.74789   0.69907   0.31931   0.00000  Uiso   1.00
C545   C     0.81856   0.85198   0.45927   0.00000  Uiso   1.00
C546   C     0.78984   0.88168   0.48028   0.00000  Uiso   1.00
C547   C     0.84024   0.83198   0.47966   0.00000  Uiso   1.00
C548   C     0.83081   0.84040   0.02135   0.00000  Uiso   1.00
C549   C     0.80173   0.87015   0.04101   0.00000  Uiso   1.00
C550   C     0.78200   0.89049   0.02075   0.00000  Uiso   1.00
H551   H     0.92631   0.74908   0.02350   0.00000  Uiso   1.00
H552   H     0.84380   0.81951   0.40126   0.00000  Uiso   1.00
H553   H     0.79379   0.87913   0.07218   0.00000  Uiso   1.00
H554   H     0.88210   0.79781   0.42823   0.00000  Uiso   1.00
H555   H     0.76016   0.91322   0.03703   0.00000  Uiso   1.00
H556   H     0.76669   0.72361   0.33435   0.00000  Uiso   1.00
H557   H     0.73479   0.71311   0.29942   0.00000  Uiso   1.00
H558   H     0.72019   0.68531   0.34197   0.00000  Uiso   1.00
H559   H     0.75546   0.97429   0.28292   0.00000  Uiso   1.00
H560   H     0.78728   0.98476   0.31790   0.00000  Uiso   1.00
H561   H     0.68349   0.85948   0.21484   0.00000  Uiso   1.00
H562   H     0.98458   0.80816   0.28559   0.00000  Uiso   1.00
H563   H     0.87247   0.66896   0.21748   0.00000  Uiso   1.00
H564   H     0.81911   0.84461   0.10175   0.00000  Uiso   1.00
H565   H     0.91041   0.76079   0.09519   0.00000  Uiso   1.00
H566   H     0.91550   0.76356   0.46314   0.00000  Uiso   1.00
H567   H     0.74725   0.92526   0.47654   0.00000  Uiso   1.00
H568   H     0.75993   0.91034   0.40554   0.00000  Uiso   1.00
O569   O     0.83333   0.83333   0.25000   0.00000  Uiso   1.00
O570   O     0.82360   0.79060   0.16625   0.00000  Uiso   1.00
O571   O     0.79354   0.87313   0.33749   0.00000  Uiso   1.00
O572   O     0.87755   0.84159   0.15877   0.00000  Uiso   1.00
O573   O     0.83865   0.82802   0.33749   0.00000  Uiso   1.00
O574   O     0.84515   0.74768   0.27820   0.00000  Uiso   1.00
O575   O     0.81247   0.92803   0.26767   0.00000  Uiso   1.00
O576   O     0.74119   0.79917   0.23607   0.00000  Uiso   1.00
O577   O     0.93452   0.85845   0.21805   0.00000  Uiso   1.00
O578   O     0.73656   0.85627   0.27820   0.00000  Uiso   1.00
O579   O     0.92106   0.81944   0.26767   0.00000  Uiso   1.00
O580   O     0.80467   0.73570   0.23607   0.00000  Uiso   1.00
O581   O     0.87104   0.92193   0.21805   0.00000  Uiso   1.00
Zn582  Zn    0.85910   0.80756   0.28277   0.00000  Uiso   1.00
Zn583  Zn    0.80125   0.79044   0.22257   0.00000  Uiso   1.00
Zn584  Zn    0.87833   0.86331   0.21188   0.00000  Uiso   1.00
Zn585  Zn    0.79465   0.87202   0.28277   0.00000  Uiso   1.00
C586   C     0.05248   0.16007   0.75881   0.00000  Uiso   1.00
C587   C     0.20487   0.13770   0.95967   0.00000  Uiso   1.00
C588   C     0.22509   0.11778   0.97973   0.00000  Uiso   1.00
C589   C     0.28098   0.17358   0.74124   0.00000  Uiso   1.00
C590   C     0.21520   0.12451   0.52041   0.00000  Uiso   1.00
C591   C     0.18457   0.15247   0.54186   0.00000  Uiso   1.00
C592   C     0.23613   0.10361   0.53982   0.00000  Uiso   1.00
C593   C     0.22713   0.11008   0.58047   0.00000  Uiso   1.00
C594   C     0.17566   0.15792   0.58312   0.00000  Uiso   1.00
C595   C     0.32702   0.17618   0.73768   0.00000  Uiso   1.00
C596   C     0.00704   0.15805   0.76238   0.00000  Uiso   1.00
C597   C     0.10946   0.22713   0.92014   0.00000  Uiso   1.00
C598   C     0.17873   0.32207   0.73972   0.00000  Uiso   1.00
C599   C     0.14931   0.01315   0.76395   0.00000  Uiso   1.00
C600   C     0.15660   0.05636   0.75832   0.00000  Uiso   1.00
C601   C     0.17635   0.27765   0.74171   0.00000  Uiso   1.00
C602   C     0.18825   0.14522   0.64421   0.00000  Uiso   1.00
C603   C     0.14542   0.18788   0.85612   0.00000  Uiso   1.00
C604   C     0.13704   0.19736   0.89892   0.00000  Uiso   1.00
C605   C     0.19692   0.13716   0.60193   0.00000  Uiso   1.00
C606   C     0.10235   0.23569   0.96060   0.00000  Uiso   1.00
C607   C     0.10967   0.33168   0.79628   0.00000  Uiso   1.00
C608   C     0.15749   0.17643   0.91856   0.00000  Uiso   1.00
C609   C     0.08122   0.03240   0.81931   0.00000  Uiso   1.00
C610   C     0.15189   0.18531   0.95927   0.00000  Uiso   1.00
C611   C     0.12317   0.21501   0.98028   0.00000  Uiso   1.00
C612   C     0.17357   0.16531   0.97966   0.00000  Uiso   1.00
C613   C     0.16414   0.17373   0.52135   0.00000  Uiso   1.00
C614   C     0.13506   0.20348   0.54101   0.00000  Uiso   1.00
C615   C     0.11534   0.22382   0.52075   0.00000  Uiso   1.00
H616   H     0.25964   0.08241   0.52350   0.00000  Uiso   1.00
H617   H     0.17713   0.15284   0.90126   0.00000  Uiso   1.00
H618   H     0.12712   0.21246   0.57218   0.00000  Uiso   1.00
H619   H     0.21543   0.13114   0.92823   0.00000  Uiso   1.00
H620   H     0.09349   0.24656   0.53703   0.00000  Uiso   1.00
H621   H     0.10002   0.05694   0.83435   0.00000  Uiso   1.00
H622   H     0.06813   0.04645   0.79942   0.00000  Uiso   1.00
H623   H     0.05352   0.01864   0.84197   0.00000  Uiso   1.00
H624   H     0.08879   0.30762   0.78292   0.00000  Uiso   1.00
H625   H     0.12061   0.31809   0.81790   0.00000  Uiso   1.00
H626   H     0.01682   0.19281   0.71484   0.00000  Uiso   1.00
H627   H     0.31792   0.14149   0.78559   0.00000  Uiso   1.00
H628   H     0.20580   0.00229   0.71748   0.00000  Uiso   1.00
H629   H     0.15245   0.17795   0.60175   0.00000  Uiso   1.00
H630   H     0.24375   0.09413   0.59519   0.00000  Uiso   1.00
H631   H     0.24884   0.09690   0.96314   0.00000  Uiso   1.00
H632   H     0.08058   0.25859   0.97654   0.00000  Uiso   1.00
H633   H     0.09326   0.24368   0.90554   0.00000  Uiso   1.00
O634   O     0.16667   0.16667   0.75000   0.00000  Uiso   1.00
O635   O     0.15693   0.12393   0.66625   0.00000  Uiso   1.00
O636   O     0.12687   0.20646   0.83749   0.00000  Uiso   1.00
O637   O     0.21088   0.17493   0.65877   0.00000  Uiso   1.00
O638   O     0.17198   0.16135   0.83749   0.00000  Uiso   1.00
O639   O     0.17849   0.08101   0.77820   0.00000  Uiso   1.00
O640   O     0.14581   0.26136   0.76767   0.00000  Uiso   1.00
O641   O     0.07452   0.13251   0.73607   0.00000  Uiso   1.00
O642   O     0.26785   0.19179   0.71805   0.00000  Uiso   1.00
O643   O     0.06990   0.18960   0.77820   0.00000  Uiso   1.00
O644   O     0.25440   0.15277   0.76767   0.00000  Uiso   1.00
O645   O     0.13800   0.06903   0.73607   0.00000  Uiso   1.00
O646   O     0.20437   0.25527   0.71805   0.00000  Uiso   1.00
Zn647  Zn    0.19244   0.14090   0.78277   0.00000  Uiso   1.00
Zn648  Zn    0.13459   0.12378   0.72257   0.00000  Uiso   1.00
Zn649  Zn    0.21166   0.19664   0.71188   0.00000  Uiso   1.00
Zn650  Zn    0.12798   0.20535   0.78277   0.00000  Uiso   1.00
C651   C     0.38581   0.16007   0.75881   0.00000  Uiso   1.00
C652   C     0.53820   0.13770   0.95967   0.00000  Uiso   1.00
C653   C     0.55842   0.11778   0.97973   0.00000  Uiso   1.00
C654   C     0.61431   0.17358   0.74124   0.00000  Uiso   1.00
C655   C     0.54854   0.12451   0.52041   0.00000  Uiso   1.00
C656   C     0.51791   0.15247   0.54186   0.00000  Uiso   1.00
C657   C     0.56946   0.10361   0.53982   0.00000  Uiso   1.00
C658   C     0.56046   0.11008   0.58047   0.00000  Uiso   1.00
C659   C     0.50900   0.15792   0.58312   0.00000  Uiso   1.00
C660   C     0.66036   0.17618   0.73768   0.00000  Uiso   1.00
C661   C     0.34037   0.15805   0.76238   0.00000  Uiso   1.00
C662   C     0.44279   0.22713   0.92014   0.00000  Uiso   1.00
C663   C     0.51206   0.32207   0.73972   0.00000  Uiso   1.00
C664   C     0.48264   0.01315   0.76395   0.00000  Uiso   1.00
C665   C     0.48993   0.05636   0.75832   0.00000  Uiso   1.00
C666   C     0.50969   0.27765   0.74171   0.00000  Uiso   1.00
C667   C     0.52159   0.14522   0.64421   0.00000  Uiso   1.00
C668   C     0.47875   0.18788   0.85612   0.00000  Uiso   1.00
C669   C     0.47038   0.19736   0.89892   0.00000  Uiso   1.00
C670   C     0.53026   0.13716   0.60193   0.00000  Uiso   1.00
C671   C     0.43569   0.23569   0.96060   0.00000  Uiso   1.00
C672   C     0.44301   0.33168   0.79628   0.00000  Uiso   1.00
C673   C     0.49082   0.17643   0.91856   0.00000  Uiso   1.00
C674   C     0.41456   0.03240   0.81931   0.00000  Uiso   1.00
C675   C     0.48523   0.18531   0.95927   0.00000  Uiso   1.00
C676   C     0.45651   0.21501   0.98028   0.00000  Uiso   1.00
C677   C     0.50691   0.16531   0.97966   0.00000  Uiso   1.00
C678   C     0.49747   0.17373   0.52135   0.00000  Uiso   1.00
C679   C     0.46840   0.20348   0.54101   0.00000  Uiso   1.00
C680   C     0.44867   0.22382   0.52075   0.00000  Uiso   1.00
H681   H     0.59298   0.08241   0.52350   0.00000  Uiso   1.00
H682   H     0.51047   0.15284   0.90126   0.00000  Uiso   1.00
H683   H     0.46046   0.21246   0.57218   0.00000  Uiso   1.00
H684   H     0.54877   0.13114   0.92823   0.00000  Uiso   1.00
H685   H     0.42682   0.24656   0.53703   0.00000  Uiso   1.00
H686   H     0.43335   0.05694   0.83435   0.00000  Uiso   1.00
H687   H     0.40146   0.04645   0.79942   0.00000  Uiso   1.00
H688   H     0.38685   0.01864   0.84197   0.00000  Uiso   1.00
H689   H     0.42213   0.30762   0.78292   0.00000  Uiso   1.00
H690   H     0.45394   0.31809   0.81790   0.00000  Uiso   1.00
H691   H     0.35016   0.19281   0.71484   0.00000  Uiso   1.00
H692   H     0.65125   0.14149   0.78559   0.00000  Uiso   1.00
H693   H     0.53913   0.00229   0.71748   0.00000  Uiso   1.00
H694   H     0.48578   0.17795   0.60175   0.00000  Uiso   1.00
H695   H     0.57708   0.09413   0.59519   0.00000  Uiso   1.00
H696   H     0.58217   0.09690   0.96314   0.00000  Uiso   1.00
H697   H     0.41391   0.25859   0.97654   0.00000  Uiso   1.00
H698   H     0.42660   0.24368   0.90554   0.00000  Uiso   1.00
O699   O     0.50000   0.16667   0.75000   0.00000  Uiso   1.00
O700   O     0.49027   0.12393   0.66625   0.00000  Uiso   1.00
O701   O     0.46020   0.20646   0.83749   0.00000  Uiso   1.00
O702   O     0.54421   0.17493   0.65877   0.00000  Uiso   1.00
O703   O     0.50532   0.16135   0.83749   0.00000  Uiso   1.00
O704   O     0.51182   0.08101   0.77820   0.00000  Uiso   1.00
O705   O     0.47914   0.26136   0.76767   0.00000  Uiso   1.00
O706   O     0.40785   0.13251   0.73607   0.00000  Uiso   1.00
O707   O     0.60119   0.19179   0.71805   0.00000  Uiso   1.00
O708   O     0.40323   0.18960   0.77820   0.00000  Uiso   1.00
O709   O     0.58773   0.15277   0.76767   0.00000  Uiso   1.00
O710   O     0.47133   0.06903   0.73607   0.00000  Uiso   1.00
O711   O     0.53771   0.25527   0.71805   0.00000  Uiso   1.00
Zn712  Zn    0.52577   0.14090   0.78277   0.00000  Uiso   1.00
Zn713  Zn    0.46792   0.12378   0.72257   0.00000  Uiso   1.00
Zn714  Zn    0.54500   0.19664   0.71188   0.00000  Uiso   1.00
Zn715  Zn    0.46131   0.20535   0.78277   0.00000  Uiso   1.00
C716   C     0.71914   0.16007   0.75881   0.00000  Uiso   1.00
C717   C     0.87153   0.13770   0.95967   0.00000  Uiso   1.00
C718   C     0.89176   0.11778   0.97973   0.00000  Uiso   1.00
C719   C     0.94765   0.17358   0.74124   0.00000  Uiso   1.00
C720   C     0.88187   0.12451   0.52041   0.00000  Uiso   1.00
C721   C     0.85124   0.15247   0.54186   0.00000  Uiso   1.00
C722   C     0.90279   0.10361   0.53982   0.00000  Uiso   1.00
C723   C     0.89380   0.11008   0.58047   0.00000  Uiso   1.00
C724   C     0.84233   0.15792   0.58312   0.00000  Uiso   1.00
C725   C     0.99369   0.17618   0.73768   0.00000  Uiso   1.00
C726   C     0.67371   0.15805   0.76238   0.00000  Uiso   1.00
C727   C     0.77612   0.22713   0.92014   0.00000  Uiso   1.00
C728   C     0.84539   0.32207   0.73972   0.00000  Uiso   1.00
C729   C     0.81598   0.01315   0.76395   0.00000  Uiso   1.00
C730   C     0.82327   0.05636   0.75832   0.00000  Uiso   1.00
C731   C     0.84302   0.27765   0.74171   0.00000  Uiso   1.00
C732   C     0.85492   0.14522   0.64421   0.00000  Uiso   1.00
C733   C     0.81208   0.18788   0.85612   0.00000  Uiso   1.00
C734   C     0.80371   0.19736   0.89892   0.00000  Uiso   1.00
C735   C     0.86359   0.13716   0.60193   0.00000  Uiso   1.00
C736   C     0.76902   0.23569   0.96060   0.00000  Uiso   1.00
C737   C     0.77634   0.33168   0.79628   0.00000  Uiso   1.00
C738   C     0.82415   0.17643   0.91856   0.00000  Uiso   1.00
C739   C     0.74789   0.03240   0.81931   0.00000  Uiso   1.00
C740   C     0.81856   0.18531   0.95927   0.00000  Uiso   1.00
C741   C     0.78984   0.21501   0.98028   0.00000  Uiso   1.00
C742   C     0.84024   0.16531   0.97966   0.00000  Uiso   1.00
C743   C     0.83081   0.17373   0.52135   0.00000  Uiso   1.00
C744   C     0.80173   0.20348   0.54101   0.00000  Uiso   1.00
C745   C     0.78200   0.22382   0.52075   0.00000  Uiso   1.00
H746   H     0.92631   0.08241   0.52350   0.00000  Uiso   1.00
H747   H     0.84380   0.15284   0.90126   0.00000  Uiso   1.00
H748   H     0.79379   0.21246   0.57218   0.00000  Uiso   1.00
H749   H     0.88210   0.13114   0.92823   0.00000  Uiso   1.00
H750   H     0.76016   0.24656   0.53703   0.00000  Uiso   1.00
H751   H     0.76669   0.05694   0.83435   0.00000  Uiso   1.00
H752   H     0.73479   0.04645   0.79942   0.00000  Uiso   1.00
H753   H     0.72019   0.01864   0.84197   0.00000  Uiso   1.00
H754   H     0.75546   0.30762   0.78292   0.00000  Uiso   1.00
H755   H     0.78728   0.31809   0.81790   0.00000  Uiso   1.00
H756   H     0.68349   0.19281   0.71484   0.00000  Uiso   1.00
H757   H     0.98458   0.14149   0.78559   0.00000  Uiso   1.00
H758   H     0.87247   0.00229   0.71748   0.00000  Uiso   1.00
H759   H     0.81911   0.17795   0.60175   0.00000  Uiso   1.00
H760   H     0.91041   0.09413   0.59519   0.00000  Uiso   1.00
H761   H     0.91550   0.09690   0.96314   0.00000  Uiso   1.00
H762   H     0.74725   0.25859   0.97654   0.00000  Uiso   1.00
H763   H     0.75993   0.24368   0.90554   0.00000  Uiso   1.00
O764   O     0.83333   0.16667   0.75000   0.00000  Uiso   1.00
O765   O     0.82360   0.12393   0.66625   0.00000  Uiso   1.00
O766   O     0.79354   0.20646   0.83749   0.00000  Uiso   1.00
O767   O     0.87755   0.17493   0.65877   0.00000  Uiso   1.00
O768   O     0.83865   0.16135   0.83749   0.00000  Uiso   1.00
O769   O     0.84515   0.08101   0.77820   0.00000  Uiso   1.00
O770   O     0.81247   0.26136   0.76767   0.00000  Uiso   1.00
O771   O     0.74119   0.13251   0.73607   0.00000  Uiso   1.00
O772   O     0.93452   0.19179   0.71805   0.00000  Uiso   1.00
O773   O     0.73656   0.18960   0.77820   0.00000  Uiso   1.00
O774   O     0.92106   0.15277   0.76767   0.00000  Uiso   1.00
O775   O     0.80467   0.06903   0.73607   0.00000  Uiso   1.00
O776   O     0.87104   0.25527   0.71805   0.00000  Uiso   1.00
Zn777  Zn    0.85910   0.14090   0.78277   0.00000  Uiso   1.00
Zn778  Zn    0.80125   0.12378   0.72257   0.00000  Uiso   1.00
Zn779  Zn    0.87833   0.19664   0.71188   0.00000  Uiso   1.00
Zn780  Zn    0.79465   0.20535   0.78277   0.00000  Uiso   1.00
C781   C     0.05248   0.49340   0.75881   0.00000  Uiso   1.00
C782   C     0.20487   0.47103   0.95967   0.00000  Uiso   1.00
C783   C     0.22509   0.45112   0.97973   0.00000  Uiso   1.00
C784   C     0.28098   0.50692   0.74124   0.00000  Uiso   1.00
C785   C     0.21520   0.45784   0.52041   0.00000  Uiso   1.00
C786   C     0.18457   0.48581   0.54186   0.00000  Uiso   1.00
C787   C     0.23613   0.43694   0.53982   0.00000  Uiso   1.00
C788   C     0.22713   0.44342   0.58047   0.00000  Uiso   1.00
C789   C     0.17566   0.49125   0.58312   0.00000  Uiso   1.00
C790   C     0.32702   0.50951   0.73768   0.00000  Uiso   1.00
C791   C     0.00704   0.49138   0.76238   0.00000  Uiso   1.00
C792   C     0.10946   0.56046   0.92014   0.00000  Uiso   1.00
C793   C     0.17873   0.65540   0.73972   0.00000  Uiso   1.00
C794   C     0.14931   0.34649   0.76395   0.00000  Uiso   1.00
C795   C     0.15660   0.38970   0.75832   0.00000  Uiso   1.00
C796   C     0.17635   0.61098   0.74171   0.00000  Uiso   1.00
C797   C     0.18825   0.47856   0.64421   0.00000  Uiso   1.00
C798   C     0.14542   0.52122   0.85612   0.00000  Uiso   1.00
C799   C     0.13704   0.53069   0.89892   0.00000  Uiso   1.00
C800   C     0.19692   0.47050   0.60193   0.00000  Uiso   1.00
C801   C     0.10235   0.56902   0.96060   0.00000  Uiso   1.00
C802   C     0.10967   0.66501   0.79628   0.00000  Uiso   1.00
C803   C     0.15749   0.50976   0.91856   0.00000  Uiso   1.00
C804   C     0.08122   0.36573   0.81931   0.00000  Uiso   1.00
C805   C     0.15189   0.51865   0.95927   0.00000  Uiso   1.00
C806   C     0.12317   0.54834   0.98028   0.00000  Uiso   1.00
C807   C     0.17357   0.49864   0.97966   0.00000  Uiso   1.00
C808   C     0.16414   0.50707   0.52135   0.00000  Uiso   1.00
C809   C     0.13506   0.53681   0.54101   0.00000  Uiso   1.00
C810   C     0.11534   0.55715   0.52075   0.00000  Uiso   1.00
H811   H     0.25964   0.41575   0.52350   0.00000  Uiso   1.00
H812   H     0.17713   0.48617   0.90126   0.00000  Uiso   1.00
H813   H     0.12712   0.54580   0.57218   0.00000  Uiso   1.00
H814   H     0.21543   0.46448   0.92823   0.00000  Uiso   1.00
H815   H     0.09349   0.57989   0.53703   0.00000  Uiso   1.00
H816   H     0.10002   0.39028   0.83435   0.00000  Uiso   1.00
H817   H     0.06813   0.37978   0.79942   0.00000  Uiso   1.00
H818   H     0.05352   0.35198   0.84197   0.00000  Uiso   1.00
H819   H     0.08879   0.64096   0.78292   0.00000  Uiso   1.00
H820   H     0.12061   0.65143   0.81790   0.00000  Uiso   1.00
H821   H     0.01682   0.52615   0.71484   0.00000  Uiso   1.00
H822   H     0.31792   0.47482   0.78559   0.00000  Uiso   1.00
H823   H     0.20580   0.33562   0.71748   0.00000  Uiso   1.00
H824   H     0.15245   0.51128   0.60175   0.00000  Uiso   1.00
H825   H     0.24375   0.42746   0.59519   0.00000  Uiso   1.00
H826   H     0.24884   0.43023   0.96314   0.00000  Uiso   1.00
H827   H     0.08058   0.59192   0.97654   0.00000  Uiso   1.00
H828   H     0.09326   0.57701   0.90554   0.00000  Uiso   1.00
O829   O     0.16667   0.50000   0.75000   0.00000  Uiso   1.00
O830   O     0.15693   0.45726   0.66625   0.00000  Uiso   1.00
O831   O     0.12687   0.53979   0.83749   0.00000  Uiso   1.00
O832   O     0.21088   0.50826   0.65877   0.00000  Uiso   1.00
O833   O     0.17198   0.49468   0.83749   0.00000  Uiso   1.00
O834   O     0.17849   0.41434   0.77820   0.00000  Uiso   1.00
O835   O     0.14581   0.59469   0.76767   0.00000  Uiso   1.00
O836   O     0.07452   0.46584   0.73607   0.00000  Uiso   1.00
O837   O     0.26785   0.52512   0.71805   0.00000  Uiso   1.00
O838   O     0.06990   0.52293   0.77820   0.00000  Uiso   1.00
O839   O     0.25440   0.48610   0.76767   0.00000  Uiso   1.00
O840   O     0.13800   0.40236   0.73607   0.00000  Uiso   1.00
O841   O     0.20437   0.58860   0.71805   0.00000  Uiso   1.00
Zn842  Zn    0.19244   0.47423   0.78277   0.00000  Uiso   1.00
Zn843  Zn    0.13459   0.45711   0.72257   0.00000  Uiso   1.00
Zn844  Zn    0.21166   0.52997   0.71188   0.00000  Uiso   1.00
Zn845  Zn    0.12798   0.53868   0.78277   0.00000  Uiso   1.00
C846   C     0.38581   0.49340   0.75881   0.00000  Uiso   1.00
C847   C     0.53820   0.47103   0.95967   0.00000  Uiso   1.00
C848   C     0.55842   0.45112   0.97973   0.00000  Uiso   1.00
C849   C     0.61431   0.50692   0.74124   0.00000  Uiso   1.00
C850   C     0.54854   0.45784   0.52041   0.00000  Uiso   1.00
C851   C     0.51791   0.48581   0.54186   0.00000  Uiso   1.00
C852   C     0.56946   0.43694   0.53982   0.00000  Uiso   1.00
C853   C     0.56046   0.44342   0.58047   0.00000  Uiso   1.00
C854   C     0.50900   0.49125   0.58312   0.00000  Uiso   1.00
C855   C     0.66036   0.50951   0.73768   0.00000  Uiso   1.00
C856   C     0.34037   0.49138   0.76238   0.00000  Uiso   1.00
C857   C     0.44279   0.56046   0.92014   0.00000  Uiso   1.00
C858   C     0.51206   0.65540   0.73972   0.00000  Uiso   1.00
C859   C     0.48264   0.34649   0.76395   0.00000  Uiso   1.00
C860   C     0.48993   0.38970   0.75832   0.00000  Uiso   1.00
C861   C     0.50969   0.61098   0.74171   0.00000  Uiso   1.00
C862   C     0.52159   0.47856   0.64421   0.00000  Uiso   1.00
C863   C     0.47875   0.52122   0.85612   0.00000  Uiso   1.00
C864   C     0.47038   0.53069   0.89892   0.00000  Uiso   1.00
C865   C     0.53026   0.47050   0.60193   0.00000  Uiso   1.00
C866   C     0.43569   0.56902   0.96060   0.00000  Uiso   1.00
C867   C     0.44301   0.66501   0.79628   0.00000  Uiso   1.00
C868   C     0.49082   0.50976   0.91856   0.00000  Uiso   1.00
C869   C     0.41456   0.36573   0.81931   0.00000  Uiso   1.00
C870   C     0.48523   0.51865   0.95927   0.00000  Uiso   1.00
C871   C     0.45651   0.54834   0.98028   0.00000  Uiso   1.00
C872   C     0.50691   0.49864   0.97966   0.00000  Uiso   1.00
C873   C     0.49747   0.50707   0.52135   0.00000  Uiso   1.00
C874   C     0.46840   0.53681   0.54101   0.00000  Uiso   1.00
C875   C     0.44867   0.55715   0.52075   0.00000  Uiso   1.00
H876   H     0.59298   0.41575   0.52350   0.00000  Uiso   1.00
H877   H     0.51047   0.48617   0.90126   0.00000  Uiso   1.00
H878   H     0.46046   0.54580   0.57218   0.00000  Uiso   1.00
H879   H     0.54877   0.46448   0.92823   0.00000  Uiso   1.00
H880   H     0.42682   0.57989   0.53703   0.00000  Uiso   1.00
H881   H     0.43335   0.39028   0.83435   0.00000  Uiso   1.00
H882   H     0.40146   0.37978   0.79942   0.00000  Uiso   1.00
H883   H     0.38685   0.35198   0.84197   0.00000  Uiso   1.00
H884   H     0.42213   0.64096   0.78292   0.00000  Uiso   1.00
H885   H     0.45394   0.65143   0.81790   0.00000  Uiso   1.00
H886   H     0.35016   0.52615   0.71484   0.00000  Uiso   1.00
H887   H     0.65125   0.47482   0.78559   0.00000  Uiso   1.00
H888   H     0.53913   0.33562   0.71748   0.00000  Uiso   1.00
H889   H     0.48578   0.51128   0.60175   0.00000  Uiso   1.00
H890   H     0.57708   0.42746   0.59519   0.00000  Uiso   1.00
H891   H     0.58217   0.43023   0.96314   0.00000  Uiso   1.00
H892   H     0.41391   0.59192   0.97654   0.00000  Uiso   1.00
H893   H     0.42660   0.57701   0.90554   0.00000  Uiso   1.00
O894   O     0.50000   0.50000   0.75000   0.00000  Uiso   1.00
O895   O     0.49027   0.45726   0.66625   0.00000  Uiso   1.00
O896   O     0.46020   0.53979   0.83749   0.00000  Uiso   1.00
O897   O     0.54421   0.50826   0.65877   0.00000  Uiso   1.00
O898   O     0.50532   0.49468   0.83749   0.00000  Uiso   1.00
O899   O     0.51182   0.41434   0.77820   0.00000  Uiso   1.00
O900   O     0.47914   0.59469   0.76767   0.00000  Uiso   1.00
O901   O     0.40785   0.46584   0.73607   0.00000  Uiso   1.00
O902   O     0.60119   0.52512   0.71805   0.00000  Uiso   1.00
O903   O     0.40323   0.52293   0.77820   0.00000  Uiso   1.00
O904   O     0.58773   0.48610   0.76767   0.00000  Uiso   1.00
O905   O     0.47133   0.40236   0.73607   0.00000  Uiso   1.00
O906   O     0.53771   0.58860   0.71805   0.00000  Uiso   1.00
Zn907  Zn    0.52577   0.47423   0.78277   0.00000  Uiso   1.00
Zn908  Zn    0.46792   0.45711   0.72257   0.00000  Uiso   1.00
Zn909  Zn    0.54500   0.52997   0.71188   0.00000  Uiso   1.00
Zn910  Zn    0.46131   0.53868   0.78277   0.00000  Uiso   1.00
C911   C     0.71914   0.49340   0.75881   0.00000  Uiso   1.00
C912   C     0.87153   0.47103   0.95967   0.00000  Uiso   1.00
C913   C     0.89176   0.45112   0.97973   0.00000  Uiso   1.00
C914   C     0.94765   0.50692   0.74124   0.00000  Uiso   1.00
C915   C     0.88187   0.45784   0.52041   0.00000  Uiso   1.00
C916   C     0.85124   0.48581   0.54186   0.00000  Uiso   1.00
C917   C     0.90279   0.43694   0.53982   0.00000  Uiso   1.00
C918   C     0.89380   0.44342   0.58047   0.00000  Uiso   1.00
C919   C     0.84233   0.49125   0.58312   0.00000  Uiso   1.00
C920   C     0.99369   0.50951   0.73768   0.00000  Uiso   1.00
C921   C     0.67371   0.49138   0.76238   0.00000  Uiso   1.00
C922   C     0.77612   0.56046   0.92014   0.00000  Uiso   1.00
C923   C     0.84539   0.65540   0.73972   0.00000  Uiso   1.00
C924   C     0.81598   0.34649   0.76395   0.00000  Uiso   1.00
C925   C     0.82327   0.38970   0.75832   0.00000  Uiso   1.00
C926   C     0.84302   0.61098   0.74171   0.00000  Uiso   1.00
C927   C     0.85492   0.47856   0.64421   0.00000  Uiso   1.00
C928   C     0.81208   0.52122   0.85612   0.00000  Uiso   1.00
C929   C     0.80371   0.53069   0.89892   0.00000  Uiso   1.00
C930   C     0.86359   0.47050   0.60193   0.00000  Uiso   1.00
C931   C     0.76902   0.56902   0.96060   0.00000  Uiso   1.00
C932   C     0.77634   0.66501   0.79628   0.00000  Uiso   1.00
C933   C     0.82415   0.50976   0.91856   0.00000  Uiso   1.00
C934   C     0.74789   0.36573   0.81931   0.00000  Uiso   1.00
C935   C     0.81856   0.51865   0.95927   0.00000  Uiso   1.00
C936   C     0.78984   0.54834   0.98028   0.00000  Uiso   1.00
C937   C     0.84024   0.49864   0.97966   0.00000  Uiso   1.00
C938   C     0.83081   0.50707   0.52135   0.00000  Uiso   1.00
C939   C     0.80173   0.53681   0.54101   0.00000  Uiso   1.00
C940   C     0.78200   0.55715   0.52075   0.00000  Uiso   1.00
H941   H     0.92631   0.41575   0.52350   0.00000  Uiso   1.00
H942   H     0.84380   0.48617   0.90126   0.00000  Uiso   1.00
H943   H     0.79379   0.54580   0.57218   0.00000  Uiso   1.00
H944   H     0.88210   0.46448   0.92823   0.00000  Uiso   1.00
H945   H     0.76016   0.57989   0.53703   0.00000  Uiso   1.00
H946   H     0.76669   0.39028   0.83435   0.00000  Uiso   1.00
H947   H     0.73479   0.37978   0.79942   0.00000  Uiso   1.00
H948   H     0.72019   0.35198   0.84197   0.00000  Uiso   1.00
H949   H     0.75546   0.64096   0.78292   0.00000  Uiso   1.00
H950   H     0.78728   0.65143   0.81790   0.00000  Uiso   1.00
H951   H     0.68349   0.52615   0.71484   0.00000  Uiso   1.00
H952   H     0.98458   0.47482   0.78559   0.00000  Uiso   1.00
H953   H     0.87247   0.33562   0.71748   0.00000  Uiso   1.00
H954   H     0.81911   0.51128   0.60175   0.00000  Uiso   1.00
H955   H     0.91041   0.42746   0.59519   0.00000  Uiso   1.00
H956   H     0.91550   0.43023   0.96314   0.00000  Uiso   1.00
H957   H     0.74725   0.59192   0.97654   0.00000  Uiso   1.00
H958   H     0.75993   0.57701   0.90554   0.00000  Uiso   1.00
O959   O     0.83333   0.50000   0.75000   0.00000  Uiso   1.00
O960   O     0.82360   0.45726   0.66625   0.00000  Uiso   1.00
O961   O     0.79354   0.53979   0.83749   0.00000  Uiso   1.00
O962   O     0.87755   0.50826   0.65877   0.00000  Uiso   1.00
O963   O     0.83865   0.49468   0.83749   0.00000  Uiso   1.00
O964   O     0.84515   0.41434   0.77820   0.00000  Uiso   1.00
O965   O     0.81247   0.59469   0.76767   0.00000  Uiso   1.00
O966   O     0.74119   0.46584   0.73607   0.00000  Uiso   1.00
O967   O     0.93452   0.52512   0.71805   0.00000  Uiso   1.00
O968   O     0.73656   0.52293   0.77820   0.00000  Uiso   1.00
O969   O     0.92106   0.48610   0.76767   0.00000  Uiso   1.00
O970   O     0.80467   0.40236   0.73607   0.00000  Uiso   1.00
O971   O     0.87104   0.58860   0.71805   0.00000  Uiso   1.00
Zn972  Zn    0.85910   0.47423   0.78277   0.00000  Uiso   1.00
Zn973  Zn    0.80125   0.45711   0.72257   0.00000  Uiso   1.00
Zn974  Zn    0.87833   0.52997   0.71188   0.00000  Uiso   1.00
Zn975  Zn    0.79465   0.53868   0.78277   0.00000  Uiso   1.00
C976   C     0.05248   0.82674   0.75881   0.00000  Uiso   1.00
C977   C     0.20487   0.80437   0.95967   0.00000  Uiso   1.00
C978   C     0.22509   0.78445   0.97973   0.00000  Uiso   1.00
C979   C     0.28098   0.84025   0.74124   0.00000  Uiso   1.00
C980   C     0.21520   0.79118   0.52041   0.00000  Uiso   1.00
C981   C     0.18457   0.81914   0.54186   0.00000  Uiso   1.00
C982   C     0.23613   0.77028   0.53982   0.00000  Uiso   1.00
C983   C     0.22713   0.77675   0.58047   0.00000  Uiso   1.00
C984   C     0.17566   0.82459   0.58312   0.00000  Uiso   1.00
C985   C     0.32702   0.84285   0.73768   0.00000  Uiso   1.00
C986   C     0.00704   0.82472   0.76238   0.00000  Uiso   1.00
C987   C     0.10946   0.89379   0.92014   0.00000  Uiso   1.00
C988   C     0.17873   0.98874   0.73972   0.00000  Uiso   1.00
C989   C     0.14931   0.67982   0.76395   0.00000  Uiso   1.00
C990   C     0.15660   0.72303   0.75832   0.00000  Uiso   1.00
C991   C     0.17635   0.94432   0.74171   0.00000  Uiso   1.00
C992   C     0.18825   0.81189   0.64421   0.00000  Uiso   1.00
C993   C     0.14542   0.85455   0.85612   0.00000  Uiso   1.00
C994   C     0.13704   0.86402   0.89892   0.00000  Uiso   1.00
C995   C     0.19692   0.80383   0.60193   0.00000  Uiso   1.00
C996   C     0.10235   0.90236   0.96060   0.00000  Uiso   1.00
C997   C     0.10967   0.99834   0.79628   0.00000  Uiso   1.00
C998   C     0.15749   0.84309   0.91856   0.00000  Uiso   1.00
C999   C     0.08122   0.69907   0.81931   0.00000  Uiso   1.00
C1000  C     0.15189   0.85198   0.95927   0.00000  Uiso   1.00
C1001  C     0.12317   0.88168   0.98028   0.00000  Uiso   1.00
C1002  C     0.17357   0.83198   0.97966   0.00000  Uiso   1.00
C1003  C     0.16414   0.84040   0.52135   0.00000  Uiso   1.00
C1004  C     0.13506   0.87015   0.54101   0.00000  Uiso   1.00
C1005  C     0.11534   0.89049   0.52075   0.00000  Uiso   1.00
H1006  H     0.25964   0.74908   0.52350   0.00000  Uiso   1.00
H1007  H     0.17713   0.81951   0.90126   0.00000  Uiso   1.00
H1008  H     0.12712   0.87913   0.57218   0.00000  Uiso   1.00
H1009  H     0.21543   0.79781   0.92823   0.00000  Uiso   1.00
H1010  H     0.09349   0.91322   0.53703   0.00000  Uiso   1.00
H1011  H     0.10002   0.72361   0.83435   0.00000  Uiso   1.00
H1012  H     0.06813   0.71311   0.79942   0.00000  Uiso   1.00
H1013  H     0.05352   0.68531   0.84197   0.00000  Uiso   1.00
H1014  H     0.08879   0.97429   0.78292   0.00000  Uiso   1.00
H1015  H     0.12061   0.98476   0.81790   0.00000  Uiso   1.00
H1016  H     0.01682   0.85948   0.71484   0.00000  Uiso   1.00
H1017  H     0.31792   0.80816   0.78559   0.00000  Uiso   1.00
H1018  H     0.20580   0.66896   0.71748   0.00000  Uiso   1.00
H1019  H     0.15245   0.84461   0.60175   0.00000  Uiso   1.00
H1020  H     0.24375   0.76079   0.59519   0.00000  Uiso   1.00
H1021  H     0.24884   0.76356   0.96314   0.00000  Uiso   1.00
H1022  H     0.08058   0.92526   0.97654   0.00000  Uiso   1.00
H1023  H     0.09326   0.91034   0.90554   0.00000  Uiso   1.00
O1024  O     0.16667   0.83333   0.75000   0.00000  Uiso   1.00
O1025  O     0.15693   0.79060   0.66625   0.00000  Uiso   1.00
O1026  O     0.12687   0.87313   0.83749   0.00000  Uiso   1.00
O1027  O     0.21088   0.84159   0.65877   0.00000  Uiso   1.00
O1028  O     0.17198   0.82802   0.83749   0.00000  Uiso   1.00
O1029  O     0.17849   0.74768   0.77820   0.00000  Uiso   1.00
O1030  O     0.14581   0.92803   0.76767   0.00000  Uiso   1.00
O1031  O     0.07452   0.79917   0.73607   0.00000  Uiso   1.00
O1032  O     0.26785   0.85845   0.71805   0.00000  Uiso   1.00
O1033  O     0.06990   0.85627   0.77820   0.00000  Uiso   1.00
O1034  O     0.25440   0.81944   0.76767   0.00000  Uiso   1.00
O1035  O     0.13800   0.73570   0.73607   0.00000  Uiso   1.00
O1036  O     0.20437   0.92193   0.71805   0.00000  Uiso   1.00
Zn1037 Zn    0.19244   0.80756   0.78277   0.00000  Uiso   1.00
Zn1038 Zn    0.13459   0.79044   0.72257   0.00000  Uiso   1.00
Zn1039 Zn    0.21166   0.86331   0.71188   0.00000  Uiso   1.00
Zn1040 Zn    0.12798   0.87202   0.78277   0.00000  Uiso   1.00
C1041  C     0.38581   0.82674   0.75881   0.00000  Uiso   1.00
C1042  C     0.53820   0.80437   0.95967   0.00000  Uiso   1.00
C1043  C     0.55842   0.78445   0.97973   0.00000  Uiso   1.00
C1044  C     0.61431   0.84025   0.74124   0.00000  Uiso   1.00
C1045  C     0.54854   0.79118   0.52041   0.00000  Uiso   1.00
C1046  C     0.51791   0.81914   0.54186   0.00000  Uiso   1.00
C1047  C     0.56946   0.77028   0.53982   0.00000  Uiso   1.00
C1048  C     0.56046   0.77675   0.58047   0.00000  Uiso   1.00
C1049  C     0.50900   0.82459   0.58312   0.00000  Uiso   1.00
C1050  C     0.66036   0.84285   0.73768   0.00000  Uiso   1.00
C1051  C     0.34037   0.82472   0.76238   0.00000  Uiso   1.00
C1052  C     0.44279   0.89379   0.92014   0.00000  Uiso   1.00
C1053  C     0.51206   0.98874   0.73972   0.00000  Uiso   1.00
C1054  C     0.48264   0.67982   0.76395   0.00000  Uiso   1.00
C1055  C     0.48993   0.72303   0.75832   0.00000  Uiso   1.00
C1056  C     0.50969   0.94432   0.74171   0.00000  Uiso   1.00
C1057  C     0.52159   0.81189   0.64421   0.00000  Uiso   1.00
C1058  C     0.47875   0.85455   0.85612   0.00000  Uiso   1.00
C1059  C     0.47038   0.86402   0.89892   0.00000  Uiso   1.00
C1060  C     0.53026   0.80383   0.60193   0.00000  Uiso   1.00
C1061  C     0.43569   0.90236   0.96060   0.00000  Uiso   1.00
C1062  C     0.44301   0.99834   0.79628   0.00000  Uiso   1.00
C1063  C     0.49082   0.84309   0.91856   0.00000  Uiso   1.00
C1064  C     0.41456   0.69907   0.81931   0.00000  Uiso   1.00
C1065  C     0.48523   0.85198   0.95927   0.00000  Uiso   1.00
C1066  C     0.45651   0.88168   0.98028   0.00000  Uiso   1.00
C1067  C     0.50691   0.83198   0.97966   0.00000  Uiso   1.00
C1068  C     0.49747   0.84040   0.52135   0.00000  Uiso   1.00
C1069  C     0.46840   0.87015   0.54101   0.00000  Uiso   1.00
C1070  C     0.44867   0.89049   0.52075   0.00000  Uiso   1.00
H1071  H     0.59298   0.74908   0.52350   0.00000  Uiso   1.00
H1072  H     0.51047   0.81951   0.90126   0.00000  Uiso   1.00
H1073  H     0.46046   0.87913   0.57218   0.00000  Uiso   1.00
H1074  H     0.54877   0.79781   0.92823   0.00000  Uiso   1.00
H1075  H     0.42682   0.91322   0.53703   0.00000  Uiso   1.00
H1076  H     0.43335   0.72361   0.83435   0.00000  Uiso   1.00
H1077  H     0.40146   0.71311   0.79942   0.00000  Uiso   1.00
H1078  H     0.38685   0.68531   0.84197   0.00000  Uiso   1.00
H1079  H     0.42213   0.97429   0.78292   0.00000  Uiso   1.00
H1080  H     0.45394   0.98476   0.81790   0.00000  Uiso   1.00
H1081  H     0.35016   0.85948   0.71484   0.00000  Uiso   1.00
H1082  H     0.65125   0.80816   0.78559   0.00000  Uiso   1.00
H1083  H     0.53913   0.66896   0.71748   0.00000  Uiso   1.00
H1084  H     0.48578   0.84461   0.60175   0.00000  Uiso   1.00
H1085  H     0.57708   0.76079   0.59519   0.00000  Uiso   1.00
H1086  H     0.58217   0.76356   0.96314   0.00000  Uiso   1.00
H1087  H     0.41391   0.92526   0.97654   0.00000  Uiso   1.00
H1088  H     0.42660   0.91034   0.90554   0.00000  Uiso   1.00
O1089  O     0.50000   0.83333   0.75000   0.00000  Uiso   1.00
O1090  O     0.49027   0.79060   0.66625   0.00000  Uiso   1.00
O1091  O     0.46020   0.87313   0.83749   0.00000  Uiso   1.00
O1092  O     0.54421   0.84159   0.65877   0.00000  Uiso   1.00
O1093  O     0.50532   0.82802   0.83749   0.00000  Uiso   1.00
O1094  O     0.51182   0.74768   0.77820   0.00000  Uiso   1.00
O1095  O     0.47914   0.92803   0.76767   0.00000  Uiso   1.00
O1096  O     0.40785   0.79917   0.73607   0.00000  Uiso   1.00
O1097  O     0.60119   0.85845   0.71805   0.00000  Uiso   1.00
O1098  O     0.40323   0.85627   0.77820   0.00000  Uiso   1.00
O1099  O     0.58773   0.81944   0.76767   0.00000  Uiso   1.00
O1100  O     0.47133   0.73570   0.73607   0.00000  Uiso   1.00
O1101  O     0.53771   0.92193   0.71805   0.00000  Uiso   1.00
Zn1102 Zn    0.52577   0.80756   0.78277   0.00000  Uiso   1.00
Zn1103 Zn    0.46792   0.79044   0.72257   0.00000  Uiso   1.00
Zn1104 Zn    0.54500   0.86331   0.71188   0.00000  Uiso   1.00
Zn1105 Zn    0.46131   0.87202   0.78277   0.00000  Uiso   1.00
C1106  C     0.71914   0.82674   0.75881   0.00000  Uiso   1.00
C1107  C     0.87153   0.80437   0.95967   0.00000  Uiso   1.00
C1108  C     0.89176   0.78445   0.97973   0.00000  Uiso   1.00
C1109  C     0.94765   0.84025   0.74124   0.00000  Uiso   1.00
C1110  C     0.88187   0.79118   0.52041   0.00000  Uiso   1.00
C1111  C     0.85124   0.81914   0.54186   0.00000  Uiso   1.00
C1112  C     0.90279   0.77028   0.53982   0.00000  Uiso   1.00
C1113  C     0.89380   0.77675   0.58047   0.00000  Uiso   1.00
C1114  C     0.84233   0.82459   0.58312   0.00000  Uiso   1.00
C1115  C     0.99369   0.84285   0.73768   0.00000  Uiso   1.00
C1116  C     0.67371   0.82472   0.76238   0.00000  Uiso   1.00
C1117  C     0.77612   0.89379   0.92014   0.00000  Uiso   1.00
C1118  C     0.84539   0.98874   0.73972   0.00000  Uiso   1.00
C1119  C     0.81598   0.67982   0.76395   0.00000  Uiso   1.00
C1120  C     0.82327   0.72303   0.75832   0.00000  Uiso   1.00
C1121  C     0.84302   0.94432   0.74171   0.00000  Uiso   1.00
C1122  C     0.85492   0.81189   0.64421   0.00000  Uiso   1.00
C1123  C     0.81208   0.85455   0.85612   0.00000  Uiso   1.00
C1124  C     0.80371   0.86402   0.89892   0.00000  Uiso   1.00
C1125  C     0.86359   0.80383   0.60193   0.00000  Uiso   1.00
C1126  C     0.76902   0.90236   0.96060   0.00000  Uiso   1.00
C1127  C     0.77634   0.99834   0.79628   0.00000  Uiso   1.00
C1128  C     0.82415   0.84309   0.91856   0.00000  Uiso   1.00
C1129  C     0.74789   0.69907   0.81931   0.00000  Uiso   1.00
C1130  C     0.81856   0.85198   0.95927   0.00000  Uiso   1.00
C1131  C     0.78984   0.88168   0.98028   0.00000  Uiso   1.00
C1132  C     0.84024   0.83198   0.97966   0.00000  Uiso   1.00
C1133  C     0.83081   0.84040   0.52135   0.00000  Uiso   1.00
C1134  C     0.80173   0.87015   0.54101   0.00000  Uiso   1.00
C1135  C     0.78200   0.89049   0.52075   0.00000  Uiso   1.00
H1136  H     0.92631   0.74908   0.52350   0.00000  Uiso   1.00
H1137  H     0.84380   0.81951   0.90126   0.00000  Uiso   1.00
H1138  H     0.79379   0.87913   0.57218   0.00000  Uiso   1.00
H1139  H     0.88210   0.79781   0.92823   0.00000  Uiso   1.00
H1140  H     0.76016   0.91322   0.53703   0.00000  Uiso   1.00
H1141  H     0.76669   0.72361   0.83435   0.00000  Uiso   1.00
H1142  H     0.73479   0.71311   0.79942   0.00000  Uiso   1.00
H1143  H     0.72019   0.68531   0.84197   0.00000  Uiso   1.00
H1144  H     0.75546   0.97429   0.78292   0.00000  Uiso   1.00
H1145  H     0.78728   0.98476   0.81790   0.00000  Uiso   1.00
H1146  H     0.68349   0.85948   0.71484   0.00000  Uiso   1.00
H1147  H     0.98458   0.80816   0.78559   0.00000  Uiso   1.00
H1148  H     0.87247   0.66896   0.71748   0.00000  Uiso   1.00
H1149  H     0.81911   0.84461   0.60175   0.00000  Uiso   1.00
H1150  H     0.91041   0.76079   0.59519   0.00000  Uiso   1.00
H1151  H     0.91550   0.76356   0.96314   0.00000  Uiso   1.00
H1152  H     0.74725   0.92526   0.97654   0.00000  Uiso   1.00
H1153  H     0.75993   0.91034   0.90554   0.00000  Uiso   1.00
O1154  O     0.83333   0.83333   0.75000   0.00000  Uiso   1.00
O1155  O     0.82360   0.79060   0.66625   0.00000  Uiso   1.00
O1156  O     0.79354   0.87313   0.83749   0.00000  Uiso   1.00
O1157  O     0.87755   0.84159   0.65877   0.00000  Uiso   1.00
O1158  O     0.83865   0.82802   0.83749   0.00000  Uiso   1.00
O1159  O     0.84515   0.74768   0.77820   0.00000  Uiso   1.00
O1160  O     0.81247   0.92803   0.76767   0.00000  Uiso   1.00
O1161  O     0.74119   0.79917   0.73607   0.00000  Uiso   1.00
O1162  O     0.93452   0.85845   0.71805   0.00000  Uiso   1.00
O1163  O     0.73656   0.85627   0.77820   0.00000  Uiso   1.00
O1164  O     0.92106   0.81944   0.76767   0.00000  Uiso   1.00
O1165  O     0.80467   0.73570   0.73607   0.00000  Uiso   1.00
O1166  O     0.87104   0.92193   0.71805   0.00000  Uiso   1.00
Zn1167 Zn    0.85910   0.80756   0.78277   0.00000  Uiso   1.00
Zn1168 Zn    0.80125   0.79044   0.72257   0.00000  Uiso   1.00
Zn1169 Zn    0.87833   0.86331   0.71188   0.00000  Uiso   1.00
Zn1170 Zn    0.79465   0.87202   0.78277   0.00000  Uiso   1.00
loop_
_geom_bond_atom_site_label_1
_geom_bond_atom_site_label_2
_geom_bond_distance
_geom_bond_site_symmetry_2
_ccdc_geom_bond_type
C1     C11     1.437   .     S
C1     O58     1.270   .     A
C1     O56     1.270   .     A
C2     C27     1.416   .     A
C2     C3      1.384   .     A
C2     H34     1.075   .     S
C3     H46     1.085   .     S
C3     C590    1.389   .     S
C4     O57     1.287   .     A
C4     O59     1.283   .     A
C4     C10     1.455   .     S
C5     C6      1.421   .     A
C5     C7      1.403   .     A
C5     C588    1.389   1_554 S
C6     C9      1.410   .     A
C6     C28     1.428   .     A
C7     C8      1.389   .     A
C7     H31     1.084   .     S
C8     C20     1.393   .     A
C8     H45     1.083   .     S
C9     C20     1.392   .     A
C9     H44     1.077   .     S
C10    C76     1.335   .     S
C10    H106    1.088   .     S
C11    C140    1.335   1_455 S
C11    H172    1.086   1_455 S
C12    H48     1.083   .     S
C12    C19     1.400   .     A
C12    C21     1.392   .     A
C13    C16     1.455   .     S
C13    C209    1.353   .     S
C13    H238    1.089   .     S
C14    C15     1.433   .     S
C14    C403    1.353   1_545 S
C14    C412    1.531   1_545 S
C15    O60     1.276   .     A
C15    O54     1.276   .     A
C16    O55     1.259   .     A
C16    O61     1.279   .     A
C17    O50     1.277   .     A
C17    O52     1.276   .     A
C17    C20     1.449   .     S
C18    O51     1.282   .     A
C18    C19     1.471   .     S
C18    O53     1.284   .     A
C19    C23     1.399   .     A
C21    C26     1.403   .     A
C21    H47     1.084   .     S
C22    H40     1.112   .     S
C22    H39     1.112   .     S
C22    C209    1.531   .     S
C22    C219    1.533   .     S
C23    H32     1.074   .     S
C23    C25     1.408   .     A
C24    H38     1.111   .     S
C24    H36     1.111   .     S
C24    H37     1.111   .     S
C24    C412    1.533   1_545 S
C25    C27     1.427   .     A
C25    C26     1.418   .     A
C26    C615    1.390   .     S
C27    C613    1.427   .     S
C28    C29     1.416   .     A
C28    C612    1.427   1_554 S
C29    C30     1.387   .     A
C29    H33     1.076   .     S
C30    H35     1.084   .     S
C30    C611    1.390   1_554 S
H41    C140    1.088   1_455 S
H42    C76     1.086   .     S
H43    C403    1.089   1_545 S
O49    Zn63    1.949   .     S
O49    Zn64    1.942   .     S
O49    Zn65    1.925   .     S
O49    Zn62    1.968   .     S
O50    Zn63    1.935   .     S
O51    Zn65    1.947   .     S
O52    Zn64    1.938   .     S
O53    Zn62    1.926   .     S
O54    Zn62    1.939   .     S
O55    Zn65    1.946   .     S
O56    Zn63    1.920   .     S
O57    Zn64    1.934   .     S
O58    Zn65    1.932   .     S
O59    Zn62    1.922   .     S
O60    Zn63    1.949   .     S
O61    Zn64    1.938   .     S
C66    C76     1.437   .     S
C66    O123    1.270   .     A
C66    O121    1.270   .     A
C67    C92     1.416   .     A
C67    C68     1.384   .     A
C67    H99     1.075   .     S
C68    H111    1.085   .     S
C68    C655    1.389   .     S
C69    O122    1.287   .     A
C69    O124    1.283   .     A
C69    C75     1.455   .     S
C70    C71     1.421   .     A
C70    C72     1.403   .     A
C70    C653    1.389   1_554 S
C71    C74     1.410   .     A
C71    C93     1.428   .     A
C72    C73     1.389   .     A
C72    H96     1.084   .     S
C73    C85     1.393   .     A
C73    H110    1.083   .     S
C74    C85     1.392   .     A
C74    H109    1.077   .     S
C75    C141    1.335   .     S
C75    H171    1.088   .     S
C77    H113    1.083   .     S
C77    C84     1.400   .     A
C77    C86     1.392   .     A
C78    C81     1.455   .     S
C78    C274    1.353   .     S
C78    H303    1.089   .     S
C79    C80     1.433   .     S
C79    C468    1.353   1_545 S
C79    C477    1.531   1_545 S
C80    O125    1.276   .     A
C80    O119    1.276   .     A
C81    O120    1.259   .     A
C81    O126    1.279   .     A
C82    O115    1.277   .     A
C82    O117    1.276   .     A
C82    C85     1.449   .     S
C83    O116    1.282   .     A
C83    C84     1.471   .     S
C83    O118    1.284   .     A
C84    C88     1.399   .     A
C86    C91     1.403   .     A
C86    H112    1.084   .     S
C87    H105    1.112   .     S
C87    H104    1.112   .     S
C87    C274    1.531   .     S
C87    C284    1.533   .     S
C88    H97     1.074   .     S
C88    C90     1.408   .     A
C89    H103    1.111   .     S
C89    H101    1.111   .     S
C89    H102    1.111   .     S
C89    C477    1.533   1_545 S
C90    C92     1.427   .     A
C90    C91     1.418   .     A
C91    C680    1.390   .     S
C92    C678    1.427   .     S
C93    C94     1.416   .     A
C93    C677    1.427   1_554 S
C94    C95     1.387   .     A
C94    H98     1.076   .     S
C95    H100    1.084   .     S
C95    C676    1.390   1_554 S
H107   C141    1.086   .     S
H108   C468    1.089   1_545 S
O114   Zn128   1.949   .     S
O114   Zn129   1.942   .     S
O114   Zn130   1.925   .     S
O114   Zn127   1.968   .     S
O115   Zn128   1.935   .     S
O116   Zn130   1.947   .     S
O117   Zn129   1.938   .     S
O118   Zn127   1.926   .     S
O119   Zn127   1.939   .     S
O120   Zn130   1.946   .     S
O121   Zn128   1.920   .     S
O122   Zn129   1.934   .     S
O123   Zn130   1.932   .     S
O124   Zn127   1.922   .     S
O125   Zn128   1.949   .     S
O126   Zn129   1.938   .     S
C131   C141    1.437   .     S
C131   O188    1.270   .     A
C131   O186    1.270   .     A
C132   C157    1.416   .     A
C132   C133    1.384   .     A
C132   H164    1.075   .     S
C133   H176    1.085   .     S
C133   C720    1.389   .     S
C134   O187    1.287   .     A
C134   O189    1.283   .     A
C134   C140    1.455   .     S
C135   C136    1.421   .     A
C135   C137    1.403   .     A
C135   C718    1.389   1_554 S
C136   C139    1.410   .     A
C136   C158    1.428   .     A
C137   C138    1.389   .     A
C137   H161    1.084   .     S
C138   C150    1.393   .     A
C138   H175    1.083   .     S
C139   C150    1.392   .     A
C139   H174    1.077   .     S
C140   C11     1.335   1_655 S
C140   H41     1.088   1_655 S
C142   H178    1.083   .     S
C142   C149    1.400   .     A
C142   C151    1.392   .     A
C143   C146    1.455   .     S
C143   C339    1.353   .     S
C143   H368    1.089   .     S
C144   C145    1.433   .     S
C144   C533    1.353   1_545 S
C144   C542    1.531   1_545 S
C145   O190    1.276   .     A
C145   O184    1.276   .     A
C146   O185    1.259   .     A
C146   O191    1.279   .     A
C147   O180    1.277   .     A
C147   O182    1.276   .     A
C147   C150    1.449   .     S
C148   O181    1.282   .     A
C148   C149    1.471   .     S
C148   O183    1.284   .     A
C149   C153    1.399   .     A
C151   C156    1.403   .     A
C151   H177    1.084   .     S
C152   H170    1.112   .     S
C152   H169    1.112   .     S
C152   C339    1.531   .     S
C152   C349    1.533   .     S
C153   H162    1.074   .     S
C153   C155    1.408   .     A
C154   H168    1.111   .     S
C154   H166    1.111   .     S
C154   H167    1.111   .     S
C154   C542    1.533   1_545 S
C155   C157    1.427   .     A
C155   C156    1.418   .     A
C156   C745    1.390   .     S
C157   C743    1.427   .     S
C158   C159    1.416   .     A
C158   C742    1.427   1_554 S
C159   C160    1.387   .     A
C159   H163    1.076   .     S
C160   H165    1.084   .     S
C160   C741    1.390   1_554 S
H172   C11     1.086   1_655 S
H173   C533    1.089   1_545 S
O179   Zn193   1.949   .     S
O179   Zn194   1.942   .     S
O179   Zn195   1.925   .     S
O179   Zn192   1.968   .     S
O180   Zn193   1.935   .     S
O181   Zn195   1.947   .     S
O182   Zn194   1.938   .     S
O183   Zn192   1.926   .     S
O184   Zn192   1.939   .     S
O185   Zn195   1.946   .     S
O186   Zn193   1.920   .     S
O187   Zn194   1.934   .     S
O188   Zn195   1.932   .     S
O189   Zn192   1.922   .     S
O190   Zn193   1.949   .     S
O191   Zn194   1.938   .     S
C196   C206    1.437   .     S
C196   O253    1.270   .     A
C196   O251    1.270   .     A
C197   C222    1.416   .     A
C197   C198    1.384   .     A
C197   H229    1.075   .     S
C198   H241    1.085   .     S
C198   C785    1.389   .     S
C199   O252    1.287   .     A
C199   O254    1.283   .     A
C199   C205    1.455   .     S
C200   C201    1.421   .     A
C200   C202    1.403   .     A
C200   C783    1.389   1_554 S
C201   C204    1.410   .     A
C201   C223    1.428   .     A
C202   C203    1.389   .     A
C202   H226    1.084   .     S
C203   C215    1.393   .     A
C203   H240    1.083   .     S
C204   C215    1.392   .     A
C204   H239    1.077   .     S
C205   C271    1.335   .     S
C205   H301    1.088   .     S
C206   C335    1.335   1_455 S
C206   H367    1.086   1_455 S
C207   H243    1.083   .     S
C207   C214    1.400   .     A
C207   C216    1.392   .     A
C208   C211    1.455   .     S
C208   C404    1.353   .     S
C208   H433    1.089   .     S
C209   C210    1.433   .     S
C210   O255    1.276   .     A
C210   O249    1.276   .     A
C211   O250    1.259   .     A
C211   O256    1.279   .     A
C212   O245    1.277   .     A
C212   O247    1.276   .     A
C212   C215    1.449   .     S
C213   O246    1.282   .     A
C213   C214    1.471   .     S
C213   O248    1.284   .     A
C214   C218    1.399   .     A
C216   C221    1.403   .     A
C216   H242    1.084   .     S
C217   H235    1.112   .     S
C217   H234    1.112   .     S
C217   C404    1.531   .     S
C217   C414    1.533   .     S
C218   H227    1.074   .     S
C218   C220    1.408   .     A
C219   H233    1.111   .     S
C219   H231    1.111   .     S
C219   H232    1.111   .     S
C220   C222    1.427   .     A
C220   C221    1.418   .     A
C221   C810    1.390   .     S
C222   C808    1.427   .     S
C223   C224    1.416   .     A
C223   C807    1.427   1_554 S
C224   C225    1.387   .     A
C224   H228    1.076   .     S
C225   H230    1.084   .     S
C225   C806    1.390   1_554 S
H236   C335    1.088   1_455 S
H237   C271    1.086   .     S
O244   Zn258   1.949   .     S
O244   Zn259   1.942   .     S
O244   Zn260   1.925   .     S
O244   Zn257   1.968   .     S
O245   Zn258   1.935   .     S
O246   Zn260   1.947   .     S
O247   Zn259   1.938   .     S
O248   Zn257   1.926   .     S
O249   Zn257   1.939   .     S
O250   Zn260   1.946   .     S
O251   Zn258   1.920   .     S
O252   Zn259   1.934   .     S
O253   Zn260   1.932   .     S
O254   Zn257   1.922   .     S
O255   Zn258   1.949   .     S
O256   Zn259   1.938   .     S
C261   C271    1.437   .     S
C261   O318    1.270   .     A
C261   O316    1.270   .     A
C262   C287    1.416   .     A
C262   C263    1.384   .     A
C262   H294    1.075   .     S
C263   H306    1.085   .     S
C263   C850    1.389   .     S
C264   O317    1.287   .     A
C264   O319    1.283   .     A
C264   C270    1.455   .     S
C265   C266    1.421   .     A
C265   C267    1.403   .     A
C265   C848    1.389   1_554 S
C266   C269    1.410   .     A
C266   C288    1.428   .     A
C267   C268    1.389   .     A
C267   H291    1.084   .     S
C268   C280    1.393   .     A
C268   H305    1.083   .     S
C269   C280    1.392   .     A
C269   H304    1.077   .     S
C270   C336    1.335   .     S
C270   H366    1.088   .     S
C272   H308    1.083   .     S
C272   C279    1.400   .     A
C272   C281    1.392   .     A
C273   C276    1.455   .     S
C273   C469    1.353   .     S
C273   H498    1.089   .     S
C274   C275    1.433   .     S
C275   O320    1.276   .     A
C275   O314    1.276   .     A
C276   O315    1.259   .     A
C276   O321    1.279   .     A
C277   O310    1.277   .     A
C277   O312    1.276   .     A
C277   C280    1.449   .     S
C278   O311    1.282   .     A
C278   C279    1.471   .     S
C278   O313    1.284   .     A
C279   C283    1.399   .     A
C281   C286    1.403   .     A
C281   H307    1.084   .     S
C282   H300    1.112   .     S
C282   H299    1.112   .     S
C282   C469    1.531   .     S
C282   C479    1.533   .     S
C283   H292    1.074   .     S
C283   C285    1.408   .     A
C284   H298    1.111   .     S
C284   H296    1.111   .     S
C284   H297    1.111   .     S
C285   C287    1.427   .     A
C285   C286    1.418   .     A
C286   C875    1.390   .     S
C287   C873    1.427   .     S
C288   C289    1.416   .     A
C288   C872    1.427   1_554 S
C289   C290    1.387   .     A
C289   H293    1.076   .     S
C290   H295    1.084   .     S
C290   C871    1.390   1_554 S
H302   C336    1.086   .     S
O309   Zn323   1.949   .     S
O309   Zn324   1.942   .     S
O309   Zn325   1.925   .     S
O309   Zn322   1.968   .     S
O310   Zn323   1.935   .     S
O311   Zn325   1.947   .     S
O312   Zn324   1.938   .     S
O313   Zn322   1.926   .     S
O314   Zn322   1.939   .     S
O315   Zn325   1.946   .     S
O316   Zn323   1.920   .     S
O317   Zn324   1.934   .     S
O318   Zn325   1.932   .     S
O319   Zn322   1.922   .     S
O320   Zn323   1.949   .     S
O321   Zn324   1.938   .     S
C326   C336    1.437   .     S
C326   O383    1.270   .     A
C326   O381    1.270   .     A
C327   C352    1.416   .     A
C327   C328    1.384   .     A
C327   H359    1.075   .     S
C328   H371    1.085   .     S
C328   C915    1.389   .     S
C329   O382    1.287   .     A
C329   O384    1.283   .     A
C329   C335    1.455   .     S
C330   C331    1.421   .     A
C330   C332    1.403   .     A
C330   C913    1.389   1_554 S
C331   C334    1.410   .     A
C331   C353    1.428   .     A
C332   C333    1.389   .     A
C332   H356    1.084   .     S
C333   C345    1.393   .     A
C333   H370    1.083   .     S
C334   C345    1.392   .     A
C334   H369    1.077   .     S
C335   C206    1.335   1_655 S
C335   H236    1.088   1_655 S
C337   H373    1.083   .     S
C337   C344    1.400   .     A
C337   C346    1.392   .     A
C338   C341    1.455   .     S
C338   C534    1.353   .     S
C338   H563    1.089   .     S
C339   C340    1.433   .     S
C340   O385    1.276   .     A
C340   O379    1.276   .     A
C341   O380    1.259   .     A
C341   O386    1.279   .     A
C342   O375    1.277   .     A
C342   O377    1.276   .     A
C342   C345    1.449   .     S
C343   O376    1.282   .     A
C343   C344    1.471   .     S
C343   O378    1.284   .     A
C344   C348    1.399   .     A
C346   C351    1.403   .     A
C346   H372    1.084   .     S
C347   H365    1.112   .     S
C347   H364    1.112   .     S
C347   C534    1.531   .     S
C347   C544    1.533   .     S
C348   H357    1.074   .     S
C348   C350    1.408   .     A
C349   H363    1.111   .     S
C349   H361    1.111   .     S
C349   H362    1.111   .     S
C350   C352    1.427   .     A
C350   C351    1.418   .     A
C351   C940    1.390   .     S
C352   C938    1.427   .     S
C353   C354    1.416   .     A
C353   C937    1.427   1_554 S
C354   C355    1.387   .     A
C354   H358    1.076   .     S
C355   H360    1.084   .     S
C355   C936    1.390   1_554 S
H367   C206    1.086   1_655 S
O374   Zn388   1.949   .     S
O374   Zn389   1.942   .     S
O374   Zn390   1.925   .     S
O374   Zn387   1.968   .     S
O375   Zn388   1.935   .     S
O376   Zn390   1.947   .     S
O377   Zn389   1.938   .     S
O378   Zn387   1.926   .     S
O379   Zn387   1.939   .     S
O380   Zn390   1.946   .     S
O381   Zn388   1.920   .     S
O382   Zn389   1.934   .     S
O383   Zn390   1.932   .     S
O384   Zn387   1.922   .     S
O385   Zn388   1.949   .     S
O386   Zn389   1.938   .     S
C391   C401    1.437   .     S
C391   O448    1.270   .     A
C391   O446    1.270   .     A
C392   C417    1.416   .     A
C392   C393    1.384   .     A
C392   H424    1.075   .     S
C393   H436    1.085   .     S
C393   C980    1.389   .     S
C394   O447    1.287   .     A
C394   O449    1.283   .     A
C394   C400    1.455   .     S
C395   C396    1.421   .     A
C395   C397    1.403   .     A
C395   C978    1.389   1_554 S
C396   C399    1.410   .     A
C396   C418    1.428   .     A
C397   C398    1.389   .     A
C397   H421    1.084   .     S
C398   C410    1.393   .     A
C398   H435    1.083   .     S
C399   C410    1.392   .     A
C399   H434    1.077   .     S
C400   C466    1.335   .     S
C400   H496    1.088   .     S
C401   C530    1.335   1_455 S
C401   H562    1.086   1_455 S
C402   H438    1.083   .     S
C402   C409    1.400   .     A
C402   C411    1.392   .     A
C403   C406    1.455   .     S
C403   C14     1.353   1_565 S
C403   H43     1.089   1_565 S
C404   C405    1.433   .     S
C405   O450    1.276   .     A
C405   O444    1.276   .     A
C406   O445    1.259   .     A
C406   O451    1.279   .     A
C407   O440    1.277   .     A
C407   O442    1.276   .     A
C407   C410    1.449   .     S
C408   O441    1.282   .     A
C408   C409    1.471   .     S
C408   O443    1.284   .     A
C409   C413    1.399   .     A
C411   C416    1.403   .     A
C411   H437    1.084   .     S
C412   H430    1.112   .     S
C412   H429    1.112   .     S
C412   C14     1.531   1_565 S
C412   C24     1.533   1_565 S
C413   H422    1.074   .     S
C413   C415    1.408   .     A
C414   H428    1.111   .     S
C414   H426    1.111   .     S
C414   H427    1.111   .     S
C415   C417    1.427   .     A
C415   C416    1.418   .     A
C416   C1005   1.390   .     S
C417   C1003   1.427   .     S
C418   C419    1.416   .     A
C418   C1002   1.427   1_554 S
C419   C420    1.387   .     A
C419   H423    1.076   .     S
C420   H425    1.084   .     S
C420   C1001   1.390   1_554 S
H431   C530    1.088   1_455 S
H432   C466    1.086   .     S
O439   Zn453   1.949   .     S
O439   Zn454   1.942   .     S
O439   Zn455   1.925   .     S
O439   Zn452   1.968   .     S
O440   Zn453   1.935   .     S
O441   Zn455   1.947   .     S
O442   Zn454   1.938   .     S
O443   Zn452   1.926   .     S
O444   Zn452   1.939   .     S
O445   Zn455   1.946   .     S
O446   Zn453   1.920   .     S
O447   Zn454   1.934   .     S
O448   Zn455   1.932   .     S
O449   Zn452   1.922   .     S
O450   Zn453   1.949   .     S
O451   Zn454   1.938   .     S
C456   C466    1.437   .     S
C456   O513    1.270   .     A
C456   O511    1.270   .     A
C457   C482    1.416   .     A
C457   C458    1.384   .     A
C457   H489    1.075   .     S
C458   H501    1.085   .     S
C458   C1045   1.389   .     S
C459   O512    1.287   .     A
C459   O514    1.283   .     A
C459   C465    1.455   .     S
C460   C461    1.421   .     A
C460   C462    1.403   .     A
C460   C1043   1.389   1_554 S
C461   C464    1.410   .     A
C461   C483    1.428   .     A
C462   C463    1.389   .     A
C462   H486    1.084   .     S
C463   C475    1.393   .     A
C463   H500    1.083   .     S
C464   C475    1.392   .     A
C464   H499    1.077   .     S
C465   C531    1.335   .     S
C465   H561    1.088   .     S
C467   H503    1.083   .     S
C467   C474    1.400   .     A
C467   C476    1.392   .     A
C468   C471    1.455   .     S
C468   C79     1.353   1_565 S
C468   H108    1.089   1_565 S
C469   C470    1.433   .     S
C470   O515    1.276   .     A
C470   O509    1.276   .     A
C471   O510    1.259   .     A
C471   O516    1.279   .     A
C472   O505    1.277   .     A
C472   O507    1.276   .     A
C472   C475    1.449   .     S
C473   O506    1.282   .     A
C473   C474    1.471   .     S
C473   O508    1.284   .     A
C474   C478    1.399   .     A
C476   C481    1.403   .     A
C476   H502    1.084   .     S
C477   H495    1.112   .     S
C477   H494    1.112   .     S
C477   C79     1.531   1_565 S
C477   C89     1.533   1_565 S
C478   H487    1.074   .     S
C478   C480    1.408   .     A
C479   H493    1.111   .     S
C479   H491    1.111   .     S
C479   H492    1.111   .     S
C480   C482    1.427   .     A
C480   C481    1.418   .     A
C481   C1070   1.390   .     S
C482   C1068   1.427   .     S
C483   C484    1.416   .     A
C483   C1067   1.427   1_554 S
C484   C485    1.387   .     A
C484   H488    1.076   .     S
C485   H490    1.084   .     S
C485   C1066   1.390   1_554 S
H497   C531    1.086   .     S
O504   Zn518   1.949   .     S
O504   Zn519   1.942   .     S
O504   Zn520   1.925   .     S
O504   Zn517   1.968   .     S
O505   Zn518   1.935   .     S
O506   Zn520   1.947   .     S
O507   Zn519   1.938   .     S
O508   Zn517   1.926   .     S
O509   Zn517   1.939   .     S
O510   Zn520   1.946   .     S
O511   Zn518   1.920   .     S
O512   Zn519   1.934   .     S
O513   Zn520   1.932   .     S
O514   Zn517   1.922   .     S
O515   Zn518   1.949   .     S
O516   Zn519   1.938   .     S
C521   C531    1.437   .     S
C521   O578    1.270   .     A
C521   O576    1.270   .     A
C522   C547    1.416   .     A
C522   C523    1.384   .     A
C522   H554    1.075   .     S
C523   H566    1.085   .     S
C523   C1110   1.389   .     S
C524   O577    1.287   .     A
C524   O579    1.283   .     A
C524   C530    1.455   .     S
C525   C526    1.421   .     A
C525   C527    1.403   .     A
C525   C1108   1.389   1_554 S
C526   C529    1.410   .     A
C526   C548    1.428   .     A
C527   C528    1.389   .     A
C527   H551    1.084   .     S
C528   C540    1.393   .     A
C528   H565    1.083   .     S
C529   C540    1.392   .     A
C529   H564    1.077   .     S
C530   C401    1.335   1_655 S
C530   H431    1.088   1_655 S
C532   H568    1.083   .     S
C532   C539    1.400   .     A
C532   C541    1.392   .     A
C533   C536    1.455   .     S
C533   C144    1.353   1_565 S
C533   H173    1.089   1_565 S
C534   C535    1.433   .     S
C535   O580    1.276   .     A
C535   O574    1.276   .     A
C536   O575    1.259   .     A
C536   O581    1.279   .     A
C537   O570    1.277   .     A
C537   O572    1.276   .     A
C537   C540    1.449   .     S
C538   O571    1.282   .     A
C538   C539    1.471   .     S
C538   O573    1.284   .     A
C539   C543    1.399   .     A
C541   C546    1.403   .     A
C541   H567    1.084   .     S
C542   H560    1.112   .     S
C542   H559    1.112   .     S
C542   C144    1.531   1_565 S
C542   C154    1.533   1_565 S
C543   H552    1.074   .     S
C543   C545    1.408   .     A
C544   H558    1.111   .     S
C544   H556    1.111   .     S
C544   H557    1.111   .     S
C545   C547    1.427   .     A
C545   C546    1.418   .     A
C546   C1135   1.390   .     S
C547   C1133   1.427   .     S
C548   C549    1.416   .     A
C548   C1132   1.427   1_554 S
C549   C550    1.387   .     A
C549   H553    1.076   .     S
C550   H555    1.084   .     S
C550   C1131   1.390   1_554 S
H562   C401    1.086   1_655 S
O569   Zn583   1.949   .     S
O569   Zn584   1.942   .     S
O569   Zn585   1.925   .     S
O569   Zn582   1.968   .     S
O570   Zn583   1.935   .     S
O571   Zn585   1.947   .     S
O572   Zn584   1.938   .     S
O573   Zn582   1.926   .     S
O574   Zn582   1.939   .     S
O575   Zn585   1.946   .     S
O576   Zn583   1.920   .     S
O577   Zn584   1.934   .     S
O578   Zn585   1.932   .     S
O579   Zn582   1.922   .     S
O580   Zn583   1.949   .     S
O581   Zn584   1.938   .     S
C586   C596    1.437   .     S
C586   O643    1.270   .     A
C586   O641    1.270   .     A
C587   C612    1.416   .     A
C587   C588    1.384   .     A
C587   H619    1.075   .     S
C588   H631    1.085   .     S
C588   C5      1.389   1_556 S
C589   O642    1.287   .     A
C589   O644    1.283   .     A
C589   C595    1.455   .     S
C590   C591    1.421   .     A
C590   C592    1.403   .     A
C591   C594    1.410   .     A
C591   C613    1.428   .     A
C592   C593    1.389   .     A
C592   H616    1.084   .     S
C593   C605    1.393   .     A
C593   H630    1.083   .     S
C594   C605    1.392   .     A
C594   H629    1.077   .     S
C595   C661    1.335   .     S
C595   H691    1.088   .     S
C596   C725    1.335   1_455 S
C596   H757    1.086   1_455 S
C597   H633    1.083   .     S
C597   C604    1.400   .     A
C597   C606    1.392   .     A
C598   C601    1.455   .     S
C598   C794    1.353   .     S
C598   H823    1.089   .     S
C599   C600    1.433   .     S
C599   C988    1.353   1_545 S
C599   C997    1.531   1_545 S
C600   O645    1.276   .     A
C600   O639    1.276   .     A
C601   O640    1.259   .     A
C601   O646    1.279   .     A
C602   O635    1.277   .     A
C602   O637    1.276   .     A
C602   C605    1.449   .     S
C603   O636    1.282   .     A
C603   C604    1.471   .     S
C603   O638    1.284   .     A
C604   C608    1.399   .     A
C606   C611    1.403   .     A
C606   H632    1.084   .     S
C607   H625    1.112   .     S
C607   H624    1.112   .     S
C607   C794    1.531   .     S
C607   C804    1.533   .     S
C608   H617    1.074   .     S
C608   C610    1.408   .     A
C609   H623    1.111   .     S
C609   H621    1.111   .     S
C609   H622    1.111   .     S
C609   C997    1.533   1_545 S
C610   C612    1.427   .     A
C610   C611    1.418   .     A
C611   C30     1.390   1_556 S
C612   C28     1.427   1_556 S
C613   C614    1.416   .     A
C614   C615    1.387   .     A
C614   H618    1.076   .     S
C615   H620    1.084   .     S
H626   C725    1.088   1_455 S
H627   C661    1.086   .     S
H628   C988    1.089   1_545 S
O634   Zn648   1.949   .     S
O634   Zn649   1.942   .     S
O634   Zn650   1.925   .     S
O634   Zn647   1.968   .     S
O635   Zn648   1.935   .     S
O636   Zn650   1.947   .     S
O637   Zn649   1.938   .     S
O638   Zn647   1.926   .     S
O639   Zn647   1.939   .     S
O640   Zn650   1.946   .     S
O641   Zn648   1.920   .     S
O642   Zn649   1.934   .     S
O643   Zn650   1.932   .     S
O644   Zn647   1.922   .     S
O645   Zn648   1.949   .     S
O646   Zn649   1.938   .     S
C651   C661    1.437   .     S
C651   O708    1.270   .     A
C651   O706    1.270   .     A
C652   C677    1.416   .     A
C652   C653    1.384   .     A
C652   H684    1.075   .     S
C653   H696    1.085   .     S
C653   C70     1.389   1_556 S
C654   O707    1.287   .     A
C654   O709    1.283   .     A
C654   C660    1.455   .     S
C655   C656    1.421   .     A
C655   C657    1.403   .     A
C656   C659    1.410   .     A
C656   C678    1.428   .     A
C657   C658    1.389   .     A
C657   H681    1.084   .     S
C658   C670    1.393   .     A
C658   H695    1.083   .     S
C659   C670    1.392   .     A
C659   H694    1.077   .     S
C660   C726    1.335   .     S
C660   H756    1.088   .     S
C662   H698    1.083   .     S
C662   C669    1.400   .     A
C662   C671    1.392   .     A
C663   C666    1.455   .     S
C663   C859    1.353   .     S
C663   H888    1.089   .     S
C664   C665    1.433   .     S
C664   C1053   1.353   1_545 S
C664   C1062   1.531   1_545 S
C665   O710    1.276   .     A
C665   O704    1.276   .     A
C666   O705    1.259   .     A
C666   O711    1.279   .     A
C667   O700    1.277   .     A
C667   O702    1.276   .     A
C667   C670    1.449   .     S
C668   O701    1.282   .     A
C668   C669    1.471   .     S
C668   O703    1.284   .     A
C669   C673    1.399   .     A
C671   C676    1.403   .     A
C671   H697    1.084   .     S
C672   H690    1.112   .     S
C672   H689    1.112   .     S
C672   C859    1.531   .     S
C672   C869    1.533   .     S
C673   H682    1.074   .     S
C673   C675    1.408   .     A
C674   H688    1.111   .     S
C674   H686    1.111   .     S
C674   H687    1.111   .     S
C674   C1062   1.533   1_545 S
C675   C677    1.427   .     A
C675   C676    1.418   .     A
C676   C95     1.390   1_556 S
C677   C93     1.427   1_556 S
C678   C679    1.416   .     A
C679   C680    1.387   .     A
C679   H683    1.076   .     S
C680   H685    1.084   .     S
H692   C726    1.086   .     S
H693   C1053   1.089   1_545 S
O699   Zn713   1.949   .     S
O699   Zn714   1.942   .     S
O699   Zn715   1.925   .     S
O699   Zn712   1.968   .     S
O700   Zn713   1.935   .     S
O701   Zn715   1.947   .     S
O702   Zn714   1.938   .     S
O703   Zn712   1.926   .     S
O704   Zn712   1.939   .     S
O705   Zn715   1.946   .     S
O706   Zn713   1.920   .     S
O707   Zn714   1.934   .     S
O708   Zn715   1.932   .     S
O709   Zn712   1.922   .     S
O710   Zn713   1.949   .     S
O711   Zn714   1.938   .     S
C716   C726    1.437   .     S
C716   O773    1.270   .     A
C716   O771    1.270   .     A
C717   C742    1.416   .     A
C717   C718    1.384   .     A
C717   H749    1.075   .     S
C718   H761    1.085   .     S
C718   C135    1.389   1_556 S
C719   O772    1.287   .     A
C719   O774    1.283   .     A
C719   C725    1.455   .     S
C720   C721    1.421   .     A
C720   C722    1.403   .     A
C721   C724    1.410   .     A
C721   C743    1.428   .     A
C722   C723    1.389   .     A
C722   H746    1.084   .     S
C723   C735    1.393   .     A
C723   H760    1.083   .     S
C724   C735    1.392   .     A
C724   H759    1.077   .     S
C725   C596    1.335   1_655 S
C725   H626    1.088   1_655 S
C727   H763    1.083   .     S
C727   C734    1.400   .     A
C727   C736    1.392   .     A
C728   C731    1.455   .     S
C728   C924    1.353   .     S
C728   H953    1.089   .     S
C729   C730    1.433   .     S
C729   C1118   1.353   1_545 S
C729   C1127   1.531   1_545 S
C730   O775    1.276   .     A
C730   O769    1.276   .     A
C731   O770    1.259   .     A
C731   O776    1.279   .     A
C732   O765    1.277   .     A
C732   O767    1.276   .     A
C732   C735    1.449   .     S
C733   O766    1.282   .     A
C733   C734    1.471   .     S
C733   O768    1.284   .     A
C734   C738    1.399   .     A
C736   C741    1.403   .     A
C736   H762    1.084   .     S
C737   H755    1.112   .     S
C737   H754    1.112   .     S
C737   C924    1.531   .     S
C737   C934    1.533   .     S
C738   H747    1.074   .     S
C738   C740    1.408   .     A
C739   H753    1.111   .     S
C739   H751    1.111   .     S
C739   H752    1.111   .     S
C739   C1127   1.533   1_545 S
C740   C742    1.427   .     A
C740   C741    1.418   .     A
C741   C160    1.390   1_556 S
C742   C158    1.427   1_556 S
C743   C744    1.416   .     A
C744   C745    1.387   .     A
C744   H748    1.076   .     S
C745   H750    1.084   .     S
H757   C596    1.086   1_655 S
H758   C1118   1.089   1_545 S
O764   Zn778   1.949   .     S
O764   Zn779   1.942   .     S
O764   Zn780   1.925   .     S
O764   Zn777   1.968   .     S
O765   Zn778   1.935   .     S
O766   Zn780   1.947   .     S
O767   Zn779   1.938   .     S
O768   Zn777   1.926   .     S
O769   Zn777   1.939   .     S
O770   Zn780   1.946   .     S
O771   Zn778   1.920   .     S
O772   Zn779   1.934   .     S
O773   Zn780   1.932   .     S
O774   Zn777   1.922   .     S
O775   Zn778   1.949   .     S
O776   Zn779   1.938   .     S
C781   C791    1.437   .     S
C781   O838    1.270   .     A
C781   O836    1.270   .     A
C782   C807    1.416   .     A
C782   C783    1.384   .     A
C782   H814    1.075   .     S
C783   H826    1.085   .     S
C783   C200    1.389   1_556 S
C784   O837    1.287   .     A
C784   O839    1.283   .     A
C784   C790    1.455   .     S
C785   C786    1.421   .     A
C785   C787    1.403   .     A
C786   C789    1.410   .     A
C786   C808    1.428   .     A
C787   C788    1.389   .     A
C787   H811    1.084   .     S
C788   C800    1.393   .     A
C788   H825    1.083   .     S
C789   C800    1.392   .     A
C789   H824    1.077   .     S
C790   C856    1.335   .     S
C790   H886    1.088   .     S
C791   C920    1.335   1_455 S
C791   H952    1.086   1_455 S
C792   H828    1.083   .     S
C792   C799    1.400   .     A
C792   C801    1.392   .     A
C793   C796    1.455   .     S
C793   C989    1.353   .     S
C793   H1018   1.089   .     S
C794   C795    1.433   .     S
C795   O840    1.276   .     A
C795   O834    1.276   .     A
C796   O835    1.259   .     A
C796   O841    1.279   .     A
C797   O830    1.277   .     A
C797   O832    1.276   .     A
C797   C800    1.449   .     S
C798   O831    1.282   .     A
C798   C799    1.471   .     S
C798   O833    1.284   .     A
C799   C803    1.399   .     A
C801   C806    1.403   .     A
C801   H827    1.084   .     S
C802   H820    1.112   .     S
C802   H819    1.112   .     S
C802   C989    1.531   .     S
C802   C999    1.533   .     S
C803   H812    1.074   .     S
C803   C805    1.408   .     A
C804   H818    1.111   .     S
C804   H816    1.111   .     S
C804   H817    1.111   .     S
C805   C807    1.427   .     A
C805   C806    1.418   .     A
C806   C225    1.390   1_556 S
C807   C223    1.427   1_556 S
C808   C809    1.416   .     A
C809   C810    1.387   .     A
C809   H813    1.076   .     S
C810   H815    1.084   .     S
H821   C920    1.088   1_455 S
H822   C856    1.086   .     S
O829   Zn843   1.949   .     S
O829   Zn844   1.942   .     S
O829   Zn845   1.925   .     S
O829   Zn842   1.968   .     S
O830   Zn843   1.935   .     S
O831   Zn845   1.947   .     S
O832   Zn844   1.938   .     S
O833   Zn842   1.926   .     S
O834   Zn842   1.939   .     S
O835   Zn845   1.946   .     S
O836   Zn843   1.920   .     S
O837   Zn844   1.934   .     S
O838   Zn845   1.932   .     S
O839   Zn842   1.922   .     S
O840   Zn843   1.949   .     S
O841   Zn844   1.938   .     S
C846   C856    1.437   .     S
C846   O903    1.270   .     A
C846   O901    1.270   .     A
C847   C872    1.416   .     A
C847   C848    1.384   .     A
C847   H879    1.075   .     S
C848   H891    1.085   .     S
C848   C265    1.389   1_556 S
C849   O902    1.287   .     A
C849   O904    1.283   .     A
C849   C855    1.455   .     S
C850   C851    1.421   .     A
C850   C852    1.403   .     A
C851   C854    1.410   .     A
C851   C873    1.428   .     A
C852   C853    1.389   .     A
C852   H876    1.084   .     S
C853   C865    1.393   .     A
C853   H890    1.083   .     S
C854   C865    1.392   .     A
C854   H889    1.077   .     S
C855   C921    1.335   .     S
C855   H951    1.088   .     S
C857   H893    1.083   .     S
C857   C864    1.400   .     A
C857   C866    1.392   .     A
C858   C861    1.455   .     S
C858   C1054   1.353   .     S
C858   H1083   1.089   .     S
C859   C860    1.433   .     S
C860   O905    1.276   .     A
C860   O899    1.276   .     A
C861   O900    1.259   .     A
C861   O906    1.279   .     A
C862   O895    1.277   .     A
C862   O897    1.276   .     A
C862   C865    1.449   .     S
C863   O896    1.282   .     A
C863   C864    1.471   .     S
C863   O898    1.284   .     A
C864   C868    1.399   .     A
C866   C871    1.403   .     A
C866   H892    1.084   .     S
C867   H885    1.112   .     S
C867   H884    1.112   .     S
C867   C1054   1.531   .     S
C867   C1064   1.533   .     S
C868   H877    1.074   .     S
C868   C870    1.408   .     A
C869   H883    1.111   .     S
C869   H881    1.111   .     S
C869   H882    1.111   .     S
C870   C872    1.427   .     A
C870   C871    1.418   .     A
C871   C290    1.390   1_556 S
C872   C288    1.427   1_556 S
C873   C874    1.416   .     A
C874   C875    1.387   .     A
C874   H878    1.076   .     S
C875   H880    1.084   .     S
H887   C921    1.086   .     S
O894   Zn908   1.949   .     S
O894   Zn909   1.942   .     S
O894   Zn910   1.925   .     S
O894   Zn907   1.968   .     S
O895   Zn908   1.935   .     S
O896   Zn910   1.947   .     S
O897   Zn909   1.938   .     S
O898   Zn907   1.926   .     S
O899   Zn907   1.939   .     S
O900   Zn910   1.946   .     S
O901   Zn908   1.920   .     S
O902   Zn909   1.934   .     S
O903   Zn910   1.932   .     S
O904   Zn907   1.922   .     S
O905   Zn908   1.949   .     S
O906   Zn909   1.938   .     S
C911   C921    1.437   .     S
C911   O968    1.270   .     A
C911   O966    1.270   .     A
C912   C937    1.416   .     A
C912   C913    1.384   .     A
C912   H944    1.075   .     S
C913   H956    1.085   .     S
C913   C330    1.389   1_556 S
C914   O967    1.287   .     A
C914   O969    1.283   .     A
C914   C920    1.455   .     S
C915   C916    1.421   .     A
C915   C917    1.403   .     A
C916   C919    1.410   .     A
C916   C938    1.428   .     A
C917   C918    1.389   .     A
C917   H941    1.084   .     S
C918   C930    1.393   .     A
C918   H955    1.083   .     S
C919   C930    1.392   .     A
C919   H954    1.077   .     S
C920   C791    1.335   1_655 S
C920   H821    1.088   1_655 S
C922   H958    1.083   .     S
C922   C929    1.400   .     A
C922   C931    1.392   .     A
C923   C926    1.455   .     S
C923   C1119   1.353   .     S
C923   H1148   1.089   .     S
C924   C925    1.433   .     S
C925   O970    1.276   .     A
C925   O964    1.276   .     A
C926   O965    1.259   .     A
C926   O971    1.279   .     A
C927   O960    1.277   .     A
C927   O962    1.276   .     A
C927   C930    1.449   .     S
C928   O961    1.282   .     A
C928   C929    1.471   .     S
C928   O963    1.284   .     A
C929   C933    1.399   .     A
C931   C936    1.403   .     A
C931   H957    1.084   .     S
C932   H950    1.112   .     S
C932   H949    1.112   .     S
C932   C1119   1.531   .     S
C932   C1129   1.533   .     S
C933   H942    1.074   .     S
C933   C935    1.408   .     A
C934   H948    1.111   .     S
C934   H946    1.111   .     S
C934   H947    1.111   .     S
C935   C937    1.427   .     A
C935   C936    1.418   .     A
C936   C355    1.390   1_556 S
C937   C353    1.427   1_556 S
C938   C939    1.416   .     A
C939   C940    1.387   .     A
C939   H943    1.076   .     S
C940   H945    1.084   .     S
H952   C791    1.086   1_655 S
O959   Zn973   1.949   .     S
O959   Zn974   1.942   .     S
O959   Zn975   1.925   .     S
O959   Zn972   1.968   .     S
O960   Zn973   1.935   .     S
O961   Zn975   1.947   .     S
O962   Zn974   1.938   .     S
O963   Zn972   1.926   .     S
O964   Zn972   1.939   .     S
O965   Zn975   1.946   .     S
O966   Zn973   1.920   .     S
O967   Zn974   1.934   .     S
O968   Zn975   1.932   .     S
O969   Zn972   1.922   .     S
O970   Zn973   1.949   .     S
O971   Zn974   1.938   .     S
C976   C986    1.437   .     S
C976   O1033   1.270   .     A
C976   O1031   1.270   .     A
C977   C1002   1.416   .     A
C977   C978    1.384   .     A
C977   H1009   1.075   .     S
C978   H1021   1.085   .     S
C978   C395    1.389   1_556 S
C979   O1032   1.287   .     A
C979   O1034   1.283   .     A
C979   C985    1.455   .     S
C980   C981    1.421   .     A
C980   C982    1.403   .     A
C981   C984    1.410   .     A
C981   C1003   1.428   .     A
C982   C983    1.389   .     A
C982   H1006   1.084   .     S
C983   C995    1.393   .     A
C983   H1020   1.083   .     S
C984   C995    1.392   .     A
C984   H1019   1.077   .     S
C985   C1051   1.335   .     S
C985   H1081   1.088   .     S
C986   C1115   1.335   1_455 S
C986   H1147   1.086   1_455 S
C987   H1023   1.083   .     S
C987   C994    1.400   .     A
C987   C996    1.392   .     A
C988   C991    1.455   .     S
C988   C599    1.353   1_565 S
C988   H628    1.089   1_565 S
C989   C990    1.433   .     S
C990   O1035   1.276   .     A
C990   O1029   1.276   .     A
C991   O1030   1.259   .     A
C991   O1036   1.279   .     A
C992   O1025   1.277   .     A
C992   O1027   1.276   .     A
C992   C995    1.449   .     S
C993   O1026   1.282   .     A
C993   C994    1.471   .     S
C993   O1028   1.284   .     A
C994   C998    1.399   .     A
C996   C1001   1.403   .     A
C996   H1022   1.084   .     S
C997   H1015   1.112   .     S
C997   H1014   1.112   .     S
C997   C599    1.531   1_565 S
C997   C609    1.533   1_565 S
C998   H1007   1.074   .     S
C998   C1000   1.408   .     A
C999   H1013   1.111   .     S
C999   H1011   1.111   .     S
C999   H1012   1.111   .     S
C1000  C1002   1.427   .     A
C1000  C1001   1.418   .     A
C1001  C420    1.390   1_556 S
C1002  C418    1.427   1_556 S
C1003  C1004   1.416   .     A
C1004  C1005   1.387   .     A
C1004  H1008   1.076   .     S
C1005  H1010   1.084   .     S
H1016  C1115   1.088   1_455 S
H1017  C1051   1.086   .     S
O1024  Zn1038  1.949   .     S
O1024  Zn1039  1.942   .     S
O1024  Zn1040  1.925   .     S
O1024  Zn1037  1.968   .     S
O1025  Zn1038  1.935   .     S
O1026  Zn1040  1.947   .     S
O1027  Zn1039  1.938   .     S
O1028  Zn1037  1.926   .     S
O1029  Zn1037  1.939   .     S
O1030  Zn1040  1.946   .     S
O1031  Zn1038  1.920   .     S
O1032  Zn1039  1.934   .     S
O1033  Zn1040  1.932   .     S
O1034  Zn1037  1.922   .     S
O1035  Zn1038  1.949   .     S
O1036  Zn1039  1.938   .     S
C1041  C1051   1.437   .     S
C1041  O1098   1.270   .     A
C1041  O1096   1.270   .     A
C1042  C1067   1.416   .     A
C1042  C1043   1.384   .     A
C1042  H1074   1.075   .     S
C1043  H1086   1.085   .     S
C1043  C460    1.389   1_556 S
C1044  O1097   1.287   .     A
C1044  O1099   1.283   .     A
C1044  C1050   1.455   .     S
C1045  C1046   1.421   .     A
C1045  C1047   1.403   .     A
C1046  C1049   1.410   .     A
C1046  C1068   1.428   .     A
C1047  C1048   1.389   .     A
C1047  H1071   1.084   .     S
C1048  C1060   1.393   .     A
C1048  H1085   1.083   .     S
C1049  C1060   1.392   .     A
C1049  H1084   1.077   .     S
C1050  C1116   1.335   .     S
C1050  H1146   1.088   .     S
C1052  H1088   1.083   .     S
C1052  C1059   1.400   .     A
C1052  C1061   1.392   .     A
C1053  C1056   1.455   .     S
C1053  C664    1.353   1_565 S
C1053  H693    1.089   1_565 S
C1054  C1055   1.433   .     S
C1055  O1100   1.276   .     A
C1055  O1094   1.276   .     A
C1056  O1095   1.259   .     A
C1056  O1101   1.279   .     A
C1057  O1090   1.277   .     A
C1057  O1092   1.276   .     A
C1057  C1060   1.449   .     S
C1058  O1091   1.282   .     A
C1058  C1059   1.471   .     S
C1058  O1093   1.284   .     A
C1059  C1063   1.399   .     A
C1061  C1066   1.403   .     A
C1061  H1087   1.084   .     S
C1062  H1080   1.112   .     S
C1062  H1079   1.112   .     S
C1062  C664    1.531   1_565 S
C1062  C674    1.533   1_565 S
C1063  H1072   1.074   .     S
C1063  C1065   1.408   .     A
C1064  H1078   1.111   .     S
C1064  H1076   1.111   .     S
C1064  H1077   1.111   .     S
C1065  C1067   1.427   .     A
C1065  C1066   1.418   .     A
C1066  C485    1.390   1_556 S
C1067  C483    1.427   1_556 S
C1068  C1069   1.416   .     A
C1069  C1070   1.387   .     A
C1069  H1073   1.076   .     S
C1070  H1075   1.084   .     S
H1082  C1116   1.086   .     S
O1089  Zn1103  1.949   .     S
O1089  Zn1104  1.942   .     S
O1089  Zn1105  1.925   .     S
O1089  Zn1102  1.968   .     S
O1090  Zn1103  1.935   .     S
O1091  Zn1105  1.947   .     S
O1092  Zn1104  1.938   .     S
O1093  Zn1102  1.926   .     S
O1094  Zn1102  1.939   .     S
O1095  Zn1105  1.946   .     S
O1096  Zn1103  1.920   .     S
O1097  Zn1104  1.934   .     S
O1098  Zn1105  1.932   .     S
O1099  Zn1102  1.922   .     S
O1100  Zn1103  1.949   .     S
O1101  Zn1104  1.938   .     S
C1106  C1116   1.437   .     S
C1106  O1163   1.270   .     A
C1106  O1161   1.270   .     A
C1107  C1132   1.416   .     A
C1107  C1108   1.384   .     A
C1107  H1139   1.075   .     S
C1108  H1151   1.085   .     S
C1108  C525    1.389   1_556 S
C1109  O1162   1.287   .     A
C1109  O1164   1.283   .     A
C1109  C1115   1.455   .     S
C1110  C1111   1.421   .     A
C1110  C1112   1.403   .     A
C1111  C1114   1.410   .     A
C1111  C1133   1.428   .     A
C1112  C1113   1.389   .     A
C1112  H1136   1.084   .     S
C1113  C1125   1.393   .     A
C1113  H1150   1.083   .     S
C1114  C1125   1.392   .     A
C1114  H1149   1.077   .     S
C1115  C986    1.335   1_655 S
C1115  H1016   1.088   1_655 S
C1117  H1153   1.083   .     S
C1117  C1124   1.400   .     A
C1117  C1126   1.392   .     A
C1118  C1121   1.455   .     S
C1118  C729    1.353   1_565 S
C1118  H758    1.089   1_565 S
C1119  C1120   1.433   .     S
C1120  O1165   1.276   .     A
C1120  O1159   1.276   .     A
C1121  O1160   1.259   .     A
C1121  O1166   1.279   .     A
C1122  O1155   1.277   .     A
C1122  O1157   1.276   .     A
C1122  C1125   1.449   .     S
C1123  O1156   1.282   .     A
C1123  C1124   1.471   .     S
C1123  O1158   1.284   .     A
C1124  C1128   1.399   .     A
C1126  C1131   1.403   .     A
C1126  H1152   1.084   .     S
C1127  H1145   1.112   .     S
C1127  H1144   1.112   .     S
C1127  C729    1.531   1_565 S
C1127  C739    1.533   1_565 S
C1128  H1137   1.074   .     S
C1128  C1130   1.408   .     A
C1129  H1143   1.111   .     S
C1129  H1141   1.111   .     S
C1129  H1142   1.111   .     S
C1130  C1132   1.427   .     A
C1130  C1131   1.418   .     A
C1131  C550    1.390   1_556 S
C1132  C548    1.427   1_556 S
C1133  C1134   1.416   .     A
C1134  C1135   1.387   .     A
C1134  H1138   1.076   .     S
C1135  H1140   1.084   .     S
H1147  C986    1.086   1_655 S
O1154  Zn1168  1.949   .     S
O1154  Zn1169  1.942   .     S
O1154  Zn1170  1.925   .     S
O1154  Zn1167  1.968   .     S
O1155  Zn1168  1.935   .     S
O1156  Zn1170  1.947   .     S
O1157  Zn1169  1.938   .     S
O1158  Zn1167  1.926   .     S
O1159  Zn1167  1.939   .     S
O1160  Zn1170  1.946   .     S
O1161  Zn1168  1.920   .     S
O1162  Zn1169  1.934   .     S
O1163  Zn1170  1.932   .     S
O1164  Zn1167  1.922   .     S
O1165  Zn1168  1.949   .     S
O1166  Zn1169  1.938   .     S
